#------------------------------------------------------------------------------
#$Date: 2020-01-25 00:14:51 +0200 (Sat, 25 Jan 2020) $
#$Revision: 247192 $
#$URL: file:///home/coder/svn-repositories/cod/cif/4/51/73/4517321.cif $
#------------------------------------------------------------------------------
#
# This file is available in the Crystallography Open Database (COD),
# http://www.crystallography.net/
#
# All data on this site have been placed in the public domain by the
# contributors.
#
data_4517321
loop_
_publ_author_name
'Sun, Fang-Zhou'
'Yang, Shan-Qing'
'Krishna, Rajamani'
'Zhang, Ying-Hui'
'Xia, Yu-Pei'
'Hu, Tong-Liang'
_publ_section_title
;
 Microporous Metal-Organic Framework with a Completely Reversed Adsorption
 Relationship for C<sub>2</sub> Hydrocarbons at Room Temperature.
;
_journal_name_full               'ACS applied materials &amp; interfaces'
_journal_paper_doi               10.1021/acsami.9b22410
_journal_year                    2020
_chemical_formula_moiety         'C33 H25 Mn2 N O10, C3 H7 N O, C2 H3 N'
_chemical_formula_sum            'C38 H35 Mn2 N3 O11'
_chemical_formula_weight         819.57
_space_group_crystal_system      monoclinic
_space_group_IT_number           14
_space_group_name_Hall           '-P 2ybc'
_space_group_name_H-M_alt        'P 1 21/c 1'
_atom_sites_solution_hydrogens   mixed
_audit_creation_date             2019-10-13
_audit_creation_method
;
Olex2 1.2
(compiled 2018.05.29 svn.r3508 for OlexSys, GUI svn.r5506)
;
_cell_angle_alpha                90
_cell_angle_beta                 97.1560(10)
_cell_angle_gamma                90
_cell_formula_units_Z            4
_cell_length_a                   11.62120(10)
_cell_length_b                   13.0997(2)
_cell_length_c                   25.0298(3)
_cell_measurement_reflns_used    12388
_cell_measurement_temperature    100.00(10)
_cell_measurement_theta_max      73.8630
_cell_measurement_theta_min      5.1260
_cell_volume                     3780.71(8)
_computing_cell_refinement       'CrysAlisPro 1.171.39.33c (Rigaku OD, 2017)'
_computing_data_collection       'CrysAlisPro 1.171.39.33c (Rigaku OD, 2017)'
_computing_data_reduction        'CrysAlisPro 1.171.39.33c (Rigaku OD, 2017)'
_computing_molecular_graphics    'Olex2 (Dolomanov et al., 2009)'
_computing_publication_material  'Olex2 (Dolomanov et al., 2009)'
_computing_structure_refinement  'ShelXL (Sheldrick, 2015)'
_computing_structure_solution    'ShelXT (Sheldrick, 2015)'
_diffrn_ambient_environment      N~2~
_diffrn_ambient_temperature      100.00(10)
_diffrn_detector                 'CCD plate'
_diffrn_measured_fraction_theta_full 0.999
_diffrn_measured_fraction_theta_max 0.968
_diffrn_measurement_details
;
List of Runs (angles in degrees, time in seconds):

  # Type    Start    End  Width  t~exp~   \w     \q     \k     \f   Frames
--------------------------------------------------------------------------
  1  \w    -29.00  87.00   0.50    0.50    --    0.00  57.00 -60.00  232
  2  \w    -81.00 -56.00   0.50    0.50    --    0.00 -57.00  60.00   50
  3  \w     13.00  38.00   0.50    0.50    --    0.00  57.00-150.00   50
  4  \w    -47.00  22.00   0.50    0.50    --    0.00 -57.00  60.00  138
  5  \w     11.00 121.00   0.50    0.50    --   95.80 -61.00  60.00  220
  6  \w      6.00 123.00   0.50    0.50    --   95.80 -82.00 -90.00  234
  7  \w    138.00 184.00   0.50    0.50    --   95.80  45.00  60.00   92
  8  \w     71.00 131.00   0.50    0.50    --   95.80  45.00  60.00  120
  9  \w     18.00 120.00   0.50    0.50    --   95.80 -61.00 -90.00  204
 10  \w     45.00 171.00   0.50    0.50    --   95.80   0.00-150.00  252
;
_diffrn_measurement_device       'four-circle diffractometer'
_diffrn_measurement_device_type  'XtaLAB AFC12 (RINC): Kappa single'
_diffrn_measurement_method       '\w scans'
_diffrn_orient_matrix_type
'CrysAlisPro convention (1999,Acta A55,543-557)'
_diffrn_orient_matrix_UB_11      -0.0918498000
_diffrn_orient_matrix_UB_12      -0.0838625000
_diffrn_orient_matrix_UB_13      0.0028880000
_diffrn_orient_matrix_UB_21      -0.0718745000
_diffrn_orient_matrix_UB_22      0.0733372000
_diffrn_orient_matrix_UB_23      0.0307010000
_diffrn_orient_matrix_UB_31      -0.0651269000
_diffrn_orient_matrix_UB_32      0.0375345000
_diffrn_orient_matrix_UB_33      -0.0538686000
_diffrn_radiation_monochromator  mirror
_diffrn_radiation_probe          x-ray
_diffrn_radiation_type           CuK\a
_diffrn_radiation_wavelength     1.54184
_diffrn_reflns_av_R_equivalents  0.0244
_diffrn_reflns_av_unetI/netI     0.0308
_diffrn_reflns_Laue_measured_fraction_full 0.999
_diffrn_reflns_Laue_measured_fraction_max 0.968
_diffrn_reflns_limit_h_max       14
_diffrn_reflns_limit_h_min       -14
_diffrn_reflns_limit_k_max       15
_diffrn_reflns_limit_k_min       -15
_diffrn_reflns_limit_l_max       21
_diffrn_reflns_limit_l_min       -30
_diffrn_reflns_number            21634
_diffrn_reflns_point_group_measured_fraction_full 0.999
_diffrn_reflns_point_group_measured_fraction_max 0.968
_diffrn_reflns_theta_full        67.684
_diffrn_reflns_theta_max         74.497
_diffrn_reflns_theta_min         3.559
_diffrn_source                   'Rotating-anode X-ray tube (dual wavelength)'
_diffrn_source_type              'Rigaku (Cu) X-ray DW Source'
_exptl_absorpt_coefficient_mu    5.978
_exptl_absorpt_correction_T_max  1.00000
_exptl_absorpt_correction_T_min  0.58688
_exptl_absorpt_correction_type   multi-scan
_exptl_absorpt_process_details
;
CrysAlisPro 1.171.39.33c (Rigaku Oxford Diffraction, 2017)
Empirical absorption correction using spherical harmonics,
 implemented in SCALE3 ABSPACK scaling algorithm.
;
_exptl_crystal_colour            'light yellow'
_exptl_crystal_density_diffrn    1.440
_exptl_crystal_description       stick
_exptl_crystal_F_000             1688
_exptl_crystal_size_max          0.28
_exptl_crystal_size_mid          0.26
_exptl_crystal_size_min          0.23
_refine_diff_density_max         1.767
_refine_diff_density_min         -0.611
_refine_diff_density_rms         0.083
_refine_ls_extinction_method     none
_refine_ls_goodness_of_fit_ref   1.055
_refine_ls_hydrogen_treatment    constr
_refine_ls_matrix_type           full
_refine_ls_number_parameters     493
_refine_ls_number_reflns         7496
_refine_ls_number_restraints     0
_refine_ls_restrained_S_all      1.055
_refine_ls_R_factor_all          0.0503
_refine_ls_R_factor_gt           0.0461
_refine_ls_shift/su_max          0.001
_refine_ls_shift/su_mean         0.000
_refine_ls_structure_factor_coef Fsqd
_refine_ls_weighting_details
'w=1/[\s^2^(Fo^2^)+(0.0717P)^2^+5.0409P] where P=(Fo^2^+2Fc^2^)/3'
_refine_ls_weighting_scheme      calc
_refine_ls_wR_factor_gt          0.1277
_refine_ls_wR_factor_ref         0.1305
_reflns_Friedel_coverage         0.000
_reflns_number_gt                6803
_reflns_number_total             7496
_reflns_threshold_expression     'I > 2\s(I)'
_cod_data_source_file            am9b22410_si_002.cif
_cod_data_source_block           NUM-7
_cod_database_code               4517321
_shelxl_version_number           2013-4
_shelx_space_group_comment
;
The symmetry employed for this shelxl refinement is uniquely defined
by the following loop, which should always be used as a source of
symmetry information in preference to the above space-group names.
They are only intended as comments.
;
_reflns_odcompleteness_completeness 99.93
_reflns_odcompleteness_iscentric 1
_reflns_odcompleteness_theta     66.97
_olex2_refinement_description
;
1. Fixed Uiso
 At 1.2 times of:
  All C(H) groups
 At 1.5 times of:
  All C(H,H,H) groups, All O(H,H) groups
2.a Rotating group:
 O10(H10A,H10B)
2.b Aromatic/amide H refined with riding coordinates:
 C00M(H00M), C00Q(H00Q), C00R(H00R), C00S(H00S), C00T(H00T), C00U(H00U),
 C00W(H00W), C00X(H00X), C00Y(H00Y), C00Z(H00Z), C010(H010), C011(H011),
 C014(H014), C015(H015), C016(H016), C017(H017), C01A(H01A), C01D(H01H)
2.c Idealised Me refined as rotating group:
 C01B(H01O,H01P,H01Q), C01C(H01B,H01C,H01D), C01E(H01E,H01F,H01G), C01H(H01I,
 H01J,H01K), C01I(H01L,H01M,H01N)
;
_shelx_res_file
;
TITL 180424-7_a.res in P2(1)/c
REM Old TITL 180424-7 in P2(1)/c
REM SHELXT solution in P2(1)/c
REM R1 0.135, Rweak 0.013, Alpha 0.041, Orientation as input
REM Formula found by SHELXT: C40 N O11 Br2
CELL 1.54184 11.6212 13.0997 25.0298 90 97.156 90
ZERR 4 0.0001 0.0002 0.0003 0 0.001 0
LATT 1
SYMM -X,0.5+Y,0.5-Z
SFAC C H Mn N O
UNIT 152 140 8 12 44

L.S. 20
PLAN  20
BOND $H
list 4
fmap 2
acta
REM <olex2.extras>
REM <HklSrc "%.\\180424-7_sq.hkl">
REM </olex2.extras>

WGHT    0.071700    5.040900
FVAR       0.32487
MN01  3    0.119055    0.538034    0.744615    11.00000    0.01450    0.01654 =
         0.01527    0.00015    0.00286    0.00127
MN02  3    0.927990    0.725116    0.226362    11.00000    0.01447    0.01899 =
         0.01640    0.00042    0.00508   -0.00103
O4    5    0.869423    0.919837    0.688085    11.00000    0.01602    0.02128 =
         0.01727   -0.00035   -0.00074   -0.00022
O2    5    0.180349    0.670177    0.711649    11.00000    0.02320    0.02145 =
         0.01955    0.00295    0.00624   -0.00333
O1    5    0.036361    0.755392    0.663878    11.00000    0.01739    0.03188 =
         0.02263   -0.00102    0.00854    0.00266
O9    5   -0.009439    0.634542    0.782535    11.00000    0.02177    0.02439 =
         0.02103    0.00189    0.00846    0.00604
O10   5    0.817248    0.833199    0.180583    11.00000    0.02181    0.02236 =
         0.03216    0.00146    0.00124   -0.00014
AFIX   7
H10A  2    0.852541    0.891946    0.178080    11.00000   -1.50000
H10B  2    0.758133    0.849424    0.197535    11.00000   -1.50000
AFIX   0
O6    5    0.767435    0.550357    0.297057    11.00000    0.02709    0.02270 =
         0.02833   -0.00321    0.01306    0.00300
O7    5    0.055570    0.638366    0.273341    11.00000    0.02494    0.03408 =
         0.02313    0.00447   -0.00611   -0.00053
O8    5    0.026694    0.493747    0.315854    11.00000    0.02127    0.02240 =
         0.02704   -0.00457   -0.00106   -0.00099
O3    5    0.749870    1.050395    0.679026    11.00000    0.02579    0.01874 =
         0.02361   -0.00310   -0.00230    0.00117
O5    5    0.811295    0.714654    0.285542    11.00000    0.03235    0.02596 =
         0.03026   -0.00180    0.02071   -0.00482
C00D  1    0.169748    0.609588    0.356383    11.00000    0.01486    0.02068 =
         0.01786   -0.00225    0.00194    0.00121
C00E  1    0.512812    0.753427    0.486810    11.00000    0.01790    0.02172 =
         0.01881   -0.00034    0.00395   -0.00090
N00F  4   -0.064457    0.576781    0.860646    11.00000    0.03741    0.03639 =
         0.03531    0.01160    0.01976    0.01199
C00G  1    0.693508    0.673067    0.352834    11.00000    0.01400    0.02286 =
         0.01929   -0.00039    0.00465    0.00055
C00H  1    0.715273    0.915244    0.615056    11.00000    0.01738    0.01981 =
         0.01699    0.00034    0.00099   -0.00056
C00I  1    0.209704    0.728120    0.624892    11.00000    0.01676    0.01871 =
         0.01889   -0.00120    0.00410   -0.00192
C00J  1    0.340886    0.732486    0.538056    11.00000    0.01505    0.02346 =
         0.01805   -0.00155    0.00340   -0.00230
C00K  1    0.136782    0.717770    0.670231    11.00000    0.01797    0.01750 =
         0.02129   -0.00225    0.00363   -0.00159
C00L  1    0.762662    0.643365    0.308069    11.00000    0.01475    0.02365 =
         0.01814    0.00026    0.00364    0.00008
C00M  1    0.762320    0.832635    0.590008    11.00000    0.01603    0.02364 =
         0.01967    0.00136    0.00022    0.00265
AFIX  43
H00M  2    0.837421    0.810997    0.601789    11.00000   -1.20000
AFIX   0
C00N  1    0.583099    0.811662    0.530576    11.00000    0.01662    0.02343 =
         0.01603   -0.00017    0.00231   -0.00187
C00O  1    0.327550    0.680812    0.441675    11.00000    0.01299    0.02432 =
         0.01819   -0.00176    0.00316   -0.00011
C00P  1    0.573583    0.725949    0.439409    11.00000    0.01322    0.02617 =
         0.01575   -0.00196    0.00175    0.00051
C00Q  1    0.225894    0.702925    0.352398    11.00000    0.01787    0.02210 =
         0.01895    0.00245    0.00195    0.00089
AFIX  43
H00Q  2    0.210879    0.741637    0.321162    11.00000   -1.20000
AFIX   0
C00R  1    0.163572    0.770733    0.575910    11.00000    0.01680    0.03106 =
         0.02283    0.00173    0.00304    0.00583
AFIX  43
H00R  2    0.089384    0.798574    0.572040    11.00000   -1.20000
AFIX   0
C00S  1    0.195687    0.550799    0.402861    11.00000    0.02119    0.01866 =
         0.02363    0.00039    0.00362   -0.00278
AFIX  43
H00S  2    0.160559    0.487515    0.405488    11.00000   -1.20000
AFIX   0
C00T  1    0.322124    0.689388    0.630401    11.00000    0.01737    0.02171 =
         0.01766    0.00017    0.00192    0.00050
AFIX  43
H00T  2    0.353858    0.661451    0.663108    11.00000   -1.20000
AFIX   0
C00U  1    0.387201    0.692039    0.587654    11.00000    0.01487    0.02249 =
         0.02123   -0.00130    0.00303    0.00169
AFIX  43
H00U  2    0.462500    0.666601    0.592077    11.00000   -1.20000
AFIX   0
C00V  1    0.077852    0.578509    0.312033    11.00000    0.01495    0.02203 =
         0.02128   -0.00370    0.00321    0.00318
C00W  1    0.273639    0.586608    0.445038    11.00000    0.02097    0.02626 =
         0.01804    0.00337    0.00120   -0.00176
AFIX  43
H00W  2    0.290150    0.547246    0.475965    11.00000   -1.20000
AFIX   0
C00X  1    0.303874    0.738211    0.394728    11.00000    0.01614    0.02189 =
         0.02021    0.00120    0.00432   -0.00124
AFIX  43
H00X  2    0.340680    0.800637    0.391796    11.00000   -1.20000
AFIX   0
C00Y  1    0.227708    0.771721    0.533133    11.00000    0.01848    0.03436 =
         0.01837    0.00375    0.00370    0.00587
AFIX  43
H00Y  2    0.195306    0.798937    0.500359    11.00000   -1.20000
AFIX   0
C00Z  1    0.537929    0.896705    0.554865    11.00000    0.01419    0.02390 =
         0.02401    0.00069   -0.00111    0.00049
AFIX  43
H00Z  2    0.463001    0.918690    0.543003    11.00000   -1.20000
AFIX   0
C010  1    0.689486    0.773921    0.369746    11.00000    0.01814    0.02213 =
         0.02304    0.00067    0.00609   -0.00313
AFIX  43
H010  2    0.726372    0.824393    0.352029    11.00000   -1.20000
AFIX   0
C011  1    0.631087    0.799896    0.412710    11.00000    0.01932    0.01939 =
         0.02313   -0.00318    0.00540   -0.00127
AFIX  43
H011  2    0.630192    0.867550    0.423914    11.00000   -1.20000
AFIX   0
C012  1    0.401973    0.724528    0.489192    11.00000    0.01638    0.02395 =
         0.01700   -0.00088    0.00264   -0.00036
C013  1    0.781302    0.965627    0.662995    11.00000    0.01742    0.02135 =
         0.01785    0.00246    0.00359   -0.00256
C014  1    0.636055    0.598850    0.379048    11.00000    0.02469    0.01931 =
         0.02714   -0.00196    0.00957   -0.00014
AFIX  43
H014  2    0.637378    0.531237    0.367811    11.00000   -1.20000
AFIX   0
C015  1    0.603415    0.948287    0.596238    11.00000    0.02106    0.02043 =
         0.02111   -0.00212    0.00028    0.00283
AFIX  43
H015  2    0.572776    1.005236    0.611582    11.00000   -1.20000
AFIX   0
C016  1    0.697508    0.782808    0.547673    11.00000    0.01933    0.02556 =
         0.01914   -0.00473    0.00333    0.00167
AFIX  43
H016  2    0.730568    0.729435    0.530393    11.00000   -1.20000
AFIX   0
C017  1    0.576740    0.624909    0.421861    11.00000    0.02177    0.02276 =
         0.02419    0.00129    0.01035   -0.00276
AFIX  43
H017  2    0.538642    0.574520    0.439075    11.00000   -1.20000
AFIX   0

O11   5    0.612845    0.635603    0.712814    11.00000    0.04058    0.10738 =
         0.09263   -0.03788    0.02492   -0.01878
N019  4    0.500736    0.755490    0.743976    11.00000    0.02991    0.11595 =
         0.03491   -0.00680    0.00194   -0.00676
C01A  1   -0.011326    0.642027    0.832169    11.00000    0.02290    0.03417 =
         0.02976   -0.00102    0.00584    0.00226
AFIX  43
H01A  2    0.027040    0.696882    0.850007    11.00000   -1.20000
AFIX   0

C01B  1    0.103172    0.503574    0.567583    11.00000    0.04594    0.05416 =
         0.06134    0.00282    0.01017    0.00037
AFIX 137
H01O  2    0.087946    0.505361    0.604398    11.00000   -1.50000
H01P  2    0.054309    0.552157    0.546929    11.00000   -1.50000
H01Q  2    0.183013    0.520392    0.565818    11.00000   -1.50000
AFIX   0

C01C  1   -0.052207    0.584179    0.919234    11.00000    0.06153    0.11730 =
         0.03743    0.03240    0.02060    0.03993
AFIX 137
H01B  2   -0.006787    0.527845    0.934667    11.00000   -1.50000
H01C  2   -0.127526    0.582448    0.931195    11.00000   -1.50000
H01D  2   -0.014245    0.647112    0.930395    11.00000   -1.50000
AFIX   0

C01D  1    0.577033    0.732212    0.713731    11.00000    0.03385    0.14946 =
         0.04556   -0.02796    0.01404   -0.02467
AFIX  43
H01H  2    0.607208    0.781597    0.692689    11.00000   -1.20000
AFIX   0

C01E  1   -0.133465    0.494367    0.834404    11.00000    0.07703    0.03067 =
         0.11046   -0.00897    0.06811   -0.01165
AFIX 137
H01E  2   -0.156964    0.511878    0.797410    11.00000   -1.50000
H01F  2   -0.200935    0.483811    0.852284    11.00000   -1.50000
H01G  2   -0.088115    0.432931    0.836172    11.00000   -1.50000
AFIX   0

C01F  1    0.079903    0.404320    0.546316    11.00000    0.06588    0.06196 =
         0.09260   -0.01254   -0.00732    0.00571
N01G  4    0.062130    0.322559    0.525559    11.00000    0.09014    0.06710 =
         0.21070   -0.03055   -0.04824    0.02220
C01H  1    0.445547    0.690230    0.777626    11.00000    0.04078    0.29667 =
         0.03859    0.00316    0.00894   -0.05201
AFIX 137
H01I  2    0.475076    0.622160    0.775233    11.00000   -1.50000
H01J  2    0.363488    0.690374    0.766400    11.00000   -1.50000
H01K  2    0.460484    0.713703    0.814166    11.00000   -1.50000
AFIX   0
C01I  1    0.456215    0.862735    0.743450    11.00000    0.08010    0.15770 =
         0.11674   -0.06178   -0.03450    0.05714
AFIX 137
H01L  2    0.502795    0.905321    0.723475    11.00000   -1.50000
H01M  2    0.460084    0.887488    0.779729    11.00000   -1.50000
H01N  2    0.377209    0.864189    0.726806    11.00000   -1.50000
AFIX   0
HKLF 4

REM  180424-7_a.res in P2(1)/c
REM R1 =  0.0461 for    6803 Fo > 4sig(Fo)  and  0.0503 for all    7496 data
REM    493 parameters refined using      0 restraints

END

WGHT      0.0728      5.1157

REM Highest difference peak  1.767,  deepest hole -0.611,  1-sigma level  0.083
Q1    1   0.0000  0.5000  0.5000  10.50000  0.05    1.77
Q2    1   0.5476  0.6422  0.7470  11.00000  0.05    1.10
Q3    1  -0.0062  0.5975  0.5193  11.00000  0.05    0.83
Q4    1   0.0286  0.4246  0.5080  11.00000  0.05    0.78
Q5    1   0.5523  0.8176  0.7028  11.00000  0.05    0.75
Q6    1   0.4188  0.7820  0.7708  11.00000  0.05    0.61
Q7    1   0.6323  0.5581  0.7203  11.00000  0.05    0.45
Q8    1  -0.0796  0.5867  0.8002  11.00000  0.05    0.34
Q9    1   0.4405  0.9644  0.7508  11.00000  0.05    0.31
Q10   1   0.6010  0.5761  0.6801  11.00000  0.05    0.31
Q11   1  -0.1730  0.4903  0.8719  11.00000  0.05    0.31
Q12   1   0.0252  0.3170  0.4865  11.00000  0.05    0.30
Q13   1   0.4195  1.0039  0.7965  11.00000  0.05    0.29
Q14   1   0.0235  0.5851  0.7604  11.00000  0.05    0.28
Q15   1   0.1805  0.6642  0.3601  11.00000  0.05    0.28
Q16   1   0.7261  0.6611  0.3331  11.00000  0.05    0.28
Q17   1   0.7375  0.9338  0.6378  11.00000  0.05    0.27
Q18   1   0.1950  0.5876  0.3768  11.00000  0.05    0.27
Q19   1   0.7660  0.4704  0.2619  11.00000  0.05    0.27
Q20   1   0.1283  0.5945  0.3401  11.00000  0.05    0.26
;
_shelx_res_checksum              49949
_shelx_hkl_file
;
   0   0   2 9098.63  330.18
   0   0  -3    0.81    0.29
   0   0   3    0.11    0.27
   0   0   4 1212.51   43.94
   0   0  -4 1201.29   43.87
   0   0  -4 1206.96   43.92
   0   0  -5    0.13    0.42
   0   0   5    0.09    0.43
   0   0  -6 1613.16   59.20
   0   0   6 1636.36   59.22
   0   0  -7    0.02    0.53
   0   0   7    5.20    0.65
   0   0   8  351.31   13.00
   0   0  -8  343.83   12.97
   0   0  -9    0.32    0.60
   0   0   9    1.31    0.45
   0   0 -10  190.96    7.19
   0   0  10  196.15    7.23
   0   0  10  177.33    6.87
   0   0  11   -0.48    0.72
   0   0 -11   -0.17    0.69
   0   0  11    0.68    0.47
   0   0  12   38.87    1.71
   0   0  12   44.06    2.18
   0   0 -12   41.06    2.12
   0   0 -12   40.62    2.53
   0   0  12   39.97    1.76
   0   0 -13    0.08    0.68
   0   0  13    0.94    0.91
   0   0  13    0.56    0.53
   0   0 -13    0.45    1.41
   0   0  13    0.16    0.45
   0   0 -14    9.53    1.82
   0   0  14    7.63    1.14
   0   0 -15    1.09    1.86
   0   0 -15    1.13    1.59
   0   0  15   -0.23    0.94
   0   0 -16    5.13    2.38
   0   0 -16    5.31    1.86
   0   0 -17    0.08    1.96
   0   0 -17   -0.28    2.67
   0   0 -18    8.06    3.03
   0   0 -18    9.81    2.22
   0   0 -19   -0.42    2.33
   0   0 -19    0.97    3.19
   0   0 -20   71.26    4.45
   0   0 -20   76.59    5.50
   0   0 -21    1.23    2.51
   0   0 -21    1.20    3.81
   0   0 -22  185.53    8.35
   0   0 -22  186.42    9.27
   0   0 -23    5.23    4.03
   0   0 -23   -2.05    2.37
   0   0 -24    1.90    3.86
   0   0 -25    2.03    3.51
   0   0 -26   36.84    4.26
   0   0 -27   -1.64    3.14
   0   0 -28    0.15    2.51
   0   0 -29    0.84    1.91
   0   0 -30   66.55    3.22
   0   1   1  193.60    7.09
   0   1   2    1.79    0.18
   0   1   3    9.37    0.41
   0   1   4  267.77    9.55
   0  -1  -4  259.18    9.73
   0  -1   4  264.60    9.70
   0  -1   4  279.82    9.71
   0   1   5  425.57   15.52
   0   1   5  390.08   15.71
   0  -1   5  453.18   15.72
   0  -1   5  424.62   15.69
   0  -1  -5  443.41   15.74
   0   1   6  983.04   35.98
   0  -1  -6  983.34   35.80
   0   1   6  984.21   35.74
   0  -1   6  988.66   35.96
   0  -1  -6  998.80   35.99
   0  -1   6  964.26   35.91
   0   1   7  501.59   18.62
   0  -1   7  488.80   18.81
   0  -1  -7  524.10   18.69
   0  -1   7  523.52   18.90
   0  -1  -7  518.94   18.91
   0   1   7  535.98   18.92
   0   1   8  158.75    6.02
   0  -1   8  159.40    6.00
   0  -1  -8  163.33    6.02
   0   1   8  150.43    5.67
   0  -1   8  152.76    5.89
   0  -1   9  155.35    5.99
   0   1   9  156.80    6.00
   0   1   9  150.62    5.61
   0  -1  -9  150.69    5.99
   0  -1  10  121.03    4.68
   0  -1 -10  114.64    4.66
   0   1  10  111.13    4.22
   0   1  10  118.45    4.70
   0   1  11  160.16    6.09
   0  -1 -11  153.51    6.04
   0  -1  11  166.10    6.08
   0   1  11  152.07    5.54
   0   1  11  143.89    5.52
   0  -1  12   13.57    1.17
   0  -1 -12   12.75    1.61
   0  -1  12   11.97    0.92
   0  -1 -12   12.46    1.17
   0   1  12   13.67    1.18
   0  -1  13    6.44    0.75
   0   1  13    6.02    1.09
   0  -1  13    5.58    0.81
   0  -1 -13    2.79    1.54
   0   1 -13    5.97    1.45
   0  -1  13    6.92    1.06
   0  -1 -13    6.57    1.04
   0   1 -14  253.33   10.52
   0  -1  14  271.34   10.28
   0  -1 -14  244.49   10.63
   0   1  14  271.39   10.29
   0   1 -14  262.60   10.27
   0  -1 -14  242.89   10.15
   0  -1 -14  266.61   10.22
   0  -1 -15  122.98    6.28
   0   1 -15  130.73    6.10
   0   1 -15  136.41    5.78
   0  -1  15  139.76    5.75
   0  -1 -15  127.88    5.67
   0   1 -16  903.34   33.29
   0   1 -16  893.39   33.62
   0  -1 -16  881.32   33.84
   0  -1 -16  912.58   33.71
   0  -1 -16  868.56   33.15
   0  -1 -17   21.96    3.00
   0  -1 -17   22.63    3.41
   0   1 -17   24.52    2.17
   0   1 -17   23.77    2.81
   0  -1 -17   24.16    2.12
   0   1 -18   11.30    2.85
   0   1 -18   12.54    1.97
   0  -1 -18   10.22    2.78
   0  -1 -18   10.90    1.97
   0  -1 -18    7.23    3.27
   0  -1 -19   52.70    4.82
   0   1 -19   49.54    4.07
   0  -1 -19   51.78    3.97
   0   1 -20  190.64    9.17
   0  -1 -20  200.29    9.18
   0  -1 -20  199.66    9.68
   0  -1 -21  141.38    8.26
   0   1 -21  157.23    7.74
   0  -1 -21  154.08    7.54
   0   1 -22  328.30   13.89
   0  -1 -22  323.26   13.80
   0  -1 -22  336.05   14.49
   0  -1 -23  152.38    8.54
   0  -1 -23  159.76    7.71
   0   1 -23  161.73    8.00
   0  -1 -24   43.47    3.96
   0   1 -24   49.36    4.35
   0  -1 -24   46.20    5.37
   0  -1 -25   32.15    3.30
   0   1 -25   27.52    3.99
   0  -1 -25   36.88    4.80
   0  -1 -26   15.38    4.18
   0  -1 -26   22.00    2.66
   0   1 -26   21.58    3.25
   0  -1 -27   45.11    4.65
   0   1 -27   51.81    3.73
   0  -1 -28    4.72    2.83
   0   1 -28    9.32    2.24
   0   1 -29   44.60    2.63
   0  -1 -29   47.75    3.37
   0  -1 -30   23.30    2.17
   0  -2   0 5935.54  215.52
   0  -2  -1  202.46    7.49
   0  -2  -2  504.43   18.43
   0  -2  -3 2018.42   73.34
   0  -2  -4  573.45   21.01
   0   2   4  579.34   21.01
   0   2   5  543.34   19.65
   0  -2   5  551.28   19.87
   0  -2  -5  511.57   19.87
   0  -2  -6   10.60    0.86
   0   2   6    8.28    0.83
   0  -2   6    9.85    0.78
   0   2   6   10.04    0.48
   0  -2   6    9.38    0.78
   0   2   7  253.66    9.65
   0  -2   7  248.24    9.59
   0   2   7  255.80    9.28
   0  -2  -7  248.56    9.64
   0  -2   7  256.65    9.61
   0  -2   8  184.01    6.93
   0  -2  -8  172.97    6.66
   0  -2  -8  183.25    7.00
   0  -2   8  184.40    6.94
   0   2   8  186.94    7.00
   0  -2   9   18.04    1.15
   0   2   9   15.44    1.24
   0  -2  -9   16.27    0.77
   0  -2   9   17.03    1.18
   0  -2  -9   14.72    1.14
   0  -2  10    7.01    0.94
   0  -2 -10    8.16    0.99
   0  -2  10    6.47    0.77
   0   2  10    7.80    0.97
   0  -2  11   77.38    3.50
   0  -2 -11   81.40    3.88
   0   2  11   81.31    3.55
   0  -2 -11   79.57    3.55
   0  -2  11   76.74    3.33
   0  -2 -12  840.58   32.34
   0  -2  12  886.45   32.31
   0  -2  12  874.32   32.08
   0   2  12  909.95   32.37
   0  -2 -12  846.97   32.31
   0  -2  13  166.67    6.42
   0  -2 -13  159.25    6.64
   0  -2 -13  159.60    6.76
   0   2  13  163.44    6.71
   0   2 -13  162.32    6.83
   0  -2  13  158.53    6.63
   0   2  14 1312.39   46.85
   0  -2 -14 1251.50   46.80
   0  -2  14 1258.64   46.43
   0   2 -14 1326.39   46.94
   0  -2 -14 1220.00   46.75
   0  -2  14 1245.74   46.74
   0  -2 -15   17.17    2.03
   0   2 -15   15.30    1.97
   0  -2 -16 1603.84   58.64
   0   2 -16 1570.57   58.26
   0  -2 -16 1555.78   58.10
   0   2 -17   59.19    3.64
   0  -2 -17   51.90    3.49
   0  -2 -17   50.26    4.02
   0  -2 -18  662.28   25.65
   0   2 -18  689.23   25.26
   0  -2 -18  634.75   25.72
   0  -2 -18  636.52   24.94
   0  -2 -19    5.28    3.22
   0  -2 -19    4.83    3.96
   0  -2 -19    5.04    2.26
   0   2 -19    6.19    2.63
   0  -2 -20  729.95   27.61
   0  -2 -20  747.80   28.46
   0  -2 -20  703.71   28.59
   0   2 -20  723.18   27.95
   0  -2 -21   35.84    5.13
   0   2 -21   32.96    3.59
   0  -2 -21   35.58    3.07
   0  -2 -21   30.80    4.17
   0  -2 -22  246.81   11.72
   0  -2 -22  263.76   12.20
   0   2 -22  266.57   11.26
   0   2 -23  258.91   10.84
   0  -2 -23  240.46   11.93
   0  -2 -23  246.13   11.37
   0  -2 -24   32.04    3.93
   0  -2 -24   28.96    5.23
   0   2 -24   26.33    3.50
   0   2 -25  301.82   12.35
   0  -2 -25  299.79   13.46
   0  -2 -25  294.04   12.75
   0  -2 -26   61.89    4.42
   0   2 -26   64.94    4.03
   0  -2 -26   67.02    5.47
   0  -2 -27  135.49    7.56
   0  -2 -27  146.63    6.71
   0   2 -27  151.63    6.49
   0  -2 -28   46.80    4.05
   0  -2 -29   33.31    3.11
   0  -2 -30   25.61    2.24
   0  -3   0    0.26    0.51
   0  -3   0    1.54    0.57
   0  -3   1  277.02   10.44
   0  -3  -1  294.27   10.41
   0   3   1  294.86   10.48
   0  -3   1  283.71   10.48
   0  -3  -2 1891.49   68.84
   0  -3  -3 1202.78   43.83
   0  -3  -4  188.01    7.00
   0  -3  -5  115.64    4.36
   0  -3  -6  928.29   33.18
   0  -3  -6  868.27   33.48
   0  -3   6  898.12   33.48
   0  -3   7  635.76   22.81
   0   3   7  618.88   22.80
   0  -3   7  617.82   22.73
   0  -3  -7  612.48   22.43
   0  -3  -7  598.30   22.82
   0  -3   8   13.58    1.03
   0  -3   8   15.47    1.15
   0   3   8   12.23    1.11
   0  -3  -8   13.90    1.22
   0  -3   9  290.86   11.43
   0  -3  -9  295.17   11.50
   0   3   9  307.59   11.49
   0  -3   9  306.76   11.41
   0  -3  10   72.49    3.00
   0  -3  10   75.04    3.06
   0  -3  10   73.77    3.02
   0  -3 -10   79.20    3.19
   0   3  10   73.57    3.11
   0  -3 -11   36.08    2.48
   0  -3 -11   38.33    2.33
   0  -3 -11   39.82    2.18
   0   3  11   37.19    2.12
   0  -3  11   37.16    2.02
   0  -3  11   36.46    2.00
   0  -3  11   39.06    2.06
   0  -3  12  469.25   17.41
   0  -3 -12  464.81   17.79
   0  -3 -12  452.04   17.54
   0  -3 -12  459.27   17.49
   0  -3  12  451.43   17.24
   0   3  12  464.06   17.48
   0  -3  13   67.33    3.01
   0  -3 -13   64.69    3.77
   0   3  13   66.76    3.24
   0  -3 -13   66.07    3.47
   0   3 -13   62.01    2.95
   0  -3  13   61.20    3.14
   0   3 -13   66.38    3.22
   0  -3 -13   60.36    3.19
   0  -3 -14   46.96    3.11
   0  -3  14   50.25    2.67
   0  -3 -14   51.29    3.52
   0  -3  14   49.49    2.53
   0   3 -14   49.78    2.81
   0   3 -14   47.71    2.47
   0  -3 -15  306.05   12.78
   0  -3 -15  332.57   13.25
   0   3 -15  327.37   12.68
   0   3 -16   33.89    2.63
   0  -3 -16   37.18    3.06
   0  -3 -16   30.85    3.59
   0  -3 -17   68.29    5.04
   0   3 -17   76.33    4.06
   0  -3 -17   69.53    5.01
   0  -3 -17   69.39    4.28
   0  -3 -18    3.55    2.63
   0  -3 -18    0.69    3.52
   0   3 -18    4.76    2.15
   0   3 -19  152.20    6.80
   0  -3 -19  148.02    6.98
   0  -3 -19  133.62    7.78
   0  -3 -20   84.34    4.99
   0  -3 -20   75.27    5.87
   0   3 -20   82.33    4.64
   0  -3 -21   42.31    4.88
   0   3 -21   47.03    3.53
   0  -3 -21   50.15    3.99
   0   3 -22  519.04   19.94
   0  -3 -22  492.11   20.91
   0  -3 -22  516.00   20.09
   0   3 -23   24.03    2.93
   0  -3 -23   30.52    3.18
   0  -3 -23   30.57    4.69
   0   3 -24   15.65    2.48
   0  -3 -24   20.88    3.96
   0  -3 -25   55.27    4.67
   0  -3 -25   53.94    5.56
   0  -3 -26   57.46    5.04
   0  -3 -26   44.46    4.29
   0  -3 -27    8.23    2.67
   0  -3 -27    3.79    3.53
   0  -3 -28   63.76    3.63
   0  -3 -28   74.83    4.61
   0  -3 -29    8.57    2.37
   0  -3 -30   58.53    3.14
   0  -4   0 3147.78  115.89
   0  -4   0 3230.88  115.97
   0  -4   1   25.89    1.44
   0  -4  -1   25.59    1.38
   0  -4   1   26.41    1.47
   0  -4  -1   26.98    1.47
   0  -4   2   52.87    2.46
   0  -4  -2   55.38    2.36
   0  -4  -2   51.64    2.49
   0   4   2   57.20    2.47
   0  -4   2   59.55    2.47
   0   4   3  834.21   33.47
   0  -4  -3  970.39   33.37
   0  -4  -4  389.59   14.40
   0  -4  -5 2422.04   88.84
   0  -4   5 2480.44   89.06
   0  -4   6   25.10    1.52
   0  -4   6   22.26    1.52
   0  -4  -6   26.24    1.22
   0  -4  -7  210.16    8.71
   0  -4   7  213.68    8.70
   0  -4  -7  228.39    8.31
   0  -4   7  230.13    8.64
   0   4   8  464.95   18.02
   0  -4   8  479.96   18.06
   0  -4  -8  494.38   18.12
   0  -4  -8  483.16   17.59
   0  -4   8  478.05   17.96
   0  -4   8  475.65   17.97
   0  -4  -9 1846.66   67.91
   0  -4   9 1900.47   67.87
   0  -4   9 1784.48   67.76
   0   4   9 1912.76   67.87
   0  -4   9 1830.54   67.75
   0   4  10  225.13    8.92
   0  -4 -10  227.63    8.98
   0  -4 -10  230.75    9.12
   0  -4  10  243.92    8.95
   0  -4  10  225.09    8.81
   0  -4 -10  222.64    9.01
   0   4 -10  223.58    8.79
   0  -4  10  209.46    8.80
   0  -4 -11 1093.05   41.36
   0   4 -11 1104.52   41.00
   0   4  11 1096.71   41.14
   0  -4  11 1115.72   41.07
   0  -4  11 1115.18   41.01
   0  -4 -11 1092.45   41.24
   0  -4 -11 1101.25   41.21
   0  -4  11 1175.66   41.16
   0   4 -12  401.26   15.04
   0   4  12  404.37   15.23
   0  -4 -12  412.55   15.38
   0  -4  12  375.51   15.11
   0  -4 -12  408.31   15.30
   0  -4  12  384.77   15.11
   0  -4 -12  407.68   15.53
   0  -4  12  381.40   15.01
   0  -4 -13   97.71    4.69
   0  -4 -13   97.89    4.77
   0  -4  13   89.98    4.11
   0   4 -13   91.20    4.13
   0  -4  13   90.57    4.22
   0  -4  14  235.57    9.57
   0   4 -14  240.15    9.57
   0  -4 -14  241.12   10.06
   0  -4 -14  264.46   10.36
   0   4 -15   13.15    1.58
   0  -4 -15   15.39    2.84
   0  -4 -15   14.01    2.51
   0  -4 -16    2.49    2.91
   0   4 -16    1.12    1.28
   0  -4 -16    2.71    2.50
   0  -4 -16    3.09    3.18
   0  -4 -17   31.23    4.21
   0  -4 -17   35.20    3.50
   0  -4 -17   31.96    3.86
   0  -4 -18   19.10    4.16
   0  -4 -18   18.36    3.37
   0  -4 -18   16.12    3.80
   0  -4 -19    8.16    4.30
   0  -4 -19    8.49    3.28
   0  -4 -19    8.18    4.09
   0  -4 -20   19.31    3.57
   0  -4 -20   19.05    4.62
   0  -4 -20   25.38    4.88
   0  -4 -21    2.27    3.40
   0  -4 -21    3.85    4.53
   0  -4 -21   10.00    4.87
   0  -4 -22    1.85    2.98
   0  -4 -22    7.53    4.27
   0  -4 -22    7.80    4.45
   0  -4 -23    7.97    4.40
   0  -4 -23    7.94    4.69
   0  -4 -23   11.57    2.94
   0  -4 -24   13.46    4.62
   0  -4 -24   11.17    4.24
   0  -4 -25   91.50    6.00
   0  -4 -26   -0.67    3.25
   0  -4 -27   17.07    2.84
   0  -4 -28   -0.06    1.77
   0  -4 -29   41.12    2.28
   0  -5   0    0.68    0.72
   0  -5   0   -0.27    0.69
   0  -5  -1  105.76    4.56
   0  -5   1  110.20    4.49
   0  -5   1  113.23    4.56
   0  -5  -1  110.07    4.45
   0  -5   2  104.49    4.23
   0  -5  -2   99.99    4.12
   0  -5   2   99.60    4.23
   0  -5  -2  102.35    4.33
   0  -5  -3  224.01    8.43
   0  -5   3  218.30    8.56
   0  -5  -3  218.26    8.66
   0  -5   3  228.23    8.58
   0   5   3  217.17    8.58
   0   5   4  102.84    4.11
   0  -5   4   98.44    4.07
   0  -5  -4   98.27    3.89
   0  -5  -5   24.32    1.35
   0  -5  -6  252.83    9.41
   0  -5   6  253.22    9.71
   0  -5   6  241.46    9.76
   0   5  -7   34.41    1.91
   0  -5  -7   33.59    2.07
   0  -5   7   31.78    1.93
   0  -5  -7   32.60    1.56
   0  -5   7   31.74    1.99
   0  -5   8   11.49    1.35
   0  -5  -8   12.49    1.53
   0   5  -8   12.78    1.29
   0  -5   8   11.33    1.28
   0  -5  -8   10.53    1.30
   0   5   9   65.23    3.22
   0  -5  -9   68.18    3.47
   0  -5  -9   70.32    3.39
   0  -5  -9   65.79    3.35
   0  -5   9   70.09    3.28
   0  -5   9   67.13    3.28
   0   5  -9   70.64    3.23
   0  -5   9   70.39    3.19
   0  -5  -9   65.35    2.66
   0  -5  10  270.32   11.17
   0  -5  10  279.84   11.08
   0   5  10  281.84   11.17
   0  -5  10  290.20   11.13
   0  -5 -10  299.03   11.33
   0  -5 -10  290.30   11.31
   0   5 -10  287.19   11.10
   0  -5  11  144.78    6.13
   0   5 -11  144.84    6.15
   0   5  11  151.43    6.26
   0  -5 -11  148.03    6.34
   0  -5  11  157.35    6.31
   0  -5 -11  141.11    6.45
   0  -5  11  142.89    6.17
   0  -5  12 1271.17   48.44
   0  -5 -12 1353.83   48.66
   0  -5  12 1283.17   48.36
   0  -5 -12 1354.86   48.74
   0   5 -12 1333.27   48.38
   0  -5  12 1291.20   48.51
   0   5 -13   99.33    4.44
   0  -5 -13   96.63    4.94
   0  -5 -13   90.51    4.90
   0  -5 -14  724.07   28.39
   0   5 -14  743.75   27.88
   0  -5 -14  764.31   28.30
   0   5 -15  275.48   10.98
   0  -5 -15  289.42   11.57
   0  -5 -15  264.31   11.65
   0  -5 -16  757.04   28.00
   0   5 -16  716.82   27.42
   0  -5 -16  724.21   28.14
   0  -5 -17    8.63    3.41
   0   5 -17    9.00    1.84
   0  -5 -17   10.00    3.43
   0   5 -18   82.60    4.13
   0  -5 -18   80.82    6.40
   0  -5 -18   78.25    5.20
   0  -5 -18   82.19    5.75
   0  -5 -19    8.56    3.96
   0  -5 -19    7.17    3.19
   0  -5 -19    8.63    4.34
   0  -5 -20   74.31    6.30
   0  -5 -20   75.16    5.91
   0  -5 -20   79.19    5.58
   0  -5 -21    7.00    4.33
   0  -5 -21    0.88    3.39
   0  -5 -21    5.90    4.78
   0  -5 -22   13.64    3.80
   0  -5 -22   12.11    4.16
   0  -5 -22   11.20    4.86
   0  -5 -23   19.99    4.55
   0  -5 -23   22.34    3.59
   0  -5 -23   22.71    3.99
   0  -5 -24  228.64   10.85
   0  -5 -24  242.14   10.81
   0  -5 -25    9.11    3.56
   0  -5 -25    6.63    3.73
   0  -5 -26    6.72    3.22
   0  -5 -26    1.74    3.19
   0  -5 -27   32.04    3.13
   0  -5 -27   30.84    3.16
   0  -5 -28    8.66    1.83
   0  -5 -28   11.51    2.15
   0  -5 -29   60.37    3.06
   0  -6   0  705.48   26.65
   0  -6   0  724.80   26.54
   0  -6  -1    1.23    0.83
   0  -6  -1    2.35    1.00
   0  -6   1    1.85    0.81
   0  -6   1    1.56    0.97
   0  -6  -2  141.19    5.72
   0  -6   2  143.70    5.84
   0  -6   2  142.70    5.85
   0  -6  -2  143.26    5.92
   0  -6  -3    1.62    0.91
   0  -6  -3    1.99    0.88
   0  -6   3    0.29    0.80
   0  -6   3    2.22    1.06
   0   6  -3    0.66    0.84
   0  -6   4    2.31    0.85
   0  -6   4    2.77    1.13
   0  -6  -4    1.49    0.86
   0  -6  -4    3.28    1.00
   0   6  -4    2.06    0.87
   0   6  -5   34.30    2.11
   0   6   5   36.84    2.08
   0  -6  -5   34.89    2.19
   0  -6   5   38.58    2.08
   0  -6  -5   37.18    1.88
   0  -6  -5   37.02    2.16
   0  -6  -6   31.98    1.66
   0   6   6   27.87    1.88
   0  -6  -6   35.06    2.14
   0  -6   6   32.36    1.89
   0   6  -7  541.35   19.86
   0  -6  -7  516.82   19.47
   0  -6  -7  537.76   19.91
   0  -6   7  507.71   19.94
   0  -6   7  535.33   19.88
   0  -6   8  128.93    5.71
   0  -6   8  130.08    5.62
   0  -6  -8  126.74    5.72
   0   6  -8  141.99    5.65
   0   6  -9  310.00   11.39
   0  -6   9  297.68   11.37
   0  -6  -9  298.84   11.39
   0  -6  -9  273.10   11.49
   0  -6   9  264.70   11.31
   0  -6   9  292.64   11.50
   0  -6  -9  290.20   11.51
   0  -6 -10   34.91    2.71
   0  -6 -10   32.35    2.43
   0   6 -10   34.13    2.36
   0  -6  10   33.86    2.17
   0  -6 -11  547.36   20.69
   0   6 -11  553.31   20.54
   0  -6 -11  517.45   20.73
   0   6 -12  141.64    6.14
   0  -6 -12  137.86    6.34
   0  -6 -13  399.33   16.06
   0   6 -13  410.80   15.76
   0   6 -14    7.06    1.88
   0  -6 -14    4.67    2.98
   0  -6 -14    3.38    2.41
   0  -6 -14    5.33    2.89
   0  -6 -15  944.24   35.96
   0   6 -15  956.62   35.51
   0  -6 -15  909.59   36.35
   0  -6 -15  976.29   35.97
   0  -6 -16   22.91    3.50
   0  -6 -16   23.07    4.15
   0   6 -16   25.27    2.47
   0  -6 -16   20.76    3.64
   0  -6 -17 1009.06   38.70
   0   6 -17 1048.00   38.11
   0  -6 -17  954.75   39.00
   0  -6 -17 1037.77   38.63
   0  -6 -18  119.66    6.82
   0   6 -18  118.27    5.63
   0  -6 -18  125.45    6.80
   0  -6 -19  297.72   12.27
   0   6 -19  269.56   11.27
   0  -6 -19  283.26   12.35
   0  -6 -20   32.15    4.39
   0  -6 -20   25.30    4.30
   0  -6 -21   17.99    5.22
   0  -6 -21   22.82    3.94
   0  -6 -21   12.25    4.03
   0  -6 -22   19.72    5.02
   0  -6 -22   21.52    4.06
   0  -6 -22   22.02    4.04
   0  -6 -23  132.04    7.55
   0  -6 -23  131.10    7.02
   0  -6 -23  136.93    7.00
   0  -6 -24   28.13    3.71
   0  -6 -24   25.38    4.06
   0  -6 -25  180.36    8.42
   0  -6 -25  167.59    7.86
   0  -6 -26   40.82    3.39
   0  -6 -26   42.75    3.68
   0  -6 -27   15.25    2.45
   0  -6 -27   15.18    2.12
   0  -6 -28   24.52    1.89
   0  -6 -28   19.09    1.89
   0   7   0    0.45    0.89
   0  -7   0   -1.01    1.09
   0  -7   0    0.58    0.97
   0   7  -1   74.93    3.43
   0   7   1   75.23    3.36
   0  -7   1   71.57    3.51
   0  -7   1   75.35    3.60
   0  -7  -1   75.53    3.59
   0  -7  -1   74.74    3.43
   0  -7   1   71.11    3.45
   0  -7   2   53.33    2.79
   0  -7  -2   53.05    2.68
   0   7  -2   55.44    2.71
   0   7   2   52.36    2.57
   0  -7   2   54.64    2.78
   0  -7  -2   55.27    2.84
   0  -7   2   48.74    2.79
   0  -7  -3  157.02    6.74
   0   7  -3  162.71    6.61
   0  -7   3  149.53    6.60
   0  -7   3  171.83    6.71
   0  -7  -3  163.25    6.48
   0  -7  -3  158.42    6.52
   0  -7   3  164.26    6.65
   0  -7   4   44.25    2.52
   0  -7  -4   45.58    2.31
   0  -7  -4   42.87    2.55
   0   7  -4   46.08    2.52
   0  -7   4   40.84    2.48
   0  -7  -4   44.38    2.45
   0  -7   4   39.96    2.39
   0  -7   4   45.82    2.45
   0   7  -5  103.81    4.61
   0  -7   5  107.92    4.61
   0  -7   5   97.74    4.65
   0  -7   5  105.11    4.63
   0  -7  -5  101.16    4.32
   0  -7  -5  102.49    4.71
   0  -7  -5  105.50    4.63
   0  -7   5   99.42    4.44
   0   7  -6   91.11    4.50
   0  -7  -6  106.45    4.65
   0  -7  -6  102.44    4.70
   0  -7   6  108.11    4.56
   0  -7  -6   97.56    4.19
   0  -7   7  309.78   12.45
   0  -7  -7  331.45   12.57
   0   7  -8   42.66    2.75
   0  -7  -8   41.89    2.88
   0  -7  -9   77.36    4.21
   0   7  -9   79.83    4.00
   0   7 -10    5.25    1.91
   0  -7 -10    5.01    1.54
   0  -7 -10    3.64    2.17
   0  -7 -11   16.79    2.73
   0   7 -11   19.76    2.28
   0  -7 -11   16.22    2.69
   0  -7 -11   17.81    2.07
   0   7 -12   20.93    2.25
   0  -7 -12   22.13    3.14
   0  -7 -12   18.08    2.90
   0  -7 -12   18.21    2.35
   0   7 -13   37.39    2.93
   0  -7 -13   31.68    3.74
   0  -7 -13   32.00    3.53
   0  -7 -13   38.98    3.07
   0   7 -14   20.15    2.49
   0  -7 -14   16.02    3.49
   0  -7 -14   19.62    2.79
   0  -7 -15   36.68    3.44
   0   7 -15   37.39    3.08
   0  -7 -15   38.05    4.47
   0  -7 -16   11.74    3.85
   0   7 -16   15.24    2.47
   0  -7 -16   13.03    2.83
   0  -7 -16   15.76    4.26
   0  -7 -17   23.81    3.35
   0  -7 -17   21.81    4.30
   0  -7 -17   20.61    4.27
   0  -7 -17   21.64    2.90
   0  -7 -18   53.43    4.47
   0  -7 -18   52.53    3.70
   0  -7 -18   53.27    5.05
   0  -7 -18   49.94    5.52
   0   7 -18   62.27    3.74
   0  -7 -19  344.02   13.90
   0   7 -19  324.00   13.27
   0  -7 -19  349.29   14.24
   0  -7 -19  318.38   14.66
   0  -7 -20   32.48    5.27
   0  -7 -20   40.99    4.64
   0   7 -20   32.89    2.79
   0  -7 -20   35.26    3.84
   0  -7 -21   45.89    4.58
   0  -7 -21   45.47    4.13
   0  -7 -22   19.84    3.35
   0  -7 -22   19.93    3.80
   0  -7 -23   -4.01    2.99
   0  -7 -23    3.14    3.08
   0  -7 -24   -0.35    3.57
   0  -7 -24    2.87    2.52
   0  -7 -25   12.37    2.26
   0  -7 -25    8.42    2.92
   0  -7 -26   96.46    4.78
   0  -7 -26   83.99    4.23
   0  -7 -27  177.97    7.11
   0  -7 -27  165.56    6.81
   0   8   0   14.51    1.56
   0  -8   0   13.41    1.57
   0  -8   0   13.03    1.99
   0   8  -1 2071.31   75.50
   0  -8  -1 2046.52   75.74
   0  -8   1 2065.04   75.66
   0   8   1 2086.11   75.44
   0  -8  -1 2022.40   75.47
   0  -8   2   15.38    1.88
   0  -8  -2   15.71    1.53
   0   8   2   16.85    1.52
   0   8  -2   14.23    1.67
   0  -8   3  988.99   37.48
   0   8  -3 1023.19   37.46
   0  -8  -3 1041.26   37.37
   0   8   3 1001.07   37.28
   0  -8  -3  990.04   37.34
   0  -8  -4  125.39    5.55
   0   8  -4  134.64    5.67
   0  -8   4  125.89    5.57
   0   8  -5 1379.19   49.82
   0  -8   5 1301.47   49.67
   0  -8  -5 1368.04   49.75
   0   8  -6    7.23    1.71
   0  -8   6    6.51    1.31
   0  -8  -6    7.45    1.87
   0  -8  -6    4.51    1.46
   0  -8  -7   36.25    2.74
   0  -8  -7   33.29    2.58
   0  -8  -8    3.00    1.90
   0  -8  -8    4.31    2.04
   0   8  -9   94.58    4.92
   0  -8  -9   98.11    5.11
   0  -8  -9  103.26    5.11
   0   8 -10   20.85    2.59
   0  -8 -10   23.90    2.94
   0  -8 -10   17.95    2.72
   0  -8 -11   70.45    4.49
   0  -8 -11   65.89    4.49
   0   8 -11   80.87    4.23
   0  -8 -12    0.08    2.85
   0   8 -12    3.92    2.47
   0  -8 -12    1.23    2.73
   0  -8 -13    1.69    3.11
   0  -8 -13    4.03    2.03
   0   8 -13    7.20    2.78
   0  -8 -13    0.42    3.43
   0   8 -14   59.85    3.92
   0  -8 -14   48.03    3.59
   0  -8 -14   55.50    4.53
   0  -8 -14   51.32    4.57
   0  -8 -15  200.80    9.63
   0  -8 -15  205.35    8.98
   0  -8 -15  198.74    8.71
   0   8 -15  206.08    8.70
   0  -8 -15  180.80    9.09
   0  -8 -16    8.68    2.50
   0  -8 -16    9.70    3.97
   0   8 -16    7.69    2.70
   0  -8 -16    8.60    2.70
   0  -8 -17    3.88    2.45
   0   8 -17    2.10    2.43
   0  -8 -17    1.34    3.98
   0  -8 -17    0.43    2.59
   0  -8 -18  249.27   10.97
   0   8 -18  271.08   10.96
   0  -8 -18  269.89   12.05
   0  -8 -18  267.10   11.12
   0  -8 -19   72.01    5.69
   0  -8 -19   65.53    4.03
   0   8 -19   72.19    4.11
   0  -8 -19   70.04    5.55
   0  -8 -19   74.19    4.54
   0  -8 -20  175.98    8.83
   0   8 -20  164.40    7.50
   0  -8 -20  184.36    8.60
   0  -8 -20  180.92    7.97
   0  -8 -21   20.81    3.93
   0  -8 -21   19.44    3.97
   0  -8 -21   12.54    2.72
   0   8 -21   16.12    2.06
   0  -8 -22    6.23    2.39
   0  -8 -22    7.32    3.15
   0  -8 -22    9.25    3.59
   0  -8 -23   25.95    3.68
   0  -8 -23   31.24    2.72
   0  -8 -24    5.14    1.80
   0  -8 -25   15.04    1.62
   0  -8 -27    4.89    1.00
   0  -9   0    2.26    2.00
   0   9   0    0.89    1.54
   0  -9  -1    0.52    2.06
   0   9  -1    5.45    1.69
   0   9   1    4.96    1.53
   0  -9   1    4.66    2.04
   0   9   2   12.13    1.68
   0  -9  -2   16.15    2.55
   0  -9   2   13.25    2.20
   0   9  -2   12.00    1.91
   0   9  -3   17.64    2.05
   0  -9  -3   16.68    2.61
   0   9   3   15.91    1.62
   0  -9   3   14.61    2.02
   0  -9  -4   -1.86    2.41
   0   9  -4    0.06    1.90
   0  -9  -4    0.32    1.63
   0  -9   4    1.82    1.74
   0  -9  -5  236.39    9.71
   0  -9  -5  231.35   10.16
   0  -9   5  230.65    9.68
   0   9  -5  256.33    9.88
   0  -9   6    4.32    1.58
   0  -9  -6    3.44    2.01
   0   9  -6    1.71    2.06
   0   9  -7  398.91   15.61
   0  -9  -7  393.35   15.51
   0  -9  -8   41.40    3.29
   0  -9  -8   39.54    3.00
   0  -9  -9  185.88    8.38
   0  -9  -9  199.67    8.47
   0  -9 -10    4.09    2.39
   0   9 -10    4.30    2.67
   0  -9 -10   -0.74    3.18
   0  -9 -10    4.16    2.91
   0  -9 -11  420.41   16.76
   0  -9 -11  425.29   17.05
   0   9 -11  419.96   16.70
   0  -9 -11  420.34   16.88
   0   9 -12  336.33   13.09
   0  -9 -12  304.08   13.24
   0  -9 -12  321.95   13.34
   0  -9 -12  310.95   13.26
   0  -9 -13  128.71    6.74
   0  -9 -13  123.28    6.72
   0   9 -13  134.04    6.48
   0  -9 -13  131.08    6.94
   0   9 -14   47.72    3.93
   0  -9 -14   47.37    4.27
   0  -9 -14   53.52    4.81
   0  -9 -14   49.13    4.20
   0  -9 -15   60.39    4.44
   0  -9 -15   59.39    4.91
   0   9 -15   59.06    4.19
   0  -9 -15   58.89    5.23
   0  -9 -16   29.93    3.53
   0  -9 -16   30.14    4.58
   0  -9 -16   43.18    4.34
   0   9 -16   40.56    3.63
   0  -9 -17   27.19    4.12
   0  -9 -17   19.55    4.57
   0  -9 -17   23.02    3.28
   0   9 -17   28.34    3.31
   0   9 -18    1.62    2.57
   0  -9 -18    1.30    2.48
   0  -9 -18    6.48    3.81
   0  -9 -18    2.00    2.07
   0  -9 -19   10.03    2.27
   0   9 -19   10.70    2.44
   0  -9 -19    6.76    2.10
   0  -9 -19   13.63    3.78
   0  -9 -20   32.66    3.85
   0   9 -20   25.92    2.50
   0   9 -21   12.12    1.93
   0  -9 -21    7.12    2.96
   0  -9 -21   10.14    1.88
   0  -9 -22   23.70    2.99
   0  -9 -22   26.27    2.07
   0  -9 -23    6.47    2.46
   0  -9 -24   41.28    2.87
   0  -9 -25    2.49    1.34
   0  10   0  144.46    6.38
   0 -10   0  146.91    6.86
   0  10   1   35.93    2.59
   0 -10   1   33.98    3.11
   0 -10  -1   30.84    3.35
   0  10  -1   32.27    2.67
   0  10   2  556.50   21.37
   0 -10  -2  563.61   21.92
   0  10  -2  569.37   21.53
   0 -10   2  566.22   21.71
   0  10   3   16.16    1.82
   0 -10   3   21.23    2.53
   0 -10  -3   17.18    3.27
   0  10  -3   20.48    2.36
   0 -10  -4  299.04   12.38
   0 -10   4  316.13   12.62
   0 -10  -4  332.71   13.18
   0  10  -4  324.82   12.68
   0 -10  -5   17.44    2.24
   0 -10   5   12.49    2.12
   0  10  -5   18.64    2.70
   0 -10  -5   23.60    3.61
   0 -10  -6   33.55    2.85
   0  10  -6   28.67    3.19
   0 -10   6   31.14    2.49
   0 -10  -7    0.27    2.25
   0  10  -7    1.08    2.69
   0 -10  -8   68.15    4.31
   0 -10  -8   64.27    5.17
   0  10  -8   75.66    4.48
   0 -10  -9   40.42    4.28
   0 -10  -9   39.58    3.60
   0 -10  -9   36.74    3.07
   0 -10 -10   12.62    2.97
   0 -10 -10    9.07    2.51
   0 -10 -10   15.41    3.85
   0 -10 -11    9.35    3.65
   0 -10 -11    5.98    3.20
   0  10 -11    8.68    3.11
   0 -10 -11    7.87    2.49
   0 -10 -12  219.54   10.06
   0  10 -12  241.75   10.19
   0 -10 -12  228.58   10.51
   0 -10 -12  248.42   10.30
   0 -10 -13  139.70    7.02
   0  10 -13  147.94    7.17
   0 -10 -13  145.17    7.36
   0 -10 -13  143.15    7.39
   0 -10 -14  153.00    7.73
   0  10 -14  163.72    7.44
   0 -10 -14  150.20    7.63
   0 -10 -14  147.79    7.46
   0 -10 -15  503.39   20.62
   0  10 -15  535.84   20.55
   0 -10 -15  543.66   20.74
   0 -10 -15  520.18   20.64
   0 -10 -16    6.03    3.04
   0  10 -16   10.47    2.88
   0 -10 -16    7.42    3.60
   0 -10 -16    5.93    2.90
   0 -10 -17  192.44    9.01
   0 -10 -17  211.71    9.36
   0  10 -17  208.09    9.05
   0 -10 -18   12.02    2.89
   0  10 -18   11.03    2.40
   0 -10 -18   11.40    2.46
   0 -10 -18   14.32    3.56
   0 -10 -19  175.45    8.25
   0  10 -19  187.87    7.89
   0 -10 -19  173.11    7.65
   0 -10 -20   31.79    3.17
   0  10 -20   37.40    2.64
   0  10 -21  102.67    4.66
   0 -10 -21  112.95    5.28
   0 -10 -22   53.49    3.29
   0 -10 -23   89.84    4.14
   0 -10 -24   13.93    1.37
   0 -11   0   -0.97    2.77
   0  11   0   -1.38    1.92
   0 -11   1   17.95    3.17
   0  11  -1   21.62    2.62
   0 -11  -1   23.23    3.53
   0  11   1   20.19    2.24
   0 -11  -2    4.66    3.15
   0  11  -2    1.42    2.02
   0 -11   2    4.22    2.65
   0  11   2    0.90    1.65
   0 -11   3   55.86    3.86
   0  11  -3   60.57    3.79
   0 -11  -3   66.00    4.71
   0 -11  -4    3.09    3.24
   0 -11   4    0.15    2.14
   0  11  -4    2.62    2.35
   0 -11   5   39.16    3.00
   0  11  -5   33.10    3.39
   0 -11  -5   33.99    4.35
   0 -11   6   17.70    2.25
   0 -11  -6   12.48    4.00
   0 -11  -6   22.78    2.53
   0  11  -6   17.29    3.04
   0  11  -7   15.15    3.18
   0 -11  -7   21.48    2.66
   0  11  -8   23.44    3.29
   0 -11  -8   27.68    2.98
   0 -11  -9   22.13    4.35
   0 -11  -9   17.52    2.98
   0  11  -9   20.22    3.37
   0 -11 -10    4.86    2.87
   0 -11 -10    3.07    3.78
   0 -11 -11   72.42    4.60
   0 -11 -11   69.63    5.39
   0  11 -12    3.85    3.37
   0 -11 -12    3.09    2.96
   0 -11 -12    2.91    2.20
   0 -11 -12   -0.19    3.57
   0  11 -13   65.38    4.49
   0 -11 -13   56.37    3.88
   0 -11 -13   71.41    4.84
   0 -11 -13   62.16    4.55
   0  11 -14    4.37    3.03
   0 -11 -14   10.79    3.31
   0 -11 -14    5.98    3.24
   0 -11 -14    0.44    2.44
   0 -11 -15    6.78    2.84
   0 -11 -15    3.39    2.35
   0  11 -15    5.67    2.84
   0 -11 -15    8.96    3.42
   0  11 -16   49.61    3.61
   0 -11 -16   38.43    3.46
   0 -11 -16   56.14    4.08
   0 -11 -16   45.54    3.55
   0 -11 -17   17.55    2.51
   0  11 -17   13.13    2.52
   0 -11 -17   20.71    3.37
   0 -11 -17   14.18    2.49
   0  11 -18   37.05    2.84
   0 -11 -18   30.90    2.78
   0 -11 -18   38.79    2.67
   0 -11 -19   -0.70    1.84
   0  11 -19    0.61    1.74
   0 -11 -19   -2.57    1.53
   0  11 -20    2.19    1.33
   0 -11 -20    1.08    1.61
   0  11 -21   12.37    1.22
   0 -11 -21   11.30    1.49
   0 -11 -22   25.47    1.59
   0  12   0   93.86    4.66
   0 -12   0   91.53    5.44
   0 -12   1  188.52    8.39
   0 -12  -1  201.72    8.64
   0  12  -1  177.78    7.91
   0  12   1  176.53    7.75
   0  12  -2  253.28   10.56
   0  12   2  245.94   10.24
   0 -12  -2  282.72   11.25
   0 -12   2  254.02   10.80
   0 -12   3  228.36    9.63
   0 -12  -3  237.11   10.31
   0  12  -3  217.80    9.59
   0 -12  -4  254.27   10.93
   0 -12   4  229.67   10.08
   0  12  -4  254.56   10.32
   0  12  -5  336.17   13.49
   0 -12   5  320.74   13.20
   0 -12  -5  354.24   14.17
   0  12  -6  393.17   15.73
   0 -12  -6  399.09   16.32
   0  12  -7  192.54    8.84
   0 -12  -7  209.95    9.56
   0  12  -8  171.36    7.91
   0  12  -9   76.35    4.83
   0 -12 -10  105.62    6.29
   0  12 -10   96.81    5.51
   0 -12 -11    6.28    3.64
   0 -12 -12   93.20    5.64
   0  12 -13   24.69    3.32
   0 -12 -13   38.98    3.84
   0  12 -14    3.82    2.56
   0 -12 -14    7.99    2.93
   0 -12 -15   41.36    3.33
   0  12 -15   38.71    3.17
   0 -12 -16   31.20    2.77
   0  12 -16   27.37    2.59
   0  12 -17    3.38    1.89
   0 -12 -17   -1.60    1.79
   0  12 -18   16.99    1.85
   0 -12 -18   10.51    1.60
   0  12 -19    6.41    1.19
   0  12 -20    6.17    0.90
   0  13   0   -0.18    1.72
   0 -13   0   -3.33    2.91
   0  13   1    3.07    1.65
   0 -13  -1   -0.92    3.11
   0  13  -1    2.48    1.93
   0 -13   1    0.31    2.82
   0 -13   2   70.67    4.33
   0  13  -2   69.33    3.97
   0 -13  -2   72.61    4.79
   0  13  -3   57.37    3.69
   0 -13   3   52.33    3.63
   0 -13  -3   62.20    4.61
   0  13  -4  111.36    5.59
   0 -13   4  110.47    5.37
   0 -13  -5   10.07    3.53
   0  13  -5    7.46    2.49
   0 -13  -6   30.31    4.13
   0  13  -6   30.10    3.05
   0 -13  -7   19.96    3.93
   0  13  -7   19.42    2.91
   0  13  -8   21.74    3.02
   0  13  -9  164.94    7.42
   0 -13 -10   58.77    4.60
   0  13 -10   69.03    4.14
   0  13 -11  210.96    9.42
   0 -13 -11  244.54    9.85
   0 -13 -12   27.93    3.27
   0 -13 -13  247.84   10.23
   0 -13 -14    2.58    2.19
   0  13 -14    1.90    2.13
   0  13 -15   35.04    2.56
   0 -13 -15   32.01    2.60
   0  13 -16   13.55    1.72
   0 -13 -16   11.53    1.68
   0 -13 -17    5.84    1.11
   0  13 -17    8.87    1.30
   0  13 -18    2.03    0.91
   0 -14   0    1.65    2.45
   0 -14  -1  100.41    5.00
   0 -14   1   95.39    4.69
   0 -14  -2   11.57    2.90
   0  14  -2   14.61    1.96
   0 -14   2   13.08    2.18
   0  14  -3   15.76    2.05
   0 -14  -3   19.18    3.07
   0 -14   3   14.12    2.03
   0 -14  -4    1.09    2.83
   0  14  -4    3.32    1.93
   0 -14  -5   75.38    4.68
   0  14  -5   71.99    3.94
   0 -14  -6   42.91    3.75
   0  14  -6   39.08    2.87
   0 -14  -7   26.88    3.20
   0  14  -7   27.97    2.54
   0 -14  -8  139.97    6.50
   0  14  -8  134.02    6.06
   0  14  -9    3.40    1.96
   0  14 -10  117.92    5.36
   0  14 -11   17.08    2.04
   0 -14 -11   18.53    2.53
   0  14 -12   94.93    4.42
   0 -14 -12   96.25    4.64
   0 -14 -13    0.09    1.70
   0 -14 -14   68.27    3.32
   0  14 -15    2.45    1.03
   0 -14 -15    2.20    1.00
   0 -15   0    0.09    1.49
   0 -15   1    2.50    1.37
   0 -15  -1    3.64    1.78
   0 -15  -2   15.66    2.11
   0  15  -3    1.01    1.04
   0 -15  -3    1.58    1.86
   0 -15  -4   12.47    2.05
   0  15  -4   10.44    1.34
   0  15  -5   -0.55    1.20
   0 -15  -5   -1.63    1.97
   0  15  -6   14.17    1.54
   0 -15  -6   16.68    2.23
   0  15  -7   22.77    1.78
   0 -15  -7   21.30    2.23
   0 -15  -8    9.00    1.85
   0  15  -8    7.72    1.31
   0 -15  -9    1.37    1.57
   0  15  -9    0.52    1.09
   0  15 -10    0.30    0.97
   0  15 -11    0.75    0.94
   0 -15 -12    2.30    0.94
   0  15 -12    1.38    0.75
   1   0 -30   76.93    3.74
   1   0 -29    0.64    2.09
   1   0 -28   54.84    4.09
   1   0 -27   -0.87    3.28
   1   0 -26  596.02   23.54
   1   0 -25   -0.72    3.88
   1   0 -24  542.33   21.96
   1   0 -23    4.42    3.90
   1   0 -23    0.79    2.42
   1   0 -22   71.79    4.48
   1   0 -22   60.69    5.71
   1   0 -21   -0.75    3.99
   1   0 -21    0.66    2.37
   1   0 -20  365.18   15.43
   1   0 -20  366.05   14.92
   1   0 -19   -1.70    3.43
   1   0 -19   -2.45    2.41
   1   0 -18   63.85    4.64
   1   0 -18   63.62    4.09
   1   0 -17    1.46    2.55
   1   0 -16  486.77   19.20
   1   0 -15    0.24    1.99
   1   0 -14  151.88    7.01
  -1   0  14  163.92    6.65
   1   0 -13   -0.20    1.49
   1   0 -13    0.66    0.80
  -1   0  13    0.25    0.55
  -1   0  13    0.44    0.87
   1   0 -12    5.10    0.92
  -1   0  12    6.00    0.70
   1   0 -12    4.31    1.36
  -1   0  12    6.05    1.00
   1   0 -11   -0.35    0.66
  -1   0  11   -0.19    0.51
  -1   0  11    0.08    0.81
   1   0 -10   34.53    1.74
  -1   0  10   34.47    1.63
   1   0 -10   34.68    1.82
  -1   0   9    1.33    0.70
   1   0  -9   -0.11    0.55
   1   0  -9    0.42    0.68
  -1   0   9    0.18    0.51
   1   0  -8  181.98    6.89
   1   0  -8  192.07    6.82
  -1   0   8  167.81    6.72
  -1   0   7    0.33    0.47
   1   0  -7    0.68    0.48
   1   0  -6  369.12   13.82
  -1   0   6  377.85   13.76
  -1   0   5    0.78    0.41
  -1   0   4  549.89   20.10
  -1   0   3    0.90    0.36
  -1   0   3   -0.13    0.30
  -1   0   2 7672.47  269.57
   1   0  -2 7573.59  269.57
   1   0  -2 7035.81  269.57
   1   0  -1    0.36    0.15
   1   0   1    0.23    0.19
  -1   0  -1    0.13    0.19
   1   0   2 7953.98  286.72
   1   0   2 7848.77  286.72
  -1   0  -3    0.95    0.26
   1   0   3    0.64    0.25
  -1   0  -3    0.57    0.28
   1   0   4   61.98    2.40
  -1   0  -4   60.55    2.39
   1   0   4   61.24    2.32
   1   0   5    0.30    0.28
   1   0   5    0.33    0.45
  -1   0  -5    0.16    0.39
   1   0   6 1021.79   36.65
   1   0   6  999.51   36.63
   1   0   6  978.43   36.78
  -1   0  -6 1021.19   36.77
   1   0   7   -0.12    0.54
  -1   0  -7    0.93    0.54
   1   0   7    0.20    0.29
   1   0   7    0.44    0.33
   1   0   8  182.87    6.78
  -1   0  -8  180.24    6.99
   1   0   8  187.32    7.03
   1   0   9   -0.14    0.63
   1   0   9    0.70    0.36
  -1   0  -9    0.05    0.58
   1   0  10  836.72   30.58
   1   0  10  827.37   30.22
  -1   0 -10  826.90   30.52
   1   0  11   -0.32    0.62
  -1   0 -11   -0.13    0.67
   1   0  11    0.58    0.39
   1   0  11    0.03    0.34
   1   0  12 1240.01   39.96
  -1   0 -12 1249.14   39.91
   1   0  12 1165.89   39.38
  -1   0 -12 1216.68   40.27
  -1   0 -13    0.16    0.68
  -1   0 -13    0.19    1.54
   1   0  13   -0.13    0.78
  -1   0 -13    1.04    1.22
  -1   0 -14   35.18    2.75
  -1   0 -14   36.67    2.53
   1   0  14   39.11    2.20
  -1   0 -15    0.92    1.99
  -1   0 -15    0.39    1.50
   1   0  15   -1.63    0.93
  -1   0 -16  931.10   34.10
  -1   0 -16  879.38   34.32
  -1   0 -17    0.67    1.96
  -1   0 -17    2.10    2.73
  -1   0 -18   26.01    2.61
  -1   0 -18   29.00    3.42
  -1   0 -19    2.45    2.20
  -1   0 -19    2.49    3.27
  -1   0 -20  106.40    5.32
  -1   0 -20   92.10    6.07
  -1   0 -21   -2.34    2.60
  -1   0 -21    1.58    3.58
  -1   0 -22  519.98   21.06
  -1   0 -22  580.52   21.86
  -1   0 -23    5.13    3.96
  -1   0 -23   -0.68    2.26
  -1   0 -24  111.47    6.74
  -1   0 -25   -1.99    3.61
  -1   0 -26  101.40    5.98
  -1   0 -27   -0.42    2.79
  -1   0 -28  293.91   11.94
  -1   0 -29    1.84    1.72
   1  -1 -30   68.19    3.64
   1  -1 -29   67.02    4.11
   1   1 -29   59.11    3.34
   1   1 -28   -2.78    2.29
   1  -1 -28    1.56    3.20
   1  -1 -27   33.21    4.29
   1   1 -27   28.47    3.41
   1  -1 -26   20.05    4.18
   1  -1 -26   13.14    2.65
   1   1 -26   17.53    3.18
   1  -1 -25   47.98    5.45
   1   1 -25   53.21    4.43
   1  -1 -25   51.41    3.97
   1  -1 -24    4.69    2.96
   1   1 -24    4.07    3.56
   1  -1 -24    3.57    4.70
   1  -1 -23  481.39   19.92
   1   1 -23  512.80   20.14
   1  -1 -23  500.96   20.68
   1  -1 -22  141.74    7.41
   1   1 -22  152.78    7.71
   1  -1 -22  132.64    8.23
   1  -1 -21  383.21   16.79
   1   1 -21  402.01   16.30
   1  -1 -21  393.10   16.30
   1   1 -20    7.81    3.29
   1  -1 -20   10.16    3.09
   1  -1 -20    6.72    3.99
   1  -1 -19  123.79    5.74
   1  -1 -19  114.07    6.96
   1   1 -19  122.08    6.51
   1  -1 -19  133.90    6.60
   1   1 -18  509.37   19.25
   1  -1 -18  506.12   20.05
   1  -1 -18  486.72   19.09
   1   1 -18  489.06   19.72
   1  -1 -17  434.69   17.19
   1   1 -17  429.08   16.93
   1   1 -17  413.50   16.49
   1  -1 -17  423.09   16.39
   1  -1 -16  190.62    8.71
   1   1 -16  198.24    8.50
   1  -1 -16  191.27    8.01
   1   1 -15  787.26   29.60
   1  -1 -15  779.02   29.26
   1  -1 -15  780.16   29.79
  -1  -1  14  645.75   23.44
  -1  -1  14  613.04   22.95
   1  -1 -14  606.39   23.36
  -1   1  14  636.82   23.42
   1   1 -14  622.46   23.69
   1  -1 -14  592.14   23.78
   1  -1 -14  633.39   23.36
  -1  -1  13   20.71    1.57
  -1   1  13   20.17    1.06
  -1  -1  13   20.16    1.24
   1  -1 -13   22.84    1.58
   1  -1 -13   20.76    2.18
  -1   1  13   21.27    1.57
   1   1 -13   20.34    1.94
  -1  -1  12  383.43   14.00
  -1   1  12  377.44   14.00
   1  -1 -12  379.66   13.97
  -1   1  12  360.84   13.52
   1  -1 -12  349.46   14.29
  -1  -1  12  359.10   13.67
  -1   1  11   20.92    1.45
  -1  -1  11   21.93    1.41
  -1   1  11   19.19    1.03
  -1  -1  11   18.01    1.17
   1  -1 -11   18.90    1.37
   1  -1 -11   18.33    1.12
  -1   1  10  144.83    5.69
  -1  -1  10  144.34    5.69
  -1   1  10  138.04    5.33
   1  -1 -10  142.57    5.66
   1  -1 -10  139.97    5.45
   1  -1  -9   20.37    1.06
   1  -1  -9   17.53    1.22
  -1   1   9   17.91    0.96
  -1  -1   9   19.15    1.26
  -1  -1   8  579.10   21.43
  -1  -1   7  437.07   17.39
   1   1  -7  504.18   17.41
   1   1  -6   47.25    2.18
  -1   1   6   53.33    2.04
   1  -1  -5  710.76   25.69
  -1   1   5  677.69   25.68
   1   1  -5  742.67   25.82
   1   1  -4    2.46    0.52
   1  -1  -4    1.91    0.48
  -1   1   4    1.59    0.47
   1  -1  -4    1.87    0.42
   1  -1  -3   41.80    1.82
  -1   1   3   44.89    1.78
  -1   1   3   47.96    1.85
  -1   1   2  168.20    6.36
  -1   1   2  170.40    6.34
   1  -1  -2  171.50    6.36
   1  -1  -2  175.26    6.35
   1  -1  -1 2384.66   84.24
   1  -1  -1 2172.21   84.26
  -1   1   1 2384.60   84.24
   1  -1   0   36.77    1.45
   1   1   0   39.41    1.50
   1   1   1 1109.69   42.10
   1   1   1 1199.54   42.07
  -1   1  -1 1095.50   42.10
  -1  -1  -1 1214.07   42.12
   1  -1   2 1134.31   41.63
   1   1   2 1134.87   41.63
  -1  -1  -2 1099.85   41.64
  -1   1  -2 1147.86   41.63
   1   1   2 1165.95   41.55
   1  -1   3  995.99   35.91
   1   1   3  993.60   35.96
  -1  -1  -3  980.06   35.97
   1  -1   3  988.05   35.94
  -1   1  -3  971.22   35.94
   1  -1   4  324.02   11.75
   1  -1   4  325.33   11.77
   1   1   4  313.99   11.80
  -1  -1  -4  311.57   11.81
   1   1   5   16.05    0.93
   1  -1   5   17.01    0.85
  -1  -1  -5   15.93    0.92
   1  -1   5   15.08    0.83
   1   1   6   10.87    0.79
   1  -1   6   10.73    0.75
   1  -1   6   11.90    0.70
  -1  -1  -6   10.19    0.79
   1  -1   7    8.28    0.65
   1  -1   7    7.33    0.69
   1   1   7    8.43    0.76
  -1  -1  -7    7.27    0.71
   1  -1   7    9.74    0.71
   1  -1   8   59.04    2.40
   1  -1   8   56.21    2.43
   1  -1   8   59.12    2.51
   1   1   8   59.90    2.56
  -1  -1  -8   57.70    2.54
   1  -1   9   15.77    0.95
   1  -1   9   13.65    0.87
   1  -1   9   15.94    1.04
  -1  -1  -9   13.63    1.07
   1   1   9   13.01    1.09
   1   1  10  579.16   21.44
  -1  -1 -10  555.70   21.39
   1  -1  10  586.95   21.23
   1  -1  10  585.67   21.41
   1  -1  10  572.27   21.19
   1   1  11    7.98    1.02
   1  -1  11    8.68    0.80
  -1  -1 -11    8.15    0.96
  -1  -1 -11    8.33    1.42
   1  -1  11    8.77    0.97
  -1  -1 -12    5.63    1.37
  -1   1 -12    3.91    1.32
   1   1  12    7.48    0.97
  -1  -1 -12    6.85    1.58
   1  -1  12    5.73    0.73
  -1  -1 -12    5.21    0.95
   1  -1  12    4.71    0.95
  -1  -1 -13  385.39   14.68
   1   1  13  369.93   14.35
  -1  -1 -13  354.90   14.26
  -1   1 -13  375.07   14.62
   1  -1  13  373.09   13.92
  -1  -1 -13  394.00   14.34
  -1  -1 -13  362.11   14.72
   1  -1  13  392.70   14.36
   1   1  14   99.36    4.29
   1  -1  14   91.98    4.21
  -1   1 -14   91.69    4.35
  -1   1 -14   99.54    4.66
  -1  -1 -14   96.21    4.70
  -1  -1 -14   91.95    4.19
  -1  -1 -14   92.15    4.25
  -1  -1 -14  100.16    4.88
  -1  -1 -15   16.04    2.26
   1   1  15   17.91    1.54
  -1  -1 -15   16.09    1.45
  -1  -1 -15   15.20    2.52
  -1  -1 -15   16.29    1.78
  -1   1 -15   18.94    1.79
  -1   1 -15   18.64    2.18
   1  -1  15   18.78    1.53
  -1  -1 -16    6.17    2.57
  -1   1 -16   11.17    2.42
  -1  -1 -16    8.39    1.61
  -1  -1 -16    6.92    2.15
  -1   1 -16    8.51    1.67
  -1  -1 -17    2.75    1.54
  -1  -1 -17    4.84    2.39
  -1  -1 -17    3.03    2.69
  -1   1 -17    5.14    1.59
  -1   1 -17    3.30    2.37
  -1  -1 -18  283.88   11.41
  -1  -1 -18  277.45   12.39
  -1   1 -18  291.98   12.09
  -1   1 -18  291.17   11.59
  -1  -1 -18  294.17   12.10
  -1   1 -19    1.56    1.92
  -1   1 -19    4.96    2.87
  -1  -1 -19    1.42    2.71
  -1  -1 -19    5.26    3.67
  -1   1 -20  128.47    6.82
  -1  -1 -20  134.69    7.51
  -1  -1 -20  131.62    6.74
  -1  -1 -21   68.85    5.24
  -1  -1 -21   60.68    4.40
  -1   1 -21   59.12    4.81
  -1   1 -22   29.31    3.59
  -1  -1 -22   27.20    4.70
  -1  -1 -22   18.88    3.33
  -1   1 -23   10.31    3.37
  -1  -1 -23   19.95    4.63
  -1  -1 -23    9.84    3.12
  -1  -1 -24   63.38    5.73
  -1  -1 -24   72.33    4.56
  -1   1 -24   71.28    5.07
  -1   1 -25    8.87    3.24
  -1  -1 -25   12.57    2.53
  -1  -1 -25    9.04    4.33
  -1   1 -26   27.85    3.34
  -1  -1 -26   25.00    4.28
  -1  -1 -27   21.06    3.69
  -1   1 -27   24.78    2.83
  -1   1 -28  158.86    6.83
  -1  -1 -28  160.06    7.40
  -1  -1 -29    6.10    2.04
  -1   1 -29    8.31    1.34
  -1  -1 -30    4.80    1.46
   1  -2 -30    9.48    1.89
   1  -2 -29   21.15    2.93
   1  -2 -28   64.22    4.74
   1  -2 -27    1.59    2.30
   1   2 -27    1.55    1.95
   1  -2 -27    2.63    3.70
   1   2 -26  107.84    5.46
   1  -2 -26   98.13    5.78
   1  -2 -26  106.13    6.65
   1   2 -25  114.98    5.92
   1  -2 -25  125.16    6.47
   1  -2 -24   10.76    3.70
   1  -2 -24    6.86    5.17
   1   2 -24   12.70    3.07
   1  -2 -23  125.21    7.32
   1   2 -23  135.26    6.58
   1  -2 -22   57.65    3.73
   1  -2 -22   48.54    5.86
   1  -2 -22   50.22    5.04
   1   2 -22   59.98    4.34
   1  -2 -21    7.77    3.89
   1  -2 -21    5.83    2.34
   1   2 -21    5.82    2.90
   1  -2 -21    4.60    4.64
   1   2 -20  424.04   16.69
   1  -2 -20  413.34   16.34
   1  -2 -20  404.76   17.47
   1  -2 -20  398.86   17.22
   1  -2 -19    6.60    3.42
   1  -2 -19   11.55    2.60
   1   2 -19   10.42    2.84
   1  -2 -19    9.83    4.06
   1   2 -18  720.50   27.14
   1  -2 -18  711.66   26.94
   1  -2 -18  682.27   27.63
   1  -2 -17   49.70    3.51
   1  -2 -17   52.54    4.36
   1   2 -17   53.13    3.58
   1   2 -16  510.79   19.45
   1  -2 -16  491.70   19.31
   1  -2 -15    6.75    1.86
   1   2 -15   10.77    1.92
   1  -2 -14   78.63    4.16
   1   2 -14   85.93    4.24
  -1  -2  14   89.58    3.99
  -1   2  14   86.52    4.00
  -1  -2  14   87.22    3.68
   1  -2 -14   81.35    3.95
   1   2 -13   59.34    3.03
  -1   2  13   51.02    2.13
  -1  -2  13   57.48    2.84
  -1   2  13   63.65    2.92
   1  -2 -13   59.73    2.86
   1  -2 -13   58.42    3.08
  -1   2  12    0.51    0.83
   1  -2 -12   -0.05    1.23
  -1  -2  12    0.05    0.74
   1  -2 -12   -0.05    0.83
   1  -2 -12    0.80    0.55
  -1   2  12    2.30    0.46
  -1  -2  11   15.07    1.32
  -1   2  11   15.72    0.86
   1  -2 -11   17.62    1.87
   1  -2 -11   12.49    1.24
  -1   2  11   19.27    1.39
   1  -2 -11   17.78    1.01
   1  -2 -10   52.34    2.20
  -1  -2  10   51.07    2.49
  -1   2  10   52.80    2.08
  -1   2   9   13.83    0.79
  -1  -2   9   14.64    1.11
  -1   2   8  115.01    4.37
  -1  -2   8  115.21    4.65
  -1  -2   7    0.88    0.62
   1  -2  -7    0.65    0.44
  -1   2   7    1.09    0.42
  -1  -2   7    1.05    0.61
  -1   2   6   97.88    3.49
   1  -2  -6   89.17    3.50
  -1   2   6   85.98    3.67
  -1  -2   6   92.19    3.69
  -1  -2   6   83.66    3.66
  -1  -2   5 1639.39   58.84
  -1   2   5 1621.77   58.68
   1  -2  -5 1546.50   58.82
  -1   2   5 1636.48   58.83
  -1   2   4  129.05    4.85
   1  -2  -4  119.06    4.97
   1  -2  -4  133.52    4.86
  -1   2   4  130.00    4.96
   1  -2  -3  454.67   17.38
  -1   2   3  474.12   17.31
  -1   2   3  487.35   17.39
   1  -2  -3  472.88   17.31
  -1   2   2  169.90    6.35
  -1   2   2  171.22    6.33
   1  -2  -2  172.56    6.33
   1  -2  -2  168.45    6.36
  -1  -2   2  162.12    6.38
   1  -2  -1  525.60   19.22
  -1   2   1  516.15   19.22
  -1  -2   1  539.85   19.26
  -1   2   1  535.56   19.22
   1  -2  -1  508.86   19.22
  -1   2   0 3035.72  104.90
  -1  -2   0 2800.81  104.94
  -1  -2   0 2911.57  104.91
   1  -2   0 2792.78  104.88
   1  -2   1 1754.80   64.45
  -1  -2  -1 1775.96   64.53
  -1  -2  -1 1786.41   64.45
   1   2   2 2005.44   72.21
  -1  -2  -2 2094.02   72.11
  -1  -2  -2 2072.01   72.24
  -1   2  -2 1975.42   72.19
  -1  -2  -3  427.91   15.36
  -1  -2  -3  413.49   15.54
   1   2   3  417.12   15.51
   1  -2   3  412.76   15.50
   1   2   4  353.29   11.91
   1  -2   4  336.51   11.87
  -1  -2  -5  500.26   18.52
   1  -2   5  498.00   18.41
   1  -2   5  493.03   18.46
   1   2   5  516.60   18.52
   1  -2   6  452.22   17.06
  -1  -2  -6  467.93   17.17
   1  -2   6  456.49   17.08
   1   2   6  479.51   17.16
  -1  -2  -7   25.91    1.45
   1  -2   7   27.49    1.35
   1   2   7   25.01    1.40
   1  -2   7   25.94    1.36
   1  -2   8  376.74   13.69
   1  -2   8  366.26   13.64
   1  -2   8  370.53   13.69
  -1  -2  -8  350.56   13.74
   1   2   8  365.74   13.75
   1  -2   9  287.73   10.83
  -1  -2  -9  280.22   10.92
   1  -2   9  300.61   10.88
   1   2   9  282.49   10.92
   1  -2   9  283.42   10.77
   1  -2  10  498.96   17.87
  -1  -2 -10  460.77   18.04
   1  -2  10  469.95   17.90
   1  -2  10  495.48   17.99
   1   2  10  477.30   18.03
  -1  -2 -11  902.43   34.01
   1  -2  11  910.13   33.57
  -1  -2 -11  895.80   34.00
   1  -2  11  908.54   33.67
  -1  -2 -11  902.58   33.73
   1  -2  11  934.70   33.52
   1   2  11  913.33   33.73
  -1  -2 -12 1103.86   39.98
   1  -2  12 1044.22   39.75
  -1   2 -12 1069.37   40.07
   1  -2  12 1127.77   39.93
  -1  -2 -12 1076.10   39.99
  -1  -2 -12 1106.84   40.32
  -1  -2 -12  992.06   40.21
   1  -2  12 1101.88   39.71
   1   2  12 1106.98   40.00
   1  -2  13  204.43    7.91
  -1  -2 -13  197.03    8.38
  -1  -2 -13  187.25    7.99
   1  -2  13  199.77    7.63
  -1   2 -13  194.51    8.10
  -1  -2 -13  194.66    7.91
   1   2  13  200.67    7.96
   1   2  14  744.87   27.64
  -1  -2 -14  738.49   27.61
   1  -2  14  754.92   27.59
  -1  -2 -14  719.16   28.03
  -1  -2 -14  734.45   27.62
  -1   2 -14  725.01   27.76
  -1  -2 -15  274.37   11.08
   1  -2  15  265.20   10.46
  -1   2 -15  269.97   10.74
  -1  -2 -15  251.83   10.55
  -1  -2 -16 1471.15   54.12
  -1  -2 -16 1420.99   53.60
  -1   2 -16 1470.05   53.82
  -1  -2 -17   60.75    3.71
  -1  -2 -17   70.46    4.50
  -1   2 -17   68.57    4.06
  -1  -2 -18 1088.41   40.23
  -1   2 -18 1093.23   40.50
  -1  -2 -18 1014.21   40.88
  -1  -2 -18 1104.87   40.86
  -1  -2 -19    4.43    3.90
  -1   2 -19   10.21    2.78
  -1  -2 -19   11.09    2.33
  -1  -2 -19    6.59    3.30
  -1  -2 -20  480.53   18.58
  -1   2 -20  457.19   18.12
  -1  -2 -20  436.86   17.72
  -1  -2 -20  458.64   18.83
  -1  -2 -21  311.14   13.67
  -1  -2 -21  322.17   13.95
  -1  -2 -22  657.11   25.35
  -1   2 -22  639.57   24.93
  -1  -2 -22  631.64   25.70
  -1  -2 -23  106.83    6.96
  -1  -2 -23   92.84    6.19
  -1   2 -23  100.86    5.54
  -1  -2 -24  141.81    7.44
  -1  -2 -24  146.46    8.31
  -1   2 -24  145.44    6.98
  -1  -2 -25   49.07    5.15
  -1   2 -25   49.04    3.68
  -1  -2 -25   59.13    4.21
  -1  -2 -26  114.92    6.75
  -1  -2 -26  113.24    5.76
  -1   2 -26  114.75    5.49
  -1  -2 -27  178.67    7.61
  -1  -2 -27  177.34    8.52
  -1   2 -27  178.22    7.44
  -1  -2 -28   36.58    3.49
  -1  -2 -29    2.24    2.03
  -1  -2 -30  120.53    5.20
   1  -3 -30  173.51    7.24
   1  -3 -29   16.32    2.74
   1  -3 -28   72.82    4.86
   1  -3 -28   75.30    4.07
   1  -3 -27   42.14    4.35
   1  -3 -27   31.54    3.42
   1  -3 -26  263.42   11.71
   1  -3 -26  246.79   11.19
   1  -3 -25    3.43    4.57
   1  -3 -25    7.72    3.66
   1  -3 -24   84.04    6.30
   1   3 -24   83.42    4.69
   1  -3 -24   99.21    5.01
   1  -3 -23   33.30    3.52
   1   3 -23   40.02    3.24
   1  -3 -23   31.66    4.59
   1  -3 -22   60.99    5.88
   1   3 -22   77.27    4.43
   1  -3 -22   67.11    4.65
   1  -3 -21  166.72    8.22
   1  -3 -21  157.92    9.17
   1  -3 -20  147.82    7.36
   1   3 -20  159.98    7.10
   1  -3 -20  139.71    8.26
   1   3 -19   61.00    3.86
   1  -3 -19   61.88    4.24
   1  -3 -19   50.16    5.17
   1  -3 -18   38.19    3.45
   1   3 -18   38.79    3.07
   1  -3 -17  497.48   19.52
   1  -3 -17  479.84   20.01
   1   3 -17  513.77   19.37
   1  -3 -16   16.52    2.66
   1   3 -16   14.21    2.13
   1  -3 -16   18.50    3.20
   1   3 -15  302.53   11.99
   1  -3 -15  295.12   12.14
   1   3 -15  300.54   11.62
   1  -3 -15  308.24   12.60
   1   3 -14  481.39   17.89
   1  -3 -14  490.53   18.69
   1   3 -14  455.19   18.10
   1  -3 -14  476.32   18.33
  -1   3  13  688.34   26.94
  -1  -3  13  725.89   26.97
   1  -3 -13  721.43   27.37
   1   3 -13  748.05   26.95
   1   3 -13  716.40   26.73
   1  -3 -13  725.16   27.00
   1  -3 -13  711.47   27.09
   1  -3 -12  128.80    5.39
   1   3 -12  128.92    5.15
   1  -3 -12  130.04    5.51
   1  -3 -12  132.98    5.80
  -1   3  12  120.19    4.64
  -1   3  12  134.62    5.38
  -1  -3  12  130.39    5.33
   1  -3 -12  124.42    4.87
  -1   3  11  449.03   16.01
   1  -3 -11  447.35   16.89
  -1  -3  11  433.71   16.52
  -1   3  10   93.97    3.56
  -1  -3  10   86.93    3.97
  -1  -3   9  273.02   10.39
  -1  -3   9  269.04   10.38
  -1   3   9  270.35   10.03
   1  -3  -8   18.80    1.00
  -1   3   8   19.91    0.98
  -1  -3   8   18.57    1.28
  -1  -3   8   16.08    1.28
  -1   3   7  418.50   14.56
  -1   3   7  388.40   14.81
  -1  -3   7  399.38   14.80
   1  -3  -7  398.41   14.56
  -1  -3   7  411.32   14.85
  -1   3   6   16.98    0.95
   1  -3  -6   14.90    1.18
  -1   3   6   16.79    1.15
  -1   3   5    9.28    0.70
   1  -3  -5    7.99    0.68
   1  -3  -5    7.90    0.86
  -1   3   5    7.44    0.85
   1  -3  -4  832.03   30.14
  -1   3   4  791.12   30.13
  -1   3   4  854.87   30.27
   1  -3  -4  833.86   30.27
  -1   3   3  858.42   29.99
  -1   3   3  784.65   29.89
  -1  -3   3  798.12   30.01
   1  -3  -3  817.76   29.90
   1  -3  -3  839.47   30.00
  -1   3   2  299.96   11.10
   1  -3  -2  292.91   11.11
  -1   3   2  301.48   11.15
   1  -3  -2  302.79   11.16
  -1  -3   2  298.84   11.18
  -1   3   1  363.31   13.56
   1  -3  -1  358.78   13.59
  -1  -3   1  376.77   13.62
   1  -3  -1  365.14   13.57
  -1   3   1  370.25   13.59
  -1  -3   0  298.47   10.93
  -1   3   0  272.32   10.91
   1  -3   0  306.06   10.94
   1  -3   0  300.29   10.95
   1  -3   1   74.05    2.89
  -1  -3  -1   71.40    2.87
  -1  -3  -1   69.86    2.99
   1  -3   2 4529.04  163.21
  -1  -3  -2 4475.84  163.17
  -1  -3  -2 4435.88  163.32
   1   3   2 4513.37  163.27
  -1  -3  -3    8.65    0.59
   1  -3   3    6.79    0.79
   1   3   3    7.34    0.77
  -1  -3  -3    8.39    0.88
  -1  -3  -3    7.52    0.57
  -1  -3  -4 1985.02   71.34
  -1  -3  -4 1976.16   71.08
  -1  -3  -4 1908.05   71.07
   1  -3   4 1975.02   71.27
   1   3   4 1976.79   71.29
   1  -3   5  174.72    6.59
  -1  -3  -5  179.79    6.68
  -1  -3  -5  167.18    6.32
   1   3   5  174.84    6.62
  -1  -3  -5  169.97    6.31
   1  -3   6 1358.74   50.24
  -1  -3  -6 1394.86   50.40
   1   3   6 1379.62   50.36
   1  -3   6 1377.28   50.31
   1   3   7  447.82   16.60
  -1  -3  -7  445.44   16.65
   1  -3   7  447.57   16.49
   1  -3   7  436.14   16.54
   1  -3   8  379.74   13.62
  -1  -3  -8  339.38   13.73
   1   3   8  349.01   13.70
   1  -3   8  378.58   13.65
   1  -3   9    0.21    0.75
   1  -3   9    1.00    0.79
  -1  -3  -9    0.20    0.83
   1   3   9    1.25    0.74
   1  -3   9    2.38    0.63
   1  -3  10 1115.18   40.46
  -1  -3 -10 1043.65   40.58
   1   3  10 1115.74   40.55
  -1  -3 -10 1103.67   40.58
  -1  -3 -10 1083.27   40.75
   1  -3  10 1102.95   40.49
   1  -3  10 1120.66   40.41
  -1  -3 -11  648.99   24.97
   1   3  11  662.15   24.67
   1  -3  11  658.08   24.48
   1  -3  11  687.73   24.58
   1  -3  11  674.67   24.57
  -1  -3 -11  640.95   24.71
  -1  -3 -11  632.13   24.66
  -1  -3 -11  668.68   24.94
  -1  -3 -12  757.57   29.49
  -1  -3 -12  790.96   29.78
  -1  -3 -12  804.61   29.85
   1   3  12  815.49   29.49
   1  -3  12  792.94   29.25
   1  -3  12  797.10   29.36
  -1  -3 -12  791.17   29.51
   1  -3  12  779.53   29.32
  -1  -3 -13    1.19    0.91
   1  -3  13    1.62    0.78
   1   3  13    0.38    0.84
  -1  -3 -13    0.69    1.87
  -1  -3 -13   -0.95    1.95
  -1   3 -13    0.20    1.14
   1  -3  13    0.22    0.86
  -1  -3 -13    1.52    1.55
   1  -3  13    2.43    0.82
  -1  -3 -14  262.87   10.94
   1  -3  14  260.47   10.33
  -1  -3 -14  265.41   11.02
  -1  -3 -14  257.00   10.56
  -1   3 -14  265.87   10.48
  -1  -3 -15  179.63    8.39
  -1  -3 -15  179.75    7.81
  -1   3 -15  185.21    7.69
  -1  -3 -15  184.45    8.32
  -1  -3 -16   22.01    2.64
  -1  -3 -16   17.80    3.13
  -1   3 -16   24.20    2.29
  -1  -3 -16   18.11    3.20
  -1  -3 -17   15.70    2.65
  -1   3 -17   13.46    2.19
  -1  -3 -17   11.91    3.28
  -1  -3 -17   11.61    3.41
  -1  -3 -18   -0.78    2.60
  -1   3 -18    4.50    2.19
  -1  -3 -18    1.24    3.66
  -1  -3 -18    0.11    3.25
  -1   3 -19    3.60    2.24
  -1  -3 -19    6.34    2.59
  -1  -3 -19    4.07    3.64
  -1   3 -20   56.63    3.91
  -1  -3 -20   54.19    5.18
  -1  -3 -20   60.14    4.15
  -1  -3 -21   38.56    4.76
  -1   3 -21   34.12    3.30
  -1  -3 -21   39.32    3.56
  -1   3 -22   78.61    4.61
  -1  -3 -22   81.71    5.93
  -1   3 -23    1.66    2.31
  -1  -3 -23    4.97    3.95
  -1  -3 -24  367.04   15.66
  -1   3 -24  378.21   14.73
  -1  -3 -25   -3.11    3.38
  -1  -3 -26   10.48    2.96
  -1  -3 -26   13.04    4.10
  -1  -3 -27   13.60    3.50
  -1  -3 -27   15.18    2.49
  -1  -3 -28   44.90    2.83
  -1  -3 -28   57.59    3.78
  -1  -3 -29    8.38    2.08
  -1  -3 -30   18.44    1.65
   1  -4 -29    8.01    1.45
   1  -4 -28   78.79    4.32
   1  -4 -27   -3.28    2.84
   1  -4 -26   87.48    5.55
   1  -4 -25   10.93    2.67
   1  -4 -25   11.79    3.90
   1  -4 -24   15.30    3.18
   1  -4 -24   12.78    4.85
   1  -4 -24   17.44    4.47
   1  -4 -23  177.98    9.67
   1  -4 -23  195.44    9.68
   1  -4 -23  176.20    8.46
   1  -4 -22   22.63    5.04
   1  -4 -22   29.20    3.75
   1  -4 -22   25.95    5.36
   1  -4 -21  188.92    8.78
   1  -4 -21  181.52    9.58
   1  -4 -21  174.25    9.77
   1  -4 -20  119.10    6.53
   1  -4 -20  119.82    7.36
   1  -4 -20  112.66    7.47
   1  -4 -19    1.44    4.24
   1  -4 -19   -1.49    4.17
   1  -4 -19    5.43    3.12
   1   4 -18   83.87    4.09
   1  -4 -18   89.05    5.23
   1  -4 -18   82.98    5.77
   1  -4 -17   37.51    4.11
   1   4 -17   44.25    2.62
   1  -4 -17   34.85    3.60
   1   4 -16   14.03    1.76
   1  -4 -16   13.33    3.15
   1  -4 -16   11.80    2.83
   1  -4 -15  164.43    7.73
   1  -4 -15  165.00    7.50
   1   4 -15  165.53    6.85
  -1  -4  14  153.40    6.50
   1  -4 -14  152.46    7.21
   1   4 -14  163.03    6.55
   1  -4 -14  155.39    7.04
   1   4 -13    1.52    1.18
   1  -4 -13   -0.13    1.85
   1  -4 -13    3.68    1.99
  -1  -4  13    1.72    1.02
   1  -4 -12   83.52    4.16
   1  -4 -12   78.60    4.00
   1   4 -12   81.99    3.59
  -1  -4  12   76.98    3.65
  -1  -4  11  319.03   12.13
   1   4 -11  313.27   12.00
   1  -4 -11  306.18   12.28
   1  -4 -11  309.82   12.41
   1   4 -10  250.24    9.82
  -1  -4  10  245.93    9.92
  -1  -4  10  256.84    9.92
   1  -4 -10  265.95   10.20
   1  -4  -9  430.91   15.89
  -1  -4   9  462.94   16.36
  -1  -4   9  443.92   16.27
  -1  -4   8   34.06    1.85
  -1   4   8   33.29    1.91
  -1   4   8   33.28    1.55
  -1  -4   8   32.88    1.90
   1  -4  -8   31.41    1.90
  -1  -4   7 2196.81   78.74
  -1   4   7 2137.17   78.70
  -1   4   7 2146.44   78.41
   1  -4  -7 2143.01   78.73
  -1   4   6  165.01    6.09
   1  -4  -6  166.81    6.10
  -1   4   6  166.84    6.34
   1  -4  -6  152.75    6.32
   1  -4  -5  753.86   27.69
  -1   4   5  746.39   27.68
  -1   4   5  772.65   27.87
   1  -4  -5  750.92   27.89
  -1   4   4   27.13    1.39
  -1  -4   4   24.95    1.59
   1  -4  -4   28.55    1.58
  -1   4   4   27.98    1.53
   1  -4  -4   29.81    1.45
  -1   4   3   68.70    2.85
   1  -4  -3   63.75    2.76
  -1   4   3   65.92    2.75
  -1  -4   3   71.19    2.92
   1  -4  -3   60.46    2.87
  -1  -4   2  170.80    6.72
   1  -4  -2  171.18    6.71
  -1   4   2  172.28    6.68
   1  -4  -2  176.33    6.64
   1  -4  -1 1467.71   53.77
   1  -4  -1 1464.11   53.73
  -1  -4   1 1482.00   53.78
   1  -4   0  353.68   13.43
   1  -4   0  365.44   13.43
   1  -4   1  541.10   20.08
   1  -4   1  545.21   20.11
  -1  -4  -2 1940.11   71.81
  -1  -4  -2 1983.47   71.61
   1  -4   2 1962.91   71.70
  -1  -4  -3   12.58    1.14
   1  -4   3   14.32    0.98
   1   4   3   14.82    1.10
  -1  -4  -3   13.97    0.90
  -1  -4  -4   23.88    1.46
   1   4   4   23.30    1.40
   1  -4   4   23.17    1.45
  -1  -4  -4   23.17    1.15
  -1  -4  -5 1005.72   36.51
   1  -4   5 1033.78   36.76
   1   4   5 1004.02   36.77
  -1  -4  -5  968.28   36.47
  -1  -4  -5 1034.72   36.89
  -1  -4  -6  475.99   17.85
   1   4   6  498.19   18.23
  -1  -4  -6  504.68   18.33
   1  -4   6  482.76   18.20
  -1  -4  -6  494.77   17.88
  -1  -4  -7 1520.77   57.43
  -1  -4  -7 1524.70   57.45
   1  -4   7 1702.49   57.83
   1  -4   7 1746.10   57.92
  -1  -4  -7 1761.99   58.06
   1   4   7 1801.09   57.99
  -1  -4  -8  105.43    4.38
   1   4   8   99.92    4.25
   1  -4   8   92.39    4.12
   1  -4   8  103.26    4.24
   1  -4   9   81.20    3.55
   1  -4   9   75.31    3.68
   1   4   9   83.88    3.70
  -1  -4  -9   79.57    3.83
   1  -4   9   87.59    3.68
  -1  -4  -9   88.57    3.82
   1  -4  10  208.94    7.98
   1  -4  10  205.09    8.06
  -1  -4 -10  192.35    8.16
  -1  -4 -10  206.76    8.18
   1  -4  10  202.34    7.93
   1   4  10  198.77    8.04
  -1   4 -10  199.72    7.95
  -1  -4 -10  197.00    8.25
  -1  -4 -10  201.92    8.41
   1   4  11    9.76    1.17
   1  -4  11   10.11    1.24
  -1  -4 -11    9.21    1.77
  -1  -4 -11    9.34    1.28
  -1   4 -11    8.66    1.21
   1  -4  11    8.70    1.04
  -1  -4 -11    9.41    1.66
  -1  -4 -11    8.06    2.01
   1   4  12  361.45   13.77
   1  -4  12  362.43   13.66
  -1  -4 -12  361.39   13.93
   1  -4  12  348.35   13.68
   1  -4  12  351.30   13.60
  -1   4 -12  352.98   13.59
  -1  -4 -12  366.42   14.07
  -1  -4 -12  344.70   13.82
  -1  -4 -13   11.01    2.14
   1  -4  13   12.51    1.27
  -1  -4 -13   10.90    2.19
   1  -4  13    9.62    1.33
  -1   4 -13   11.59    1.35
   1  -4  13   11.66    1.26
  -1  -4 -14   -0.41    2.06
  -1   4 -14    0.94    1.09
  -1  -4 -14    1.25    2.10
  -1  -4 -15   13.92    2.91
  -1  -4 -15   11.95    2.47
  -1  -4 -15   15.42    3.12
  -1   4 -15   14.35    1.54
  -1  -4 -16   -1.64    2.54
  -1  -4 -16    0.10    2.95
  -1  -4 -16   -0.32    3.22
  -1  -4 -17   15.18    3.61
  -1  -4 -17   20.85    3.51
  -1  -4 -17   18.63    2.98
  -1  -4 -18    0.69    3.06
  -1  -4 -18    0.67    3.78
  -1  -4 -18   -3.05    3.78
  -1  -4 -19   17.78    4.24
  -1  -4 -19   13.35    3.89
  -1  -4 -19   17.52    3.47
  -1  -4 -20    3.55    2.99
  -1  -4 -20    0.63    4.12
  -1  -4 -20    3.01    4.24
  -1  -4 -21    1.40    4.31
  -1  -4 -21    3.42    4.22
  -1  -4 -21    1.90    3.17
  -1  -4 -22    8.36    4.58
  -1  -4 -22    8.59    3.24
  -1  -4 -22    4.41    4.46
  -1  -4 -23  208.07    9.90
  -1  -4 -23  188.76    9.78
  -1  -4 -24   12.82    4.21
  -1  -4 -24   17.90    4.44
  -1  -4 -25   21.05    4.27
  -1  -4 -25   20.90    3.70
  -1  -4 -26    0.17    2.81
  -1  -4 -27   17.91    2.69
  -1  -4 -28   20.21    2.03
   1  -5 -29   20.71    1.96
   1  -5 -29   19.65    1.65
   1  -5 -28   61.09    3.70
   1  -5 -28   71.36    3.86
   1  -5 -27   21.95    3.14
   1  -5 -27   22.09    3.15
   1  -5 -26   21.93    3.64
   1  -5 -26   32.63    3.60
   1  -5 -25  126.96    6.32
   1  -5 -25  131.28    7.08
   1  -5 -25  128.87    7.14
   1  -5 -24   20.53    4.23
   1  -5 -24   18.73    3.39
   1  -5 -24   23.23    4.55
   1  -5 -23    5.23    4.43
   1  -5 -23    2.91    4.00
   1  -5 -23    3.07    3.40
   1  -5 -22   23.59    3.90
   1  -5 -22   18.08    5.18
   1  -5 -22   22.60    4.92
   1  -5 -21   41.41    5.22
   1  -5 -21   48.13    4.70
   1  -5 -21   42.33    5.67
   1  -5 -20    7.27    4.32
   1  -5 -20   13.83    3.91
   1  -5 -20   10.91    4.94
   1  -5 -19   72.07    6.34
   1  -5 -19   81.43    5.24
   1  -5 -19   75.67    5.70
   1   5 -19   78.17    4.07
   1  -5 -18 1036.46   39.00
   1  -5 -18 1023.78   39.25
   1   5 -18 1027.42   38.35
   1  -5 -17  193.52    8.91
   1   5 -17  197.82    8.11
   1  -5 -17  180.68    9.01
   1  -5 -16  810.42   30.76
   1   5 -16  810.79   30.25
   1  -5 -16  794.12   30.97
   1  -5 -15  202.95    9.01
   1   5 -15  206.47    8.42
   1  -5 -15  198.47    9.08
   1   5 -14 2814.87  101.89
   1  -5 -14 2801.90  102.24
   1  -5 -14 2714.17  102.35
   1   5 -13  549.12   20.71
   1  -5 -13  539.90   21.13
   1  -5 -13  548.41   21.04
   1   5 -12 2035.59   72.61
   1  -5 -12 1979.77   72.86
   1  -5 -12 2046.95   73.00
  -1  -5  12 1880.65   72.58
  -1  -5  11  143.81    6.01
  -1  -5  11  140.62    5.97
   1   5 -11  137.24    5.88
   1  -5 -11  136.79    6.23
  -1   5  10  822.52   30.89
   1  -5 -10  751.51   30.88
   1   5 -10  867.04   30.82
   1  -5 -10  868.64   31.06
  -1  -5  10  821.21   30.92
  -1  -5  10  843.33   30.90
   1  -5  -9   62.78    3.35
  -1   5   9   66.47    3.13
   1  -5  -9   62.38    3.24
   1   5  -9   63.86    3.05
   1  -5  -9   61.89    2.69
  -1  -5   9   66.05    3.19
   1  -5  -9   64.21    3.20
  -1  -5   9   61.64    3.09
   1  -5  -8   80.75    3.77
  -1   5   8   80.65    3.64
   1   5  -8   77.17    3.55
   1  -5  -8   77.77    3.66
  -1  -5   8   80.57    3.69
   1  -5  -7   10.94    1.23
  -1  -5   7    8.87    1.19
  -1   5   7   11.24    1.15
   1  -5  -7   13.52    1.02
   1   5  -7   11.13    1.17
   1  -5  -6  578.71   21.30
   1  -5  -6  546.91   21.56
  -1   5   6  602.40   21.57
  -1  -5   5  477.39   18.29
  -1   5   5  482.47   18.22
   1  -5  -5  494.86   18.29
   1  -5  -5  488.48   18.05
  -1  -5   4  436.13   16.33
   1  -5  -4  418.88   16.29
  -1   5   4  448.72   16.27
   1  -5  -4  428.89   16.12
   1  -5  -3  780.92   28.83
  -1  -5   3  783.65   28.82
   1  -5  -3  783.75   28.69
  -1   5   3  783.92   28.79
  -1  -5   3  759.80   28.83
  -1  -5   2  112.89    4.58
   1  -5  -2  113.28    4.48
  -1  -5   2  106.36    4.58
   1  -5  -2  106.90    4.55
   1  -5  -1  597.84   22.45
  -1  -5   1  602.52   22.44
   1  -5  -1  611.51   22.39
  -1  -5   0  604.31   22.69
   1  -5   0  619.35   22.70
   1  -5   0  619.70   22.73
  -1  -5   0  606.76   22.64
   1  -5   1  338.20   12.50
   1  -5   1  318.92   12.51
  -1  -5  -1  333.96   12.41
  -1  -5  -2  579.70   21.37
   1  -5   2  568.83   21.51
   1  -5   2  586.11   21.49
  -1  -5  -3   36.62    2.19
  -1  -5  -3   42.44    1.95
   1  -5   3   41.89    2.00
  -1  -5  -4  545.05   19.60
   1   5   4  519.51   19.81
   1  -5   4  557.56   19.77
  -1  -5  -4  517.35   19.94
  -1  -5  -4  511.14   19.62
   1  -5   5  296.99   11.34
   1  -5   5  314.31   11.26
  -1  -5  -5  289.80   11.07
   1   5   5  297.53   11.34
  -1  -5  -5  293.01   11.45
  -1  -5  -5  289.88   11.02
   1  -5   6  645.75   23.04
   1   5   6  607.49   23.04
  -1  -5  -6  629.31   23.19
  -1  -5  -6  642.05   22.71
  -1  -5  -6  586.54   22.65
  -1  -5  -7  130.03    5.32
  -1  -5  -7  123.09    4.69
   1  -5   7  129.87    5.19
  -1  -5  -7  116.35    4.70
  -1   5  -7  125.69    5.13
  -1  -5  -7  125.43    5.23
   1   5   7  125.11    5.17
  -1  -5  -8   20.35    1.64
  -1  -5  -8   19.02    1.84
  -1   5  -8   20.22    1.53
  -1  -5  -8   18.90    1.71
   1   5   8   23.17    1.54
   1  -5   8   18.33    1.54
  -1  -5  -8   16.97    0.84
   1  -5   8   20.41    1.36
   1  -5   9  220.19    8.89
   1   5   9  230.73    9.06
  -1   5  -9  229.61    9.00
  -1  -5  -9  223.99    9.09
  -1  -5  -9  233.70    9.21
   1  -5   9  225.76    8.99
   1  -5   9  226.62    9.08
  -1  -5  -9  232.96    9.34
   1  -5  10  137.14    5.97
   1  -5  10  142.46    6.13
   1   5  10  149.74    6.14
  -1  -5 -10  151.88    6.52
  -1  -5 -10  144.94    6.27
   1  -5  10  147.16    6.06
  -1   5 -10  146.47    6.04
  -1  -5 -10  145.67    6.28
   1  -5  11  410.87   16.28
  -1  -5 -11  437.52   16.48
   1  -5  11  432.44   16.20
  -1  -5 -11  417.70   16.43
  -1   5 -11  428.72   16.20
  -1  -5 -11  440.99   16.73
   1  -5  11  409.18   16.14
  -1  -5 -12   54.72    3.82
  -1  -5 -12   59.75    3.61
  -1  -5 -12   60.73    3.53
   1  -5  12   57.31    2.95
   1  -5  12   55.96    3.03
  -1   5 -12   63.17    3.15
  -1   5 -13   12.07    1.68
  -1  -5 -13   12.00    2.31
  -1  -5 -13    6.24    2.65
  -1  -5 -13   11.81    2.55
  -1  -5 -14   44.78    3.43
  -1  -5 -14   41.37    3.25
  -1  -5 -14   35.27    3.81
  -1   5 -14   38.32    2.56
  -1   5 -15    7.15    1.68
  -1  -5 -15    8.64    2.68
  -1  -5 -15    3.52    2.74
  -1  -5 -16   11.83    3.03
  -1  -5 -16    9.09    2.87
  -1   5 -16    8.00    1.74
  -1  -5 -17    4.75    3.32
  -1  -5 -17    3.83    3.05
  -1   5 -17    4.58    1.68
  -1  -5 -18   -0.65    3.61
  -1  -5 -18   -1.58    3.49
  -1  -5 -18    0.97    4.08
  -1  -5 -19   49.78    5.44
  -1  -5 -19   53.50    4.90
  -1  -5 -19   47.31    4.50
  -1  -5 -20   85.46    5.95
  -1  -5 -20   80.56    5.47
  -1  -5 -20   81.57    6.42
  -1  -5 -21    2.39    4.02
  -1  -5 -21    6.18    3.63
  -1  -5 -21    1.40    4.71
  -1  -5 -22    2.95    4.61
  -1  -5 -22    4.15    3.46
  -1  -5 -22    5.24    3.98
  -1  -5 -23   -4.22    4.11
  -1  -5 -23    3.99    4.13
  -1  -5 -24    2.91    4.04
  -1  -5 -24    2.56    3.64
  -1  -5 -25   -0.62    3.36
  -1  -5 -25   -0.77    3.26
  -1  -5 -26    1.30    2.84
  -1  -5 -26    5.75    2.81
  -1  -5 -27    6.86    2.30
  -1  -5 -27    4.66    2.31
  -1  -5 -28   67.74    3.42
  -1  -5 -28   57.94    3.25
  -1  -5 -29   71.21    3.28
   1  -6 -28   53.70    2.93
   1  -6 -28   53.48    3.04
   1  -6 -27    3.76    2.04
   1  -6 -27    2.43    2.36
   1  -6 -26  131.32    6.47
   1  -6 -26  123.65    6.13
   1  -6 -25    3.49    2.74
   1  -6 -25    8.51    3.09
   1  -6 -25    6.28    3.49
   1  -6 -24   39.42    3.84
   1  -6 -24   35.45    4.00
   1  -6 -24   33.95    4.55
   1  -6 -23   26.05    4.88
   1  -6 -23   32.51    3.96
   1  -6 -23   26.99    4.06
   1  -6 -22    5.64    4.45
   1  -6 -22   16.27    3.87
   1  -6 -22    6.26    3.73
   1  -6 -21   69.83    6.61
   1  -6 -21   71.82    5.58
   1  -6 -21   71.74    5.64
   1  -6 -20   58.15    4.99
   1  -6 -20   58.21    5.18
   1   6 -20   59.40    3.55
   1   6 -19   75.70    4.14
   1  -6 -19   74.10    5.45
   1  -6 -19   74.76    5.53
   1  -6 -18   14.49    3.86
   1   6 -18   11.26    2.34
   1  -6 -18   13.41    3.66
   1   6 -17   74.38    4.18
   1  -6 -17   79.34    5.42
   1  -6 -17   74.35    5.20
   1  -6 -16   71.28    4.86
   1   6 -16   74.50    4.11
   1  -6 -16   71.50    4.89
   1  -6 -15   64.36    4.66
   1  -6 -15   62.14    4.35
   1   6 -15   63.64    3.72
   1  -6 -14   29.73    3.14
   1   6 -14   29.96    2.59
   1   6 -13   64.22    3.63
   1  -6 -13   67.99    4.03
   1  -6 -12    3.16    1.96
   1   6 -12    2.07    1.67
   1  -6 -11   27.29    2.74
   1  -6 -11   27.95    2.46
   1   6 -11   29.06    2.26
   1  -6 -10   63.80    3.44
   1  -6 -10   54.44    3.53
   1   6 -10   65.65    3.29
  -1  -6   9   59.04    3.15
   1  -6  -9   64.47    3.23
   1   6  -9   66.49    3.21
   1  -6  -9   57.98    3.16
  -1  -6   9   57.72    3.10
   1  -6  -9   58.52    3.40
  -1   6   9   58.21    3.07
  -1  -6   8   85.91    4.16
   1  -6  -8   88.30    4.16
   1   6  -8   93.72    4.11
   1  -6  -8   90.49    4.27
  -1  -6   8   86.69    4.10
   1  -6  -8   89.09    3.72
  -1   6   8   86.48    4.05
   1  -6  -7   16.20    1.75
   1  -6  -7   15.33    1.53
  -1   6   7   16.16    1.43
   1  -6  -7   17.37    1.26
   1  -6  -6    8.80    1.35
   1  -6  -6   11.75    1.15
   1  -6  -6   12.90    1.34
  -1   6   6    8.89    1.15
  -1  -6   6   11.69    1.32
   1   6  -6   10.29    1.32
  -1  -6   5  350.63   13.30
  -1  -6   5  354.61   13.31
   1   6  -5  357.50   13.26
   1  -6  -5  343.07   13.26
  -1   6   5  346.61   13.27
   1  -6  -5  326.14   13.31
   1  -6  -5  340.29   13.07
  -1  -6   5  355.36   13.39
  -1  -6   4    5.10    0.99
  -1  -6   4    5.82    1.07
  -1  -6   4    5.48    1.23
   1   6  -4    6.61    1.09
   1  -6  -4    4.42    1.05
   1  -6  -4    5.25    1.01
  -1   6   4    6.48    0.98
  -1  -6   3    2.48    0.93
  -1  -6   3    2.47    1.04
   1  -6  -3    2.65    0.98
  -1  -6   3    2.14    0.88
   1   6  -3    2.14    0.87
   1  -6  -3    2.56    0.94
  -1  -6   2  376.27   14.48
   1  -6  -2  377.13   14.55
   1  -6  -2  382.59   14.44
  -1  -6   2  380.44   14.54
  -1  -6   2  396.06   14.59
  -1  -6   1  801.97   29.06
   1  -6  -1  791.33   29.05
  -1  -6   1  785.20   29.19
  -1  -6   1  759.79   29.10
   1  -6  -1  784.57   29.14
   1  -6   0   11.15    1.10
   1  -6   0    7.88    1.17
  -1  -6   0    9.07    1.13
  -1  -6   0    7.39    0.99
   1  -6   1  223.48    8.27
  -1  -6  -1  207.27    8.13
   1  -6   1  210.53    8.24
  -1  -6  -1  194.61    8.32
  -1  -6  -1  210.61    8.19
  -1  -6  -2   18.86    1.31
  -1   6  -2   18.04    1.39
  -1  -6  -2   17.62    1.61
  -1  -6  -2   19.08    1.37
   1  -6   2   20.78    1.60
   1  -6   2   19.93    1.35
   1  -6   3  105.89    4.40
  -1  -6  -3  102.98    4.27
  -1  -6  -3  102.82    4.31
  -1   6  -3  103.95    4.45
   1  -6   3  103.61    4.49
   1  -6   4  564.23   20.57
  -1   6  -4  548.92   20.60
  -1  -6  -4  537.38   20.41
  -1  -6  -4  532.33   20.74
  -1  -6  -4  558.97   20.37
  -1  -6  -5   93.60    3.85
   1  -6   5   93.30    4.08
  -1  -6  -5   94.49    4.34
  -1  -6  -5   96.64    4.18
  -1  -6  -5   92.50    3.88
  -1   6  -6    4.50    1.16
  -1  -6  -6    2.32    0.71
  -1  -6  -6    2.15    1.16
  -1  -6  -6    4.06    1.09
  -1  -6  -6    3.07    0.65
   1   6   6    4.19    1.01
   1  -6   6    3.16    1.19
  -1  -6  -6    3.48    1.28
   1  -6   6    3.57    0.89
  -1   6  -7    8.52    1.44
   1  -6   7   10.05    1.41
  -1  -6  -7    6.82    1.51
  -1  -6  -7    7.84    0.80
  -1  -6  -7    8.49    1.60
  -1  -6  -7    8.55    0.77
  -1  -6  -7    8.42    1.29
   1  -6   7    8.91    1.08
   1   6   7    8.00    1.16
   1   6   8  101.21    4.76
   1  -6   8  115.03    4.95
  -1  -6  -8  103.53    4.96
   1  -6   8  109.94    4.83
  -1  -6  -8  110.93    4.98
  -1   6  -8  113.55    4.87
  -1  -6  -8  109.62    5.11
  -1   6  -9  786.06   28.39
   1  -6   9  757.23   28.38
  -1  -6  -9  763.82   28.38
  -1  -6  -9  765.49   28.67
  -1  -6  -9  749.31   28.46
   1  -6   9  756.70   28.51
   1  -6   9  733.75   28.31
  -1  -6 -10    0.82    1.90
  -1  -6 -10    3.27    1.91
   1  -6  10    1.11    0.91
  -1   6 -10    0.77    1.37
  -1  -6 -10    2.41    1.46
  -1  -6 -11  364.39   14.71
  -1   6 -11  368.10   14.23
  -1  -6 -11  364.40   14.37
  -1   6 -12   10.61    1.76
  -1  -6 -12   11.35    2.77
  -1  -6 -12   13.03    2.22
  -1  -6 -13  509.29   20.60
  -1  -6 -13  519.04   20.22
  -1   6 -13  530.01   19.95
  -1  -6 -14   66.99    4.15
  -1   6 -14   57.06    3.42
  -1  -6 -14   55.81    4.57
  -1  -6 -14   57.45    3.56
  -1  -6 -14   66.18    4.40
  -1  -6 -15 1000.67   38.57
  -1   6 -15 1020.23   38.45
  -1  -6 -15 1071.72   38.95
  -1  -6 -15 1022.31   39.29
  -1  -6 -15 1055.36   38.93
  -1  -6 -16  155.02    7.50
  -1  -6 -16  148.46    6.86
  -1  -6 -16  154.04    8.19
  -1  -6 -16  162.62    7.83
  -1   6 -16  152.27    6.74
  -1   6 -17  515.41   19.81
  -1  -6 -17  473.32   20.80
  -1  -6 -17  538.70   20.55
  -1  -6 -17  528.57   20.46
  -1  -6 -18   22.24    4.38
  -1   6 -18   20.77    2.42
  -1  -6 -18   25.21    3.82
  -1  -6 -19  536.38   19.78
  -1  -6 -19  513.21   19.70
  -1  -6 -20   17.37    3.97
  -1  -6 -20   16.74    4.19
  -1  -6 -21  741.48   29.27
  -1  -6 -21  793.88   29.27
  -1  -6 -21  731.94   29.71
  -1  -6 -22  326.99   14.07
  -1  -6 -22  308.80   13.38
  -1  -6 -23   30.52    4.81
  -1  -6 -23   36.57    4.01
  -1  -6 -24    1.39    3.09
  -1  -6 -24    0.29    3.73
  -1  -6 -25  145.62    7.27
  -1  -6 -25  150.57    6.96
  -1  -6 -26   14.26    2.34
  -1  -6 -26   13.44    2.73
  -1  -6 -27  247.65   10.11
  -1  -6 -27  254.29    9.98
  -1  -6 -28    1.75    1.16
  -1  -6 -28    1.92    1.14
   1  -7 -28   31.46    1.88
   1  -7 -27   47.42    2.96
   1  -7 -27   45.97    2.63
   1  -7 -26   74.48    3.88
   1  -7 -26   75.01    4.29
   1  -7 -25   47.04    3.41
   1  -7 -25   53.76    4.05
   1  -7 -24   52.95    3.76
   1  -7 -24   54.60    4.02
   1  -7 -24   45.22    4.53
   1  -7 -23    5.56    3.37
   1  -7 -23    4.37    2.87
   1  -7 -22   82.57    5.11
   1  -7 -22   81.37    5.30
   1  -7 -21  146.98    7.34
   1  -7 -21  132.80    6.93
   1   7 -21  127.61    5.98
   1  -7 -20   27.33    3.87
   1   7 -20   32.19    2.82
   1  -7 -20   24.28    5.17
   1  -7 -20   26.32    4.66
   1   7 -19  353.68   13.74
   1  -7 -19  345.89   15.11
   1  -7 -19  355.80   14.54
   1  -7 -19  361.08   14.39
   1  -7 -19  311.92   13.72
   1   7 -18    6.48    2.46
   1  -7 -18    7.73    3.07
   1  -7 -18    7.06    4.40
   1  -7 -18    7.82    4.08
   1  -7 -17  391.96   16.90
   1  -7 -17  403.95   16.27
   1  -7 -17  394.79   16.40
   1   7 -17  408.53   15.88
   1   7 -16  427.46   16.40
   1  -7 -16  389.65   17.27
   1  -7 -16  417.25   16.71
   1   7 -15   51.53    3.59
   1  -7 -15   55.30    4.07
   1   7 -14   29.79    2.85
   1  -7 -14   29.22    3.11
   1  -7 -13  202.81    8.73
   1   7 -13  200.84    8.51
   1  -7 -13  197.00    8.97
   1  -7 -12  170.57    7.88
   1  -7 -12  185.77    8.20
   1   7 -12  190.76    7.91
   1   7 -11  347.83   13.19
   1  -7 -11  325.19   13.17
   1  -7 -11  324.03   13.38
   1  -7 -10   51.58    3.06
   1  -7 -10   53.92    3.57
   1   7 -10   53.91    3.16
   1   7  -9  113.81    5.07
   1  -7  -9  101.61    5.18
   1  -7  -8  264.46   10.67
   1  -7  -7  217.12    8.49
  -1  -7   7  197.77    8.15
   1  -7  -6  822.81   29.87
  -1  -7   6  771.13   29.93
  -1  -7   6  802.78   30.13
  -1  -7   6  815.93   30.15
   1   7  -6  842.17   30.10
   1  -7  -6  780.79   30.19
   1  -7  -6  811.70   30.12
  -1   7   6  801.43   30.11
  -1  -7   5   45.75    2.53
   1  -7  -5   44.85    2.59
   1  -7  -5   42.20    2.30
  -1  -7   5   44.95    2.47
   1  -7  -5   45.81    2.61
  -1  -7   5   41.65    2.54
  -1  -7   5   44.03    2.59
   1   7  -5   48.12    2.54
   1  -7  -4  521.28   19.85
  -1   7   4  512.44   19.71
   1   7  -4  530.05   19.89
  -1  -7   4  529.89   20.04
  -1  -7   4  530.43   19.89
   1  -7  -4  530.60   19.78
  -1  -7   4  535.63   20.01
  -1  -7   4  546.22   19.96
   1  -7  -4  512.60   20.01
   1   7  -3  376.35   14.06
  -1  -7   3  360.28   14.12
   1  -7  -3  370.80   13.99
   1  -7  -3  371.30   13.99
  -1  -7   3  351.40   14.16
   1  -7  -3  348.89   14.15
  -1  -7   3  373.17   14.20
  -1  -7   3  378.76   14.12
  -1   7   3  367.65   13.95
   1  -7  -2  217.08    8.45
  -1  -7   2  219.73    8.60
   1   7  -2  207.73    8.41
  -1   7   2  208.25    8.38
  -1  -7   2  208.95    8.53
  -1  -7   2  214.69    8.48
   1  -7  -2  211.28    8.57
  -1  -7   2  216.37    8.61
  -1  -7   1  254.46   10.08
   1   7  -1  255.17   10.05
  -1  -7   1  257.36   10.26
  -1   7   1  261.88   10.08
  -1  -7   1  270.41   10.28
   1  -7  -1  254.12   10.19
   1  -7  -1  269.04   10.14
  -1  -7   1  247.03   10.15
  -1   7   0  117.42    4.99
   1  -7   0  113.62    5.04
  -1  -7   0  119.29    5.00
  -1  -7   0  123.65    5.18
  -1  -7   0  117.32    5.19
   1   7   0  115.23    4.90
  -1  -7   0  108.85    4.97
   1  -7   0  122.68    5.05
  -1  -7  -1  830.36   30.27
  -1  -7  -1  846.24   30.02
  -1  -7  -1  766.07   30.04
  -1   7  -1  801.73   30.08
   1  -7   1  819.95   30.11
  -1  -7  -1  780.62   30.23
   1  -7   1  851.32   30.18
   1   7   1  786.79   29.96
   1  -7   2  551.10   20.97
   1  -7   2  594.62   21.05
  -1   7  -2  562.07   20.96
  -1  -7  -2  574.77   21.16
  -1  -7  -2  555.00   20.82
  -1  -7  -2  518.98   20.85
  -1  -7  -3  641.75   22.88
   1  -7   3  641.35   23.11
   1  -7   3  610.09   23.04
  -1   7  -3  627.63   23.06
   1  -7   3  592.44   22.99
  -1  -7  -3  583.33   22.89
  -1  -7  -3  606.15   22.94
   1  -7   4  106.09    4.64
  -1  -7  -4   97.03    4.33
   1  -7   4  107.68    4.54
  -1   7  -4  106.91    4.63
  -1  -7  -4  102.50    4.54
  -1  -7  -4  103.08    4.32
   1  -7   4   98.37    4.45
  -1  -7  -5  143.91    6.22
  -1  -7  -5  152.15    6.45
  -1  -7  -5  144.26    5.96
  -1  -7  -5  155.03    5.95
  -1  -7  -5  148.35    6.27
   1  -7   5  152.24    6.19
  -1   7  -5  140.53    6.24
  -1  -7  -6  258.70   10.24
  -1  -7  -6  251.75   10.27
   1  -7   6  261.89   10.16
  -1   7  -7   56.50    3.21
   1  -7   7   56.96    2.88
  -1  -7  -7   54.64    3.22
  -1  -7  -7   58.67    3.27
  -1   7  -8  154.34    6.29
  -1  -7  -8  143.57    6.44
  -1  -7  -8  145.43    6.37
   1  -7   8  135.51    6.04
  -1   7  -9  118.45    5.33
  -1  -7  -9  110.48    5.51
  -1  -7  -9  111.93    5.40
  -1  -7 -10   97.12    5.04
  -1   7 -10  105.03    4.86
  -1  -7 -10   98.00    4.60
  -1  -7 -10   92.49    5.13
  -1  -7 -11   21.00    2.66
  -1  -7 -11   23.48    2.24
  -1  -7 -11   27.22    2.92
  -1   7 -11   23.54    2.51
  -1  -7 -11   21.33    2.97
  -1  -7 -12   71.90    3.98
  -1   7 -12   73.56    3.94
  -1  -7 -12   67.47    4.18
  -1  -7 -12   67.86    4.59
  -1  -7 -12   68.62    4.47
  -1  -7 -13   75.83    4.42
  -1   7 -13   79.38    4.16
  -1  -7 -13   81.39    4.39
  -1  -7 -13   68.25    4.95
  -1  -7 -14  103.90    5.38
  -1   7 -14  101.30    5.21
  -1  -7 -14  103.35    5.41
  -1  -7 -14  111.30    6.26
  -1   7 -15  113.50    5.46
  -1  -7 -15  113.02    6.43
  -1  -7 -15   98.79    5.36
  -1  -7 -15  104.18    5.61
  -1  -7 -16   75.30    5.48
  -1  -7 -16   73.45    4.41
  -1  -7 -16   80.82    4.79
  -1   7 -16   78.09    4.31
  -1  -7 -16   71.34    5.76
  -1  -7 -17    2.88    4.26
  -1  -7 -17    4.49    2.81
  -1  -7 -17    4.26    4.22
  -1   7 -17    3.76    2.21
  -1  -7 -17    3.90    2.21
  -1  -7 -18    1.43    4.06
  -1  -7 -18    3.83    2.93
  -1   7 -18    0.43    2.11
  -1  -7 -18    1.05    4.15
  -1   7 -19    3.44    2.05
  -1  -7 -19   -0.86    4.15
  -1  -7 -19    6.05    3.13
  -1  -7 -19    3.95    4.66
  -1  -7 -20   47.17    4.09
  -1  -7 -20   57.99    4.91
  -1   7 -20   43.05    3.05
  -1  -7 -20   50.30    5.48
  -1  -7 -21   -1.04    3.03
  -1  -7 -21    7.40    3.74
  -1  -7 -22   26.15    3.35
  -1  -7 -23    2.76    2.69
  -1  -7 -24    0.70    2.21
  -1  -7 -24    1.13    3.25
  -1  -7 -25   21.14    2.31
  -1  -7 -25   21.50    2.90
  -1  -7 -26    7.78    1.51
  -1  -7 -26    8.42    2.07
  -1  -7 -27   77.00    3.32
  -1  -7 -27   57.45    2.89
   1  -8 -27   36.27    2.06
   1  -8 -26    0.10    0.97
   1  -8 -25   83.81    3.91
   1  -8 -24    8.58    1.97
   1  -8 -24   13.22    2.54
   1  -8 -23   27.86    3.41
   1  -8 -23   28.04    3.71
   1  -8 -23   23.88    2.68
   1   8 -22   24.22    2.18
   1  -8 -22   28.26    3.83
   1  -8 -22   24.08    4.05
   1  -8 -22   30.31    2.94
   1  -8 -21    4.67    2.66
   1  -8 -21    5.04    3.57
   1   8 -21    6.77    2.03
   1  -8 -21    5.89    4.04
   1   8 -20  104.85    5.16
   1  -8 -20  108.95    5.54
   1  -8 -20   96.98    5.13
   1  -8 -20  100.85    6.63
   1  -8 -20  110.99    6.55
   1  -8 -19   54.33    4.96
   1  -8 -19   50.46    3.94
   1  -8 -19   50.40    5.25
   1  -8 -19   45.04    3.58
   1   8 -19   49.28    3.57
   1  -8 -18  247.75   11.05
   1  -8 -18  223.36   10.01
   1   8 -18  240.79    9.87
   1  -8 -18  220.19    9.92
   1  -8 -17   22.97    4.50
   1   8 -17   24.18    3.05
   1  -8 -17   24.11    3.18
   1  -8 -16  353.99   16.10
   1   8 -16  399.23   15.40
   1  -8 -16  386.38   15.43
   1  -8 -15   64.19    4.32
   1   8 -15   78.07    4.49
   1  -8 -15   68.98    5.35
   1  -8 -15   68.67    5.19
   1  -8 -14    0.98    3.36
   1   8 -14    2.13    2.58
   1  -8 -14   -0.08    2.22
   1  -8 -14   -0.21    3.29
   1  -8 -13   10.90    3.16
   1   8 -13   13.02    2.75
   1  -8 -13   13.47    3.51
   1  -8 -13   12.10    2.27
   1   8 -12   74.85    4.41
   1  -8 -12   81.86    4.91
   1   8 -11   51.58    3.52
   1  -8 -11   49.84    3.88
   1   8 -10  210.47    8.99
   1  -8 -10  214.26    9.16
   1  -8  -9   10.27    2.35
   1  -8  -8   21.45    2.48
   1   8  -7   24.56    2.40
  -1  -8   7   24.17    2.02
   1   8  -6   13.78    1.98
  -1  -8   6   10.82    1.60
   1  -8  -6   12.92    2.04
   1   8  -5  646.39   24.15
   1  -8  -5  645.79   24.12
  -1  -8   5  627.79   24.07
   1   8  -4    4.23    1.58
  -1  -8   4    6.14    1.62
  -1   8   4    5.30    1.10
   1  -8  -4    7.15    1.24
   1  -8  -4    7.84    1.57
  -1   8   3 2359.50   86.19
   1   8  -3 2345.90   86.31
   1  -8  -3 2346.14   86.20
   1  -8  -3 2344.27   86.25
  -1  -8   3 2386.62   86.40
   1  -8  -2   13.14    1.50
  -1   8   2   14.73    1.54
  -1  -8   2   15.10    1.93
   1   8  -2   17.12    1.61
  -1  -8   1 1912.86   73.13
   1  -8  -1 1961.59   73.05
  -1  -8   1 2046.86   73.25
  -1  -8   1 1951.29   73.05
  -1   8   1 2065.72   73.03
   1   8  -1 2010.45   73.02
  -1  -8   0   55.11    2.94
  -1  -8   0   58.28    3.36
   1   8   0   59.73    2.97
  -1   8   0   58.08    3.03
  -1  -8   0   52.92    2.92
  -1  -8  -1  370.75   14.71
  -1  -8  -1  379.65   14.66
  -1   8  -1  394.15   14.73
   1   8   1  383.44   14.59
  -1  -8  -1  383.43   14.95
  -1  -8  -2  229.60    9.21
  -1  -8  -2  232.22    9.13
  -1   8  -2  227.59    9.28
   1  -8   2  229.56    9.36
  -1  -8  -2  244.26    9.60
  -1  -8  -2  225.37    9.13
   1   8   2  232.95    9.10
   1  -8   3  203.36    8.52
  -1  -8  -3  208.33    8.33
  -1   8  -3  212.76    8.58
  -1  -8  -3  216.67    8.85
  -1  -8  -3  209.35    8.40
  -1  -8  -4  228.38    9.34
  -1   8  -4  246.59    9.51
   1  -8   4  228.03    9.33
  -1  -8  -5  100.25    4.67
  -1   8  -5   97.75    4.75
  -1  -8  -6    1.66    1.83
  -1  -8  -6   -0.59    2.19
  -1   8  -6    1.55    1.71
  -1  -8  -6    1.72    1.38
  -1  -8  -7  405.06   16.15
  -1  -8  -7  429.11   16.42
  -1  -8  -7  414.79   16.17
  -1   8  -8  346.77   13.90
  -1  -8  -8  350.95   13.94
  -1  -8  -8  367.27   14.19
  -1  -8  -8  345.10   13.98
  -1  -8  -9  114.33    5.67
  -1   8  -9  120.99    5.62
  -1  -8  -9  118.15    5.67
  -1  -8  -9  109.02    5.77
  -1  -8 -10  225.18   10.04
  -1  -8 -10  228.66    9.93
  -1   8 -10  260.36    9.94
  -1  -8 -10  228.84   10.05
  -1  -8 -11   52.83    3.96
  -1   8 -11   51.19    3.60
  -1  -8 -11   46.31    3.75
  -1  -8 -11   45.60    3.66
  -1  -8 -12  109.69    6.00
  -1  -8 -12  113.75    5.93
  -1   8 -12  118.30    5.73
  -1  -8 -12  112.56    5.96
  -1  -8 -13  305.76   12.16
  -1  -8 -13  286.53   11.94
  -1   8 -13  289.59   11.73
  -1  -8 -13  278.05   11.48
  -1  -8 -13  262.75   12.16
  -1  -8 -14   56.64    4.74
  -1  -8 -14   65.68    4.28
  -1   8 -14   64.02    4.08
  -1  -8 -14   57.21    4.68
  -1  -8 -14   59.65    3.78
  -1  -8 -15   40.36    3.27
  -1   8 -15   38.41    3.36
  -1  -8 -15   34.26    4.34
  -1  -8 -15   40.07    3.57
  -1   8 -16   49.12    3.61
  -1  -8 -16   45.45    3.77
  -1  -8 -16   51.13    4.88
  -1  -8 -16   48.78    3.63
  -1  -8 -17   43.10    4.69
  -1  -8 -17   44.54    3.49
  -1  -8 -17   38.92    3.51
  -1   8 -17   46.97    3.53
  -1  -8 -18   24.66    2.61
  -1  -8 -18   29.35    4.62
  -1   8 -18   27.95    2.97
  -1  -8 -18   16.67    3.04
  -1  -8 -18   23.15    4.84
  -1  -8 -19    0.09    4.03
  -1  -8 -19    2.04    2.64
  -1   8 -19    1.85    2.10
  -1  -8 -19    1.90    3.93
  -1  -8 -20   79.43    5.62
  -1   8 -20   70.24    3.99
  -1  -8 -20   74.25    4.45
  -1  -8 -20   84.52    5.50
  -1  -8 -21  161.46    7.31
  -1  -8 -21  168.00    8.17
  -1  -8 -22   55.22    3.55
  -1  -8 -22   57.41    4.58
  -1  -8 -23    3.74    1.95
  -1  -8 -23    0.97    2.92
  -1  -8 -24    4.18    1.58
  -1  -8 -25    8.52    1.28
   1  -9 -26   10.18    1.22
   1  -9 -25    7.91    1.65
   1  -9 -24   71.12    3.93
   1  -9 -23   28.35    2.94
   1  -9 -22   63.42    3.57
   1   9 -22   67.90    3.45
   1  -9 -22   74.80    4.46
   1  -9 -21   20.14    2.32
   1  -9 -21   20.72    3.34
   1   9 -21   26.15    2.29
   1   9 -20   49.32    3.33
   1  -9 -20   42.23    3.16
   1  -9 -20   46.14    3.21
   1   9 -19  320.31   12.11
   1  -9 -19  322.66   12.83
   1  -9 -19  276.08   11.87
   1  -9 -19  282.77   12.03
   1  -9 -18  124.94    6.24
   1  -9 -18  127.93    6.93
   1  -9 -18  117.94    5.85
   1   9 -18  130.80    6.21
   1   9 -17  240.11    9.91
   1  -9 -17  242.06   10.63
   1  -9 -17  244.31   10.51
   1  -9 -17  216.10    9.53
   1  -9 -17  215.70   10.02
   1   9 -16   12.32    2.98
   1  -9 -16   11.94    4.30
   1  -9 -16   11.00    3.62
   1  -9 -16    5.10    3.23
   1  -9 -15   74.10    5.33
   1  -9 -15   72.96    5.62
   1   9 -15   86.56    4.95
   1  -9 -14  384.76   15.79
   1   9 -14  379.44   15.47
   1  -9 -14  387.84   15.86
   1   9 -13  494.07   18.89
   1  -9 -13  485.41   19.08
   1  -9 -13  454.97   19.13
   1   9 -12   38.16    3.62
   1  -9 -12   37.68    4.05
   1  -9 -12   42.51    3.88
   1  -9 -11  166.06    7.58
   1   9 -11  157.95    7.37
   1  -9 -11  147.59    7.46
   1  -9 -10   19.11    2.98
   1  -9 -10   18.17    3.02
   1  -9  -9  487.94   19.48
   1  -9  -9  509.92   19.45
   1  -9  -8   19.43    2.41
   1   9  -8   26.24    2.79
   1  -9  -8   27.80    2.80
   1   9  -7  289.04   11.40
   1  -9  -7  281.90   11.30
  -1  -9   7  266.01   11.02
   1   9  -6   70.03    3.94
  -1  -9   6   61.66    3.61
   1  -9  -6   65.64    3.77
   1   9  -5   15.15    2.24
   1  -9  -5   17.12    2.09
  -1  -9   5   16.04    2.15
  -1  -9   4    5.86    1.90
   1  -9  -4    4.72    1.59
   1   9  -4    3.89    1.90
  -1   9   4    4.20    1.29
  -1   9   3    9.62    1.57
   1   9  -3   10.59    1.89
  -1  -9   3   13.67    2.21
  -1   9   2  168.66    7.04
  -1  -9   2  166.15    7.31
   1   9  -2  167.02    7.11
   1   9  -1  227.75    9.08
  -1   9   1  221.50    9.09
   1  -9  -1  215.26    9.38
  -1  -9   1  226.87    9.38
  -1   9   0  110.96    5.11
   1  -9   0  111.55    5.42
  -1  -9   0  116.77    5.49
   1   9   0  108.58    5.02
   1  -9   1   32.69    2.77
  -1  -9  -1   38.78    3.16
   1   9   1   35.13    2.34
  -1   9  -1   36.68    2.67
   1   9   2   19.24    1.71
  -1  -9  -2   18.86    2.63
   1  -9   2   18.89    2.30
  -1   9  -2   14.90    2.01
  -1   9  -3    1.78    1.82
  -1  -9  -3    2.69    1.56
  -1  -9  -3    3.39    2.53
   1  -9   3    2.18    1.72
  -1  -9  -4  185.99    7.70
   1  -9   4  176.11    7.68
  -1   9  -4  189.32    7.89
  -1  -9  -5  279.67   10.95
  -1   9  -5  281.97   11.11
   1  -9   5  259.87   10.79
  -1  -9  -6  170.35    7.13
  -1   9  -6  159.11    7.28
  -1  -9  -6  155.45    7.57
  -1  -9  -7  198.39    8.68
  -1  -9  -7  221.82    9.30
  -1  -9  -7  210.74    8.88
  -1  -9  -8  480.86   17.96
  -1  -9  -8  421.67   17.48
  -1  -9  -8  458.14   17.57
  -1  -9  -9  319.56   12.53
  -1  -9  -9  326.49   12.87
  -1  -9  -9  304.80   12.46
  -1   9  -9  278.98   12.45
  -1  -9 -10   12.38    3.33
  -1  -9 -10    9.84    2.77
  -1   9 -10    7.04    2.67
  -1  -9 -10   11.09    2.56
  -1   9 -11   68.51    4.38
  -1  -9 -11   63.10    4.68
  -1  -9 -11   65.18    4.50
  -1  -9 -11   70.20    4.66
  -1  -9 -12   19.09    3.54
  -1  -9 -12   23.49    3.31
  -1   9 -12   19.67    3.05
  -1  -9 -12   17.31    3.47
  -1  -9 -13   17.08    3.26
  -1   9 -13   19.29    2.99
  -1  -9 -13   18.90    3.84
  -1  -9 -13   19.01    3.43
  -1  -9 -14   87.83    5.34
  -1  -9 -14   96.04    5.65
  -1   9 -14   90.88    5.12
  -1  -9 -14   91.84    5.90
  -1  -9 -15  318.26   13.32
  -1   9 -15  301.15   12.72
  -1  -9 -15  323.10   13.28
  -1  -9 -15  306.89   12.86
  -1   9 -16   11.18    2.89
  -1  -9 -16   12.72    3.06
  -1  -9 -16   14.85    3.78
  -1  -9 -16   15.28    4.17
  -1  -9 -17   33.61    4.14
  -1   9 -17   29.74    3.21
  -1  -9 -17   35.97    3.26
  -1  -9 -18    2.84    2.12
  -1   9 -18    0.07    2.26
  -1  -9 -18    4.00    3.50
  -1   9 -19   94.89    4.69
  -1  -9 -19   85.79    4.45
  -1  -9 -19   88.36    5.71
  -1  -9 -20   14.17    3.37
  -1   9 -20   16.32    2.17
  -1  -9 -20   16.34    2.14
  -1  -9 -21   75.85    4.62
  -1  -9 -22   -0.40    2.38
  -1  -9 -23   19.96    2.45
  -1  -9 -24    1.39    1.65
  -1  -9 -25    9.33    1.30
   1 -10 -24    3.24    1.19
   1 -10 -23   29.62    2.26
   1 -10 -22   27.70    2.66
   1  10 -21   43.17    2.62
   1 -10 -21   39.71    3.25
   1 -10 -20    5.55    1.78
   1 -10 -20    9.15    2.55
   1  10 -20    3.29    1.86
   1 -10 -19   31.89    3.66
   1  10 -19   24.81    2.69
   1 -10 -19   22.84    2.59
   1 -10 -19   29.39    3.45
   1  10 -18    0.70    2.32
   1 -10 -18    4.03    3.00
   1 -10 -18    1.76    2.37
   1 -10 -18    3.60    3.21
   1  10 -17   36.37    3.46
   1 -10 -17   35.86    4.17
   1 -10 -17   31.48    3.48
   1 -10 -17   36.79    3.79
   1 -10 -16    0.17    3.66
   1 -10 -16    0.55    2.88
   1 -10 -16   -0.70    3.18
   1  10 -16    4.09    2.96
   1  10 -15   21.81    3.47
   1 -10 -15   18.27    3.45
   1 -10 -15   22.76    4.18
   1 -10 -15   19.89    3.76
   1  10 -14  116.39    6.37
   1 -10 -14  122.86    6.77
   1 -10 -14  124.72    6.61
   1 -10 -13   29.38    4.09
   1  10 -13   32.98    3.86
   1 -10 -13   36.01    3.65
   1 -10 -13   29.74    4.04
   1 -10 -12   16.60    3.51
   1 -10 -12   23.62    4.22
   1 -10 -12   19.53    3.09
   1  10 -12   19.34    3.64
   1 -10 -11    9.73    3.29
   1 -10 -11    4.82    2.52
   1 -10 -10    2.70    2.43
   1 -10 -10    3.32    2.83
   1 -10  -9   49.91    3.90
   1 -10  -9   45.32    3.41
   1  10  -9   54.36    3.98
   1 -10  -8  162.10    7.08
   1  10  -8  142.84    7.09
   1  10  -7   75.11    4.37
  -1 -10   7   67.50    3.79
   1 -10  -7   66.68    4.12
   1 -10  -6    8.56    2.24
  -1 -10   6    9.13    2.02
   1  10  -6   11.26    2.47
  -1 -10   5   24.42    2.58
   1 -10  -5   28.56    2.50
   1  10  -5   26.50    2.87
   1 -10  -5   22.34    3.70
  -1  10   4    5.68    1.54
   1 -10  -4    8.09    2.95
  -1 -10   4    4.72    2.22
   1  10  -4    7.24    2.29
   1 -10  -3   65.06    4.69
  -1  10   3   72.86    3.75
  -1 -10   3   77.54    4.30
   1  10  -3   75.17    4.08
  -1  10   2  169.56    7.26
   1  10  -2  171.38    7.43
  -1 -10   2  178.07    7.69
   1 -10  -2  168.18    7.90
   1  10  -1    4.01    1.85
   1 -10  -1    3.48    2.54
  -1 -10   1    6.83    2.67
  -1  10   1    4.88    1.87
  -1 -10   0  102.80    5.38
   1 -10   0   92.88    5.26
  -1  10   0   99.99    4.88
   1  10   0   95.54    4.64
  -1  10  -1   28.93    2.60
   1  10   1   32.91    2.36
   1 -10   1   28.84    3.00
  -1 -10  -1   29.27    3.35
  -1 -10  -2   13.56    2.95
   1  10   2   11.65    1.73
   1 -10   2   14.44    2.46
  -1  10  -2   15.89    2.48
   1 -10   3   -1.43    1.92
  -1  10  -3    3.04    2.28
  -1 -10  -3   -1.23    2.99
  -1 -10  -4   44.09    2.91
   1 -10   4   38.80    2.89
  -1 -10  -4   48.58    4.12
  -1  10  -4   48.06    3.44
  -1 -10  -5   17.36    2.30
  -1  10  -5   19.13    2.81
   1 -10   5   16.63    2.03
  -1  10  -6  357.19   14.79
  -1 -10  -6  379.52   14.59
  -1 -10  -7  172.54    8.39
  -1 -10  -7  165.31    7.67
  -1  10  -7  188.23    7.93
  -1 -10  -8    7.42    2.63
  -1 -10  -8    7.68    3.42
  -1 -10  -9    5.46    2.06
  -1 -10  -9    6.91    2.94
  -1 -10  -9    5.07    3.53
  -1 -10 -10  263.40   10.78
  -1  10 -10  229.78   10.63
  -1 -10 -10  254.44   10.53
  -1 -10 -10  258.16   11.09
  -1 -10 -11  235.15   10.50
  -1  10 -11  252.50   10.69
  -1 -10 -11  260.70   11.02
  -1 -10 -11  254.48   10.72
  -1 -10 -12  129.73    6.54
  -1 -10 -12  130.93    7.00
  -1 -10 -12  141.61    6.90
  -1  10 -12  135.80    6.78
  -1 -10 -13  457.85   18.05
  -1 -10 -13  464.46   18.05
  -1  10 -13  470.34   17.87
  -1 -10 -13  414.70   17.77
  -1 -10 -14   15.74    4.09
  -1  10 -14   12.25    3.27
  -1 -10 -14   12.29    3.67
  -1 -10 -14   12.08    3.09
  -1 -10 -15  640.24   25.25
  -1  10 -15  666.22   25.11
  -1 -10 -15  675.59   25.37
  -1 -10 -15  636.41   25.13
  -1 -10 -16   15.10    3.43
  -1 -10 -16   20.89    2.89
  -1  10 -16   19.13    2.92
  -1 -10 -17  520.52   20.03
  -1 -10 -17  484.76   19.66
  -1  10 -17  533.40   19.82
  -1  10 -18    4.35    2.26
  -1 -10 -18    4.09    2.84
  -1 -10 -18    7.72    2.02
  -1 -10 -19  120.87    6.12
  -1  10 -19  125.53    5.66
  -1 -10 -20    5.62    2.27
  -1  10 -20    2.82    1.56
  -1 -10 -21  207.38    8.63
  -1 -10 -22  109.50    4.97
  -1 -10 -23   40.45    2.33
   1 -11 -22    2.14    1.10
   1  11 -21   67.58    3.14
   1 -11 -21   67.20    3.38
   1 -11 -20   83.23    3.81
   1  11 -20   89.08    4.04
   1 -11 -20   84.59    4.19
   1  11 -19   15.16    2.09
   1 -11 -19    8.51    2.10
   1 -11 -19   13.28    1.92
   1 -11 -19   15.85    2.62
   1 -11 -18  166.70    7.87
   1 -11 -18  179.68    7.86
   1 -11 -18  204.26    8.22
   1  11 -18  193.65    7.90
   1 -11 -17    2.99    2.87
   1 -11 -17    3.93    2.57
   1 -11 -17    0.34    2.19
   1  11 -17    0.59    2.32
   1  11 -16   71.07    4.33
   1 -11 -16   76.71    4.84
   1 -11 -16   71.50    4.47
   1 -11 -16   61.80    4.08
   1 -11 -15   50.86    4.25
   1  11 -15   50.02    3.94
   1 -11 -15   43.75    3.53
   1 -11 -15   49.90    4.10
   1 -11 -14   22.63    2.91
   1  11 -14   22.53    3.41
   1 -11 -14   25.05    3.83
   1 -11 -14   24.35    3.62
   1 -11 -13    5.80    2.36
   1 -11 -13    2.66    3.61
   1  11 -13    7.07    3.28
   1 -11 -13    4.57    3.18
   1 -11 -12   64.24    5.21
   1 -11 -12   58.20    3.92
   1 -11 -12   72.83    4.67
   1 -11 -11   55.80    4.33
   1 -11 -11   59.15    5.20
   1  11 -10   29.46    3.71
   1 -11 -10   23.91    3.22
   1 -11 -10   19.74    4.73
   1  11  -9   -2.47    3.01
   1 -11  -9    2.70    2.64
   1 -11  -8  148.60    6.87
   1  11  -8  147.70    7.19
   1 -11  -7  309.09   12.42
  -1 -11   7  300.62   12.24
   1 -11  -7  331.60   13.33
   1  11  -7  302.15   12.62
   1 -11  -6   26.96    2.65
   1  11  -6   31.16    3.35
   1 -11  -6   29.46    4.18
  -1 -11   6   29.05    2.74
   1  11  -5   35.58    3.33
   1 -11  -5   38.87    4.34
  -1 -11   5   40.94    3.12
   1 -11  -4    5.00    3.33
  -1 -11   4    4.90    2.47
   1  11  -4    6.72    2.45
  -1  11   3  320.28   12.98
   1  11  -3  339.94   13.25
   1 -11  -3  337.67   13.79
  -1 -11   3  328.11   13.39
  -1 -11   2   60.16    4.15
   1  11  -2   58.82    3.62
  -1  11   2   54.56    3.35
   1 -11  -2   60.53    4.47
  -1  11   1   77.08    4.09
   1 -11  -1   75.41    4.84
   1  11  -1   73.52    4.08
  -1 -11   1   73.86    4.81
   1 -11   0   22.00    3.04
  -1 -11   0   27.29    3.54
   1  11   0   25.68    2.44
  -1  11   0   22.87    2.59
   1  11   1  552.92   20.90
  -1 -11  -1  553.11   21.50
  -1  11  -1  542.15   21.08
   1 -11   1  544.54   21.33
  -1  11  -2   22.47    2.91
   1  11   2   22.36    2.17
  -1 -11  -2   25.80    3.89
   1 -11   2   23.31    2.80
  -1  11  -3  292.35   12.00
  -1 -11  -3  307.81   12.51
   1 -11   3  284.40   11.92
  -1  11  -4   14.45    2.89
  -1 -11  -4   15.65    3.58
   1 -11   4   10.60    2.25
  -1  11  -5  599.88   23.35
  -1 -11  -5  612.85   23.74
  -1  11  -6    4.90    2.89
  -1  11  -7   61.18    4.34
  -1 -11  -8   -0.78    3.79
  -1  11  -8    2.63    3.22
  -1 -11  -8    4.99    2.64
  -1 -11  -9   32.71    3.41
  -1 -11  -9   28.69    4.42
  -1 -11 -10   28.19    4.31
  -1 -11 -10   30.33    3.47
  -1  11 -11  327.55   13.97
  -1 -11 -11  344.09   13.89
  -1 -11 -11  352.30   14.28
  -1  11 -12   31.95    3.74
  -1 -11 -12   35.33    3.81
  -1 -11 -12   29.92    2.85
  -1 -11 -12   33.89    4.03
  -1 -11 -13   51.60    4.33
  -1  11 -13   53.09    4.16
  -1 -11 -13   49.32    3.48
  -1  11 -14    4.70    2.81
  -1 -11 -14    9.57    3.10
  -1 -11 -14    4.29    2.29
  -1  11 -15  163.75    7.40
  -1 -11 -15  171.35    7.44
  -1 -11 -15  150.22    7.13
  -1 -11 -16    9.89    2.48
  -1 -11 -16    7.02    2.27
  -1  11 -16    7.37    2.51
  -1 -11 -17    1.08    2.04
  -1  11 -17    2.71    2.10
  -1 -11 -17    1.33    1.99
  -1 -11 -18   25.03    2.23
  -1  11 -18   26.56    2.46
  -1 -11 -18   29.68    2.53
  -1  11 -19   11.71    1.73
  -1 -11 -19    9.06    1.87
  -1  11 -20    1.24    1.12
  -1 -11 -20    1.29    1.40
  -1 -11 -21   24.52    1.74
   1  12 -20    1.79    0.91
   1  12 -19   33.47    2.07
   1 -12 -19   26.58    1.84
   1  12 -18  114.16    4.91
   1 -12 -18  104.16    4.79
   1  12 -17    9.37    2.06
   1 -12 -17    9.99    2.02
   1  12 -16   10.22    2.37
   1 -12 -16   11.09    2.44
   1 -12 -16    9.60    2.47
   1  12 -15   37.17    3.29
   1 -12 -15   40.69    3.50
   1 -12 -15   43.88    3.30
   1  12 -14   50.76    3.78
   1 -12 -14   48.24    3.68
   1 -12 -14   50.28    4.01
   1 -12 -13   14.76    2.86
   1 -12 -13   13.95    3.64
   1 -12 -12   48.91    4.31
   1 -12 -12   45.35    3.57
   1 -12 -11    4.72    2.50
   1 -12 -11    8.50    3.82
   1  12 -11    7.11    3.23
   1 -12 -10  152.87    6.90
   1  12 -10  147.21    7.17
   1  12  -9  163.68    7.53
   1 -12  -9  157.77    7.08
   1  12  -8   64.74    4.26
   1 -12  -8   51.87    3.43
   1 -12  -8   53.66    5.17
   1 -12  -7   10.75    4.35
   1  12  -7    8.35    2.96
  -1 -12   6   53.32    3.49
   1 -12  -6   53.34    4.92
   1  12  -6   57.91    4.07
  -1 -12   5   94.74    4.98
   1 -12  -5  105.08    6.17
   1  12  -5   94.40    5.20
  -1 -12   4  259.47   10.93
   1 -12  -4  285.58   11.59
   1  12  -4  252.10   10.87
  -1  12   3  174.06    7.45
   1  12  -3  174.50    7.82
  -1 -12   3  179.21    8.01
   1 -12  -3  190.73    8.67
  -1 -12   2   90.30    5.24
   1 -12  -2   93.38    5.65
   1  12  -2   92.68    4.84
  -1  12   2   91.92    4.55
   1  12  -1  124.74    5.89
  -1  12   1  131.88    5.94
   1 -12  -1  140.65    6.80
  -1 -12   1  118.04    6.54
  -1  12   0   15.67    2.39
   1  12   0   13.78    2.14
  -1 -12   0   16.35    3.56
   1 -12   0   17.30    3.19
  -1  12  -1  153.50    7.12
  -1 -12  -1  171.30    7.90
   1  12   1  154.41    6.80
   1 -12   1  159.91    7.32
  -1 -12  -2  171.84    8.06
  -1  12  -2  156.98    7.18
   1 -12   2  157.86    7.29
  -1 -12  -3  172.71    8.20
   1 -12   3  158.23    7.34
  -1  12  -3  166.76    7.50
   1 -12   4  174.11    7.88
  -1 -12  -4  196.64    9.06
  -1  12  -4  193.58    8.33
  -1  12  -5  231.38   10.16
  -1 -12  -5  251.33   10.91
  -1  12  -6  250.03   10.69
  -1  12  -7   48.51    4.09
  -1  12  -8  674.78   25.89
  -1 -12  -9   24.72    4.09
  -1  12  -9   29.08    3.50
  -1 -12 -10   57.97    4.72
  -1 -12 -11   38.92    4.00
  -1  12 -12   10.70    3.14
  -1 -12 -12   22.27    3.45
  -1  12 -13   15.30    2.93
  -1 -12 -13   17.76    3.10
  -1  12 -14    7.90    2.61
  -1 -12 -14    5.41    2.68
  -1  12 -15   28.45    2.84
  -1 -12 -15   27.59    2.82
  -1  12 -16   12.42    2.26
  -1 -12 -16   10.60    2.09
  -1  12 -17   67.34    3.37
  -1 -12 -17   57.23    3.14
  -1 -12 -18   13.95    1.39
  -1  12 -18   14.60    1.62
  -1  12 -19   18.01    1.45
   1  13 -18   18.00    1.36
   1 -13 -17  108.47    4.80
   1  13 -17  119.86    4.86
   1 -13 -16    2.24    1.62
   1  13 -16    4.19    1.61
   1  13 -15  244.23    9.89
   1 -13 -15  251.32    9.98
   1 -13 -14   39.92    3.18
   1 -13 -13  409.04   16.08
   1  13 -12  136.19    6.30
   1 -13 -12  139.44    6.68
   1  13 -11  311.80   12.55
   1  13 -10    9.06    2.63
   1 -13  -9  148.84    7.43
   1  13  -9  153.98    6.97
   1  13  -8    7.64    2.61
   1 -13  -8   10.84    3.53
   1  13  -7   88.03    4.83
   1 -13  -7   99.85    5.84
   1  13  -6   48.64    3.57
   1 -13  -6   58.23    4.57
  -1 -13   5   93.50    4.78
   1 -13  -5  109.09    6.01
   1  13  -5  100.82    5.10
  -1 -13   4  208.87    9.08
   1  13  -4  207.02    9.15
   1 -13  -3   26.94    3.74
   1  13  -3   25.29    2.68
  -1 -13   3   31.34    3.13
  -1  13   2   46.33    2.95
   1  13  -2   52.79    3.34
   1 -13  -2   57.30    4.19
  -1 -13   2   54.53    3.89
  -1  13   1  117.61    5.56
   1  13  -1  119.29    5.60
  -1 -13   1  135.29    6.39
   1 -13  -1  133.80    6.34
  -1 -13   0    2.30    2.99
   1  13   0    6.79    1.78
  -1  13   0    7.64    2.02
   1 -13   0    6.49    2.73
  -1  13  -1   -1.27    2.15
  -1 -13  -1   -3.12    3.21
   1 -13   1    1.33    2.44
   1 -13   2    2.67    2.31
  -1 -13  -2    1.46    3.29
  -1  13  -2    5.07    2.31
   1 -13   3    5.04    2.08
  -1 -13  -3    1.12    3.43
  -1  13  -3    1.76    2.33
  -1  13  -4    2.83    2.30
  -1 -13  -4    3.29    3.44
  -1  13  -5   14.80    2.69
  -1 -13  -5   13.47    3.76
  -1  13  -6   51.76    3.81
  -1 -13  -6   58.02    4.73
  -1  13  -7   20.04    2.96
  -1  13  -8   16.80    2.92
  -1 -13  -9    4.63    3.25
  -1  13  -9    4.72    2.64
  -1  13 -10    0.20    2.43
  -1 -13 -10   -1.35    3.00
  -1 -13 -11   36.72    3.65
  -1 -13 -12   22.40    2.97
  -1  13 -13    0.97    2.08
  -1 -13 -13    0.12    2.27
  -1 -13 -14   72.54    3.81
  -1  13 -14   67.48    3.69
  -1  13 -15   17.73    1.96
  -1 -13 -15   16.86    1.90
  -1  13 -16    3.82    1.37
  -1 -13 -16    4.18    1.30
  -1  13 -17   23.80    1.67
   1  14 -16    7.21    0.93
   1 -14 -15   34.32    2.02
   1 -14 -14   20.73    1.92
   1 -14 -13    9.01    1.94
   1  14 -13   12.18    1.60
   1  14 -12    4.13    1.64
   1 -14 -12    1.73    2.06
   1  14 -11    8.16    1.83
   1  14 -10    3.74    1.77
   1 -14  -9   52.38    3.52
   1  14  -9   44.28    3.00
   1  14  -8    4.55    1.94
   1 -14  -8   14.18    2.80
   1 -14  -7   40.16    3.40
   1  14  -7   30.90    2.65
   1  14  -6    3.94    1.86
   1 -14  -6   10.16    2.85
   1 -14  -5  186.45    8.00
   1  14  -5  173.70    7.50
   1  14  -4    0.90    1.79
  -1 -14   4    3.48    1.70
   1 -14  -4   -1.21    2.71
  -1 -14   3  141.38    6.19
   1 -14  -3  146.77    6.70
   1  14  -3  136.55    6.04
   1 -14  -2    4.67    2.59
  -1 -14   2    6.29    2.25
   1  14  -2    5.88    1.56
  -1 -14   1   59.56    3.79
   1 -14  -1   60.75    3.83
  -1  14   0   58.00    3.18
   1 -14   0   65.19    3.78
  -1 -14   0   69.75    4.10
  -1 -14  -1   32.76    3.25
   1 -14   1   26.70    2.53
  -1  14  -1   30.85    2.32
  -1  14  -2   19.29    2.14
   1 -14   2   17.46    2.03
  -1 -14  -2   22.14    3.14
  -1 -14  -3   37.46    3.48
  -1  14  -3   29.05    2.56
  -1 -14  -4   17.28    3.09
  -1  14  -4   18.48    2.31
  -1 -14  -5    3.18    2.82
  -1  14  -5    5.09    1.99
  -1  14  -6   60.09    3.58
  -1 -14  -6   68.07    4.21
  -1  14  -7    9.56    2.07
  -1 -14  -7    7.64    2.90
  -1  14  -8  124.90    5.65
  -1  14  -9    6.25    2.06
  -1  14 -10  235.65    9.73
  -1 -14 -10  251.17    9.95
  -1  14 -11    6.91    1.77
  -1 -14 -11    8.54    2.15
  -1 -14 -12  112.10    5.05
  -1 -14 -13   20.09    1.86
  -1  14 -14   47.44    2.41
  -1 -14 -14   41.33    2.32
  -1  14 -15    5.42    0.94
   1  15 -12    4.85    0.83
   1  15 -11   19.19    1.37
   1  15 -10    4.90    1.03
   1 -15 -10    3.36    1.44
   1  15  -9   14.26    1.42
   1 -15  -9   15.15    1.80
   1 -15  -8   -0.46    1.66
   1  15  -8    0.28    1.08
   1 -15  -7   12.62    1.96
   1  15  -7    8.17    1.24
   1  15  -6    7.00    1.27
   1 -15  -6    5.98    1.85
   1  15  -5   10.97    1.28
   1 -15  -5    7.97    1.97
   1  15  -4    2.36    1.03
   1 -15  -4   -0.20    1.80
   1 -15  -3   39.87    2.70
   1 -15  -2   17.41    1.99
  -1 -15   2   18.78    1.73
   1 -15  -1   67.72    3.43
  -1 -15   1   72.63    3.50
  -1 -15   0   93.25    4.10
   1 -15   0   78.28    3.79
  -1 -15  -1  137.11    5.97
  -1  15  -2   68.38    3.29
  -1 -15  -2   92.97    3.99
  -1  15  -3   45.49    2.48
  -1 -15  -3   55.90    3.15
  -1  15  -4    4.59    1.22
  -1 -15  -4    6.51    2.03
  -1  15  -5   37.45    2.21
  -1 -15  -5   41.75    2.81
  -1  15  -6   46.73    2.57
  -1 -15  -6   55.00    3.14
  -1  15  -7   83.70    3.87
  -1 -15  -7   94.43    4.28
  -1  15  -8   33.44    2.04
  -1 -15  -8   35.63    2.43
  -1  15  -9   88.97    3.87
  -1  15 -10    7.41    1.11
  -1 -15 -10    8.78    1.48
  -1 -15 -11   36.91    2.00
  -1  15 -11   35.06    1.90
   2   0 -30  329.13   12.73
   2   0 -29   -2.77    2.26
   2   0 -28  621.29   24.00
   2   0 -27   -2.92    3.36
   2   0 -26  366.12   15.44
   2   0 -25   -2.01    4.03
   2   0 -24  350.65   15.42
   2   0 -23    1.70    2.52
   2   0 -23   -2.18    4.30
   2   0 -22   91.76    6.36
   2   0 -22   88.56    5.30
   2   0 -21   -3.73    4.02
   2   0 -21   -1.94    2.80
   2   0 -20   20.80    4.24
   2   0 -20   24.30    3.15
   2   0 -19    0.72    3.38
   2   0 -18   21.26    3.49
   2   0 -17   -1.15    2.84
   2   0 -16   86.90    5.01
   2   0 -15    0.88    2.15
   2   0 -14  100.48    5.25
  -2   0  14  110.53    4.80
   2   0 -13   -0.22    1.67
   2   0 -13    0.55    0.75
   2   0 -12  503.60   18.84
  -2   0  11    0.79    0.65
   2   0 -11    0.20    0.61
  -2   0  10   31.26    1.59
   2   0 -10   32.66    1.72
  -2   0   9   -0.22    0.73
   2   0  -9    0.58    0.66
  -2   0   9    0.16    0.64
   2   0  -8  332.54   12.93
   2   0  -8  353.42   12.91
  -2   0   8  341.24   12.81
  -2   0   8  353.21   12.96
  -2   0   7    1.03    0.58
  -2   0   7    0.19    0.55
   2   0  -7   -0.02    0.52
  -2   0   6   26.52    1.30
  -2   0   6   25.67    1.24
   2   0  -5    0.32    0.51
  -2   0   5    0.02    0.47
  -2   0   5    0.25    0.57
   2   0  -4 9365.54  335.81
  -2   0   4 9353.84  335.82
  -2   0   4 9022.71  335.82
   2   0  -3    0.34    0.38
  -2   0   3    0.37    0.37
   2   0  -3    0.51    0.55
  -2   0   2  578.85   21.14
  -2   0   1    0.33    0.27
   2   0   0   57.19    2.26
  -2   0   0   55.87    2.26
  -2   0  -1    0.84    0.44
  -2   0  -2  520.87   19.14
   2   0   2  523.97   19.04
   2   0   3    0.43    0.26
   2   0   3    0.83    0.41
  -2   0  -3    0.43    0.25
  -2   0  -3    0.44    0.39
  -2   0  -4 3332.34  120.32
   2   0   4 3341.60  120.33
   2   0   4 3273.67  120.32
  -2   0  -4 3301.96  120.33
   2   0   5    1.31    0.40
   2   0   5    0.42    0.34
  -2   0  -5    0.23    0.35
  -2   0  -5    0.96    0.39
  -2   0  -6 3715.08  135.69
   2   0   6 3738.39  135.62
   2   0   6 3746.65  135.71
  -2   0  -7   -0.42    0.46
   2   0   7    0.50    0.36
   2   0   7    0.20    0.47
   2   0   8   91.46    3.54
   2   0   8   87.31    3.71
   2   0   8   92.85    3.53
   2   0   9   -0.06    0.29
   2   0   9    0.49    0.37
   2   0   9   -0.31    0.61
  -2   0  -9   -0.02    0.53
   2   0  10  513.81   19.06
  -2   0 -10  523.14   19.36
   2   0  10  551.24   19.42
  -2   0 -11    0.82    0.58
  -2   0 -11    0.64    1.24
   2   0  11   -0.81    0.70
  -2   0 -12  644.67   23.82
  -2   0 -12  611.54   23.90
   2   0  12  641.23   23.58
  -2   0 -12  630.89   23.50
  -2   0 -13    0.45    1.31
   2   0  13   -0.04    0.76
  -2   0 -13   -0.71    1.61
   2   0  14  151.39    6.25
  -2   0 -14  153.73    6.55
  -2   0 -14  147.79    6.77
  -2   0 -15    0.85    1.59
  -2   0 -15    0.54    2.00
  -2   0 -16   41.76    3.33
  -2   0 -16   35.57    2.84
  -2   0 -17    1.85    1.89
  -2   0 -17    1.62    2.55
  -2   0 -18  420.65   16.90
  -2   0 -18  440.58   17.31
  -2   0 -19   -2.29    2.34
  -2   0 -19    3.47    3.29
  -2   0 -20 1032.29   39.45
  -2   0 -20 1075.69   39.95
  -2   0 -21   -0.39    2.34
  -2   0 -21   -1.41    3.99
  -2   0 -22    3.51    2.26
  -2   0 -22   -1.97    3.91
  -2   0 -23    2.91    2.14
  -2   0 -23   -2.36    3.99
  -2   0 -24    8.47    3.80
  -2   0 -25    2.28    3.32
  -2   0 -26   91.67    5.44
  -2   0 -27    2.75    2.58
  -2   0 -28  201.26    8.44
  -2   0 -29   -3.86    1.56
   2  -1 -30    3.13    1.74
   2  -1 -29    2.19    2.61
   2   1 -29    3.42    1.70
   2   1 -28   40.98    3.23
   2  -1 -28   37.71    3.83
   2   1 -27    5.12    2.84
   2  -1 -27    3.45    3.61
   2  -1 -26    3.77    2.41
   2   1 -26    3.21    3.22
   2  -1 -26   -0.63    4.07
   2  -1 -25  134.26    8.16
   2  -1 -25  140.46    7.01
   2   1 -25  140.92    7.30
   2  -1 -24  231.13   11.88
   2   1 -24  264.34   11.24
   2  -1 -24  241.64   10.97
   2  -1 -23  104.65    6.12
   2   1 -23   99.67    6.45
   2  -1 -23   92.64    7.27
   2   1 -22  852.46   32.51
   2  -1 -22  833.82   32.49
   2  -1 -22  825.04   32.99
   2  -1 -21  160.71    9.07
   2   1 -21  175.59    8.56
   2  -1 -21  166.55    8.52
   2  -1 -20  100.76    6.89
   2   1 -20  108.53    6.31
   2  -1 -19  280.45   11.55
   2   1 -19  284.36   12.30
   2  -1 -19  286.43   12.61
   2  -1 -18   75.56    4.23
   2  -1 -18   75.64    5.29
   2   1 -18   79.65    5.00
   2  -1 -17  558.39   21.39
   2  -1 -17  531.30   22.14
   2   1 -17  580.33   21.95
   2  -1 -16  213.02    8.89
   2   1 -16  225.83    9.38
   2  -1 -16  200.49    9.53
   2  -1 -15  642.71   24.72
   2   1 -15  693.62   25.12
   2  -1 -15  627.17   25.22
   2  -1 -14   36.27    3.09
  -2  -1  14   39.63    2.33
  -2  -1  14   37.72    1.96
   2   1 -14   36.43    2.83
   2  -1 -14   35.07    2.17
   2  -1 -14   38.04    2.01
   2  -1 -13   19.80    1.36
  -2  -1  13   17.05    1.52
  -2   1  13   21.40    1.23
   2   1 -13   21.91    2.11
  -2  -1  13   18.12    1.31
  -2   1  12  574.49   21.05
  -2  -1  12  513.38   21.36
   2  -1 -12  592.63   21.24
  -2  -1  12  585.85   21.16
  -2   1  11   67.25    2.80
   2  -1 -11   70.19    2.96
   2   1 -11   62.82    3.01
  -2  -1  11   65.59    2.90
  -2   1  10  192.13    7.51
  -2   1  10  188.14    7.25
   2  -1 -10  195.14    7.38
   2  -1 -10  177.34    7.44
   2   1 -10  196.16    7.47
  -2  -1  10  194.94    7.34
   2  -1  -9   26.67    1.63
  -2   1   9   30.66    1.65
  -2   1   9   28.29    1.44
   2   1  -9   28.86    1.59
  -2  -1   9   28.91    1.54
  -2   1   8   13.83    1.04
  -2  -1   8   11.01    1.02
   2   1  -8   11.62    1.03
  -2   1   8   12.16    0.87
  -2  -1   8   12.86    1.06
   2  -1  -8   11.25    1.02
   2  -1  -7   32.91    1.62
   2   1  -7   31.63    1.62
  -2   1   7   33.12    1.62
  -2  -1   7   33.04    1.66
  -2   1   7   30.76    1.50
  -2  -1   7   31.52    1.58
   2   1  -6   86.01    3.51
  -2   1   6   82.93    3.37
  -2  -1   6   84.73    3.47
  -2  -1   6   92.14    3.48
  -2   1   6   86.91    3.49
   2  -1  -6   83.86    3.46
   2  -1  -6   83.15    3.40
  -2   1   5 3211.87  116.33
  -2   1   5 3144.63  116.27
  -2  -1   5 3188.25  116.33
  -2  -1   5 3266.88  116.34
   2  -1  -5 3182.53  116.28
   2  -1  -5 3154.94  116.32
   2   1  -5 3268.29  116.38
  -2  -1   4    2.68    0.62
  -2   1   4    3.18    0.52
   2  -1  -4    3.85    0.51
   2  -1  -4    3.57    0.60
  -2  -1   4    4.23    0.56
  -2   1   4    3.52    0.59
   2  -1  -3 2727.36   99.42
  -2   1   3 2766.11   99.44
  -2   1   3 2703.43   99.42
   2  -1  -3 2746.18   99.44
  -2   1   2   63.34    2.49
   2  -1  -2   65.00    2.50
  -2  -1   1   18.00    0.98
  -2   1   1   18.15    0.83
   2  -1  -1   20.05    0.83
  -2  -1   0   71.63    2.68
   2  -1   0   69.10    2.53
  -2   1  -1  459.25   16.94
  -2  -1  -1  453.21   16.89
   2  -1   1  462.07   16.93
  -2  -1  -1  469.77   16.90
   2   1   2   41.21    1.69
  -2   1  -2   42.31    1.78
  -2  -1  -2   41.99    1.72
   2  -1   2   42.22    1.79
   2   1   3 4135.00  149.52
   2  -1   3 4137.70  149.47
  -2  -1  -3 4068.92  149.53
   2  -1   3 4159.28  149.60
  -2   1  -3 4163.15  149.61
  -2  -1  -3 4045.78  149.58
   2   1   3 4107.62  149.58
  -2  -1  -4 3269.63  119.99
  -2   1  -4 3316.46  120.00
   2  -1   4 3296.48  119.99
   2   1   4 3347.68  119.98
   2  -1   4 3339.21  119.89
   2   1   4 3240.45  119.88
  -2  -1  -4 3314.89  119.89
   2   1   5 2369.46   86.66
   2  -1   5 2450.10   86.59
  -2  -1  -5 2364.29   86.51
  -2  -1  -5 2375.17   86.67
  -2   1  -5 2362.95   86.65
   2  -1   5 2369.72   86.64
   2  -1   6   52.21    2.09
  -2  -1  -6   51.04    2.15
   2   1   6   49.69    2.14
   2  -1   6   48.93    2.09
   2  -1   7  543.38   19.56
   2   1   7  550.84   19.66
   2  -1   7  488.48   19.57
  -2  -1  -7  558.04   19.66
  -2  -1  -8  167.26    6.42
   2  -1   8  164.71    6.36
   2  -1   8  163.38    6.28
   2   1   8  170.38    6.43
   2  -1   9  682.34   25.92
   2   1   9  720.85   26.06
   2  -1   9  715.03   25.89
   2  -1   9  716.31   26.02
  -2  -1  -9  700.38   26.05
   2  -1  10  137.25    5.13
   2  -1  10  133.16    4.95
   2  -1  10  123.19    4.98
   2   1  10  122.55    5.15
  -2  -1 -10  124.01    5.14
   2  -1  11 1276.52   46.80
  -2  -1 -11 1288.29   46.83
  -2  -1 -11 1209.43   47.14
   2  -1  11 1294.15   46.56
   2   1  11 1325.44   46.86
  -2   1 -11 1272.80   47.08
   2  -1  11 1238.32   46.60
  -2  -1 -11 1292.98   47.13
  -2  -1 -12  138.73    5.68
   2  -1  12  140.99    5.68
  -2  -1 -12  148.19    6.22
  -2  -1 -12  133.75    5.75
  -2  -1 -12  143.04    6.09
  -2   1 -12  138.61    6.03
   2   1  12  144.24    5.73
   2  -1  12  138.04    5.35
  -2  -1 -13  174.09    7.18
   2   1  13  187.50    7.21
  -2   1 -13  179.06    7.30
  -2   1 -13  177.98    7.53
   2  -1  13  177.33    7.13
  -2  -1 -13  174.87    7.14
  -2  -1 -13  183.51    7.58
  -2  -1 -13  172.11    7.65
  -2   1 -14   51.56    2.80
   2   1  14   50.26    2.60
   2  -1  14   50.36    2.57
  -2  -1 -14   47.80    3.08
  -2  -1 -14   48.93    2.53
  -2  -1 -14   49.28    2.72
  -2  -1 -14   52.70    3.39
  -2   1 -14   45.10    3.05
  -2  -1 -15   39.07    3.36
  -2  -1 -15   36.74    2.46
  -2  -1 -15   38.84    2.89
  -2  -1 -15   37.48    2.19
   2   1  15   38.20    2.27
  -2   1 -15   43.90    3.04
  -2   1 -15   37.34    2.55
  -2   1 -16    2.30    1.63
  -2  -1 -16    6.10    2.20
  -2  -1 -16    4.05    1.63
  -2  -1 -16    2.84    2.50
  -2   1 -16    4.16    2.23
  -2   1 -17    5.88    1.73
  -2   1 -17    7.78    2.54
  -2  -1 -17    6.13    2.35
  -2  -1 -17    8.35    2.93
  -2   1 -18  244.60   10.20
  -2  -1 -18  262.20   10.76
  -2   1 -18  249.38   10.77
  -2  -1 -18  249.03   11.04
  -2   1 -19   14.43    3.22
  -2  -1 -19   15.36    2.96
  -2   1 -19   15.81    2.14
  -2  -1 -19   17.43    3.87
  -2  -1 -20   38.14    3.79
  -2  -1 -20   47.79    4.59
  -2   1 -20   41.80    4.18
  -2  -1 -21  251.24   11.18
  -2   1 -21  238.81   10.62
  -2  -1 -21  232.40   10.40
  -2  -1 -22   14.52    3.04
  -2  -1 -22   13.19    4.31
  -2   1 -22   21.95    3.68
  -2  -1 -23  102.50    5.63
  -2   1 -23  108.71    6.12
  -2  -1 -23  106.39    6.86
  -2   1 -24  105.30    5.80
  -2  -1 -24  102.86    6.59
  -2  -1 -24   97.63    5.26
  -2   1 -25   19.26    3.05
  -2  -1 -25   20.18    4.12
  -2  -1 -25   18.15    2.49
  -2  -1 -26  137.37    7.15
  -2   1 -26  136.64    6.49
  -2  -1 -27   74.24    4.58
  -2   1 -27   75.03    4.11
  -2   1 -28   12.96    1.90
  -2  -1 -28   19.40    2.60
  -2  -1 -29   16.59    2.00
   2  -2 -30   26.46    2.35
   2  -2 -29   -0.62    2.73
   2  -2 -28   25.38    3.68
   2  -2 -27   29.66    3.11
   2   2 -27   23.11    2.63
   2  -2 -27   21.33    4.20
   2  -2 -26    9.18    3.04
   2  -2 -26    9.93    4.35
   2   2 -26   12.20    2.72
   2  -2 -25   -0.11    3.29
   2   2 -25   -0.35    2.63
   2  -2 -25   -1.67    4.59
   2   2 -24    4.59    2.91
   2  -2 -24    4.81    5.18
   2  -2 -24   -0.50    3.68
   2  -2 -23    4.32    5.18
   2  -2 -23    1.46    3.75
   2   2 -23    5.09    2.97
   2  -2 -22  151.45    8.80
   2  -2 -22  144.65    7.00
   2  -2 -22  135.38    8.04
   2   2 -22  162.07    7.56
   2  -2 -21   53.21    3.96
   2  -2 -21   53.37    5.90
   2  -2 -21   49.37    5.18
   2   2 -21   58.44    4.21
   2  -2 -20  144.13    6.94
   2   2 -20  151.13    7.30
   2  -2 -20  134.62    8.20
   2   2 -19    1.54    2.65
   2  -2 -19    3.78    2.59
   2  -2 -19   -0.93    3.51
   2  -2 -18   57.64    4.83
   2  -2 -18   46.89    3.58
   2   2 -18   48.57    3.78
   2  -2 -17   37.46    4.19
   2  -2 -17   43.19    3.34
   2   2 -17   41.42    3.36
   2   2 -16    2.45    2.11
   2  -2 -16    5.39    2.13
   2  -2 -15  123.95    5.85
   2   2 -15  127.75    5.25
   2   2 -15  132.90    5.88
  -2  -2  15  121.01    5.18
  -2  -2  14  244.20    9.97
   2   2 -14  257.72   10.19
   2   2 -14  249.45    9.69
  -2  -2  14  248.89    9.67
  -2   2  13  619.31   22.83
  -2  -2  13  635.55   23.37
   2  -2 -13  633.55   23.08
  -2  -2  13  610.20   23.08
   2   2 -13  597.79   23.07
   2   2 -13  641.23   23.51
  -2  -2  12 2502.54   89.07
   2  -2 -12 2428.72   89.38
   2  -2 -12 2543.85   89.07
  -2   2  12 2419.05   88.84
  -2  -2  12 2446.54   89.32
  -2   2  12 2271.27   89.24
   2  -2 -11  345.60   13.46
  -2   2  11  351.61   13.11
  -2  -2  11  328.33   13.45
  -2   2  11  359.75   13.49
  -2  -2  11  375.41   13.34
  -2   2  10  189.11    7.37
  -2   2  10  186.61    7.07
   2  -2 -10  181.33    7.34
  -2   2   9  850.10   30.73
  -2   2   9  812.18   30.46
   2  -2  -9  850.22   30.73
  -2   2   8  552.83   20.68
   2   2  -8  548.86   20.90
  -2   2   8  570.63   20.89
   2  -2  -8  580.31   20.90
   2  -2  -8  564.26   20.72
  -2   2   7   62.04    2.61
  -2   2   7   63.27    2.78
   2  -2  -7   65.01    2.79
   2  -2  -7   62.58    2.65
   2   2  -7   65.92    2.83
  -2   2   6   61.83    2.58
   2  -2  -6   60.71    2.69
  -2  -2   6   64.89    2.70
   2   2  -6   63.20    2.73
  -2   2   6   61.36    2.68
   2  -2  -6   62.31    2.59
  -2   2   5 1266.80   46.46
   2  -2  -5 1240.56   46.53
  -2   2   5 1316.92   46.55
   2  -2  -4  542.87   20.46
  -2   2   4  563.80   20.44
  -2   2   4  561.66   20.47
  -2   2   3 4172.76  151.96
   2  -2  -3 4233.17  151.96
   2   2  -3 3930.67  152.03
   2  -2  -3 4293.89  151.97
  -2   2   3 4225.45  151.95
  -2   2   2 1502.28   54.71
  -2   2   2 1480.05   54.66
   2  -2  -2 1561.56   54.72
   2  -2  -2 1489.24   54.66
   2   2  -2 1477.94   54.74
   2   2  -1  562.97   19.51
   2  -2  -1  533.75   19.41
  -2   2   1  551.25   19.42
   2   2   0   10.69    0.71
  -2   2   0   10.68    0.63
   2  -2   0   10.37    0.59
  -2  -2   0   10.30    0.72
   2   2   1   79.41    2.98
   2  -2   1   78.33    2.90
  -2  -2  -1   79.90    3.09
  -2   2  -1   74.25    3.06
  -2   2  -2  354.89   13.50
   2  -2   2  363.85   13.49
   2   2   2  365.13   13.38
  -2  -2  -2  363.17   13.51
   2  -2   2  365.47   13.34
  -2  -2  -2  368.05   13.39
   2  -2   3  686.88   25.55
   2   2   3  693.70   25.54
  -2   2  -3  703.99   25.57
  -2  -2  -3  695.68   25.58
  -2  -2  -3  699.65   25.42
  -2   2  -4 2173.09   81.41
  -2  -2  -4 2203.74   81.44
   2  -2   4 2279.67   81.27
   2   2   4 2253.13   81.40
   2  -2   4 2225.16   81.40
   2  -2   5   21.54    1.04
   2  -2   5   24.06    1.25
  -2  -2  -5   21.69    1.23
   2   2   5   22.20    1.20
  -2  -2  -6   40.37    1.95
   2  -2   6   43.16    1.91
   2   2   6   40.91    1.93
   2  -2   6   43.12    1.81
  -2  -2  -7  341.71   13.10
   2   2   7  347.34   13.08
   2  -2   7  361.05   12.99
   2  -2   7  345.03   13.03
  -2  -2  -8  159.94    6.40
   2  -2   8  165.61    6.29
   2   2   8  165.03    6.39
   2  -2   8  162.75    6.31
   2  -2   9  262.61    9.87
   2  -2   9  269.12    9.89
   2   2   9  261.51    9.98
  -2  -2  -9  248.42    9.98
   2   2  10  304.57   11.22
  -2  -2 -10  298.99   11.23
   2  -2  10  297.08   11.11
   2  -2  10  300.88   11.06
  -2  -2 -10  279.51   11.48
  -2  -2 -10  284.52   11.50
   2  -2  10  280.21   11.09
   2  -2  11  223.36    8.86
  -2  -2 -11  237.40    9.00
  -2  -2 -11  226.44    9.32
  -2  -2 -11  228.50    9.33
  -2  -2 -11  220.16    9.04
   2   2  11  231.64    8.97
   2  -2  11  238.74    8.84
   2  -2  11  228.45    8.76
  -2   2 -11  230.50    9.11
   2  -2  12  219.16    8.67
  -2  -2 -12  222.33    8.86
   2  -2  12  232.18    8.63
   2  -2  12  226.14    8.79
  -2  -2 -12  220.36    8.96
  -2   2 -12  229.26    9.06
   2   2  12  239.02    8.92
  -2  -2 -12  208.46    9.24
  -2  -2 -12  226.22    9.28
   2   2  13  123.98    5.27
  -2  -2 -13  123.79    5.42
  -2  -2 -13  121.28    5.23
  -2   2 -13  125.78    5.55
  -2  -2 -13  126.02    5.77
   2  -2  13  123.48    5.18
  -2   2 -14  427.98   16.81
   2   2  14  441.73   16.61
  -2  -2 -14  423.28   16.62
  -2  -2 -14  448.92   17.08
  -2  -2 -14  431.91   16.55
  -2   2 -15   75.34    3.99
  -2  -2 -15   72.85    4.35
  -2  -2 -15   71.65    3.82
  -2  -2 -16  463.71   18.15
  -2  -2 -16  451.95   17.69
  -2   2 -16  461.52   17.90
  -2  -2 -17    4.60    2.69
  -2   2 -17    3.03    2.32
  -2  -2 -17    3.97    1.96
  -2   2 -18  752.55   28.98
  -2  -2 -18  768.77   28.72
  -2  -2 -18  755.97   29.33
  -2  -2 -19  216.60   10.66
  -2   2 -19  221.23    9.99
  -2   2 -20  571.74   22.66
  -2  -2 -20  577.14   23.25
  -2  -2 -20  598.69   23.00
  -2  -2 -21  147.65    8.03
  -2   2 -21  148.08    6.95
  -2  -2 -21  128.77    7.32
  -2  -2 -22   34.25    3.96
  -2  -2 -22   32.50    5.25
  -2   2 -22   36.31    3.60
  -2   2 -23   58.17    4.10
  -2  -2 -23   52.18    5.70
  -2  -2 -23   55.80    4.57
  -2  -2 -24   33.33    4.73
  -2  -2 -24   35.60    3.79
  -2   2 -24   37.91    3.37
  -2  -2 -25    7.80    2.66
  -2  -2 -25    8.38    3.90
  -2   2 -25    6.92    2.33
  -2  -2 -26   18.34    2.48
  -2   2 -26   15.84    2.26
  -2  -2 -26   12.86    3.60
  -2  -2 -27   20.20    2.10
  -2  -2 -27   23.76    3.27
  -2   2 -27   17.67    1.93
  -2  -2 -28   92.59    4.85
  -2  -2 -29    7.86    1.76
   2  -3 -30   24.85    2.23
   2  -3 -29   16.00    2.76
   2  -3 -28   52.84    3.56
   2  -3 -28   64.39    4.48
   2  -3 -27   10.76    2.82
   2  -3 -27    8.32    3.72
   2  -3 -26    9.72    3.53
   2  -3 -26   19.79    4.51
   2  -3 -25   64.84    5.33
   2  -3 -25   68.91    6.28
   2   3 -24   61.43    3.82
   2  -3 -24   52.50    5.14
   2  -3 -24   60.59    4.03
   2  -3 -23   85.77    5.22
   2   3 -23   92.12    4.87
   2  -3 -22   13.23    3.18
   2  -3 -22    8.56    4.54
   2   3 -22   22.04    2.87
   2   3 -21    6.50    2.47
   2  -3 -21    8.60    4.10
   2  -3 -21    5.71    3.14
   2   3 -20   13.17    2.67
   2  -3 -20   16.64    3.35
   2  -3 -19  201.84    9.73
   2   3 -19  234.82    9.55
   2   3 -18   37.06    3.07
   2  -3 -18   33.83    3.47
   2  -3 -17  876.10   33.00
   2   3 -17  891.99   32.83
   2   3 -17  903.87   32.38
   2   3 -16  163.94    6.77
   2  -3 -16  166.86    7.49
   2  -3 -16  160.03    7.94
   2   3 -16  161.86    7.17
   2   3 -15  333.67   12.77
   2   3 -15  333.71   12.45
   2  -3 -15  316.31   12.94
   2  -3 -15  323.89   13.37
  -2  -3  15  303.56   12.37
  -2  -3  14  278.72   11.15
   2   3 -14  291.82   11.43
   2   3 -14  295.52   11.18
   2  -3 -14  282.05   11.95
   2  -3 -13  232.68    9.69
   2  -3 -13  237.50   10.23
   2   3 -13  252.28    9.55
  -2   3  13  234.73    9.69
  -2  -3  13  249.27    9.77
   2   3 -13  250.67    9.75
  -2   3  12  385.69   14.34
  -2  -3  12  398.41   14.87
   2   3 -12  391.28   14.68
  -2   3  12  388.14   14.84
   2  -3 -12  370.44   14.82
  -2  -3  11 1187.40   44.83
   2   3 -11 1206.10   44.71
  -2   3  11 1253.22   44.85
   2  -3 -11 1177.67   44.84
  -2   3  11 1239.60   44.43
   2  -3 -11 1199.55   44.95
   2  -3 -10  164.75    6.60
  -2   3  10  162.89    6.24
   2  -3 -10  161.18    6.74
  -2   3  10  174.02    6.62
  -2  -3  10  150.95    6.55
   2  -3  -9  180.63    7.43
  -2   3   9  189.14    7.15
  -2   3   9  190.57    7.42
   2  -3  -9  188.55    7.19
   2  -3  -8  276.47   10.42
  -2   3   8  280.62   10.41
   2  -3  -8  260.31   10.19
  -2   3   8  273.79   10.18
  -2   3   7   63.28    2.66
   2  -3  -7   62.23    2.67
  -2   3   7   64.38    2.83
   2  -3  -7   62.18    2.82
   2  -3  -6 3146.96  115.38
  -2   3   6 3164.86  115.24
  -2   3   6 3192.68  115.38
   2  -3  -5 2916.61  106.31
  -2   3   5 2918.03  106.30
   2  -3  -5 2921.38  106.22
  -2   3   5 2918.45  106.20
  -2   3   4   22.76    1.20
   2  -3  -4   21.03    1.22
  -2   3   4   20.85    1.21
   2  -3  -4   20.97    1.23
  -2  -3   4   22.59    1.30
   2  -3  -3 2478.77   91.01
   2  -3  -3 2520.47   91.00
  -2   3   3 2493.08   91.00
  -2  -3   3 2525.79   91.08
  -2   3   3 2484.92   90.99
  -2   3   2  470.04   17.43
   2  -3  -2  469.94   17.40
  -2   3   2  477.31   17.41
  -2  -3   2  481.80   17.49
   2  -3  -2  459.65   17.43
  -2  -3   1  393.17   13.99
   2  -3  -1  367.99   13.96
  -2   3   1  378.62   13.92
  -2   3   1  368.44   13.96
   2  -3  -1  372.46   13.90
  -2  -3   0  959.36   35.46
   2  -3   0  971.97   35.33
  -2  -3  -1   62.14    2.63
   2  -3   1   58.69    2.43
  -2   3  -2 1519.91   56.52
   2  -3   2 1539.16   56.52
   2  -3   2 1580.35   56.39
  -2  -3  -2 1532.18   56.58
  -2   3  -3 3079.66  112.61
   2  -3   3 3105.19  112.47
   2   3   3 3117.47  112.60
  -2  -3  -3 3054.40  112.68
   2  -3   3 3096.47  112.61
  -2  -3  -4 4047.97  149.24
   2   3   4 4180.16  149.45
   2  -3   4 4115.82  149.46
  -2  -3  -4 4177.96  149.54
   2   3   5  857.89   31.32
  -2  -3  -5  859.13   31.41
  -2  -3  -5  859.58   31.04
   2  -3   5  883.77   31.33
   2  -3   5  811.25   31.15
   2  -3   6  850.57   30.75
   2  -3   6  824.00   30.60
   2   3   6  855.54   30.77
  -2  -3  -6  816.71   30.81
  -2  -3  -7   48.31    2.38
   2  -3   7   48.41    2.15
   2   3   7   49.39    2.32
   2  -3   7   49.61    2.32
  -2  -3  -8 4084.68  149.36
   2  -3   8 4095.46  149.23
   2  -3   8 4050.05  149.16
   2   3   8 4188.58  149.30
  -2  -3  -9 1005.32   38.79
   2  -3   9 1062.21   38.59
  -2  -3  -9 1039.20   38.78
   2  -3   9 1105.28   38.66
  -2  -3  -9 1008.26   38.91
   2   3   9 1062.82   38.73
   2  -3  10  146.01    6.01
   2  -3  10  159.35    5.99
  -2  -3 -10  142.58    6.32
  -2  -3 -10  141.11    6.17
   2   3  10  146.15    6.05
  -2  -3 -10  152.10    6.13
   2  -3  10  152.18    5.92
  -2  -3 -11  346.79   13.17
  -2  -3 -11  339.27   12.88
  -2  -3 -11  326.57   12.92
   2   3  11  337.22   12.81
   2  -3  11  335.34   12.67
   2  -3  11  338.25   12.68
  -2  -3 -11  327.34   13.19
   2  -3  11  321.14   12.71
   2  -3  12  548.92   20.67
   2  -3  12  566.78   20.71
  -2   3 -12  541.99   20.83
  -2  -3 -12  538.79   21.15
  -2  -3 -12  560.43   20.89
  -2  -3 -12  531.37   20.91
   2  -3  12  563.44   20.64
   2   3  12  572.22   20.85
  -2  -3 -12  532.82   21.19
  -2  -3 -13   99.83    4.71
  -2  -3 -13  109.13    5.31
  -2   3 -13  106.57    4.86
  -2  -3 -13  107.62    5.42
   2   3  13  110.76    4.74
   2  -3  13  105.71    4.58
  -2  -3 -13  108.76    4.98
  -2   3 -14  690.58   25.41
  -2  -3 -14  656.41   25.85
  -2  -3 -14  681.06   25.48
  -2  -3 -14  656.17   25.76
  -2  -3 -15  222.67    8.93
  -2  -3 -15  205.26    9.29
  -2   3 -15  208.05    8.82
  -2  -3 -15  211.15    9.39
  -2  -3 -16    5.03    2.91
  -2   3 -16    3.83    1.91
  -2  -3 -16    5.58    2.21
  -2  -3 -16    6.68    2.84
  -2  -3 -17   55.70    4.62
  -2  -3 -17   56.32    3.90
  -2   3 -17   57.31    3.65
  -2  -3 -17   58.64    4.75
  -2  -3 -18   24.82    4.24
  -2  -3 -18   30.02    3.95
  -2  -3 -18   31.26    2.97
  -2   3 -18   24.27    2.72
  -2  -3 -19  110.71    6.53
  -2  -3 -19  115.27    5.68
  -2   3 -19  106.42    5.50
  -2  -3 -20    7.41    3.69
  -2   3 -20    2.61    2.36
  -2  -3 -21   37.64    4.97
  -2   3 -21   56.12    3.68
  -2   3 -22  114.52    5.54
  -2  -3 -22   98.96    6.77
  -2   3 -23  107.10    5.15
  -2  -3 -23   92.91    6.27
  -2  -3 -24    2.86    3.34
  -2   3 -24    4.19    1.98
  -2  -3 -25   32.27    3.69
  -2  -3 -26   51.18    4.66
  -2  -3 -26   55.05    3.82
  -2  -3 -27   66.19    3.83
  -2  -3 -27   77.72    4.63
  -2  -3 -28   11.84    2.39
  -2  -3 -29   36.67    2.51
   2  -4 -29   90.67    4.18
   2  -4 -28   67.53    3.99
   2  -4 -27   82.62    4.96
   2  -4 -26   74.33    5.22
   2  -4 -25   78.21    4.56
   2  -4 -25   73.65    5.69
   2  -4 -24  356.32   15.52
   2  -4 -24  356.67   14.58
   2  -4 -23    7.97    5.08
   2  -4 -23    7.74    4.60
   2  -4 -23    3.53    3.29
   2  -4 -22   40.45    5.55
   2  -4 -22   45.66    5.71
   2  -4 -22   45.08    4.33
   2  -4 -21  195.31    8.95
   2  -4 -21  177.48   10.02
   2  -4 -21  188.51   10.02
   2  -4 -20    8.29    4.18
   2  -4 -20    6.06    3.54
   2  -4 -19  707.60   27.98
   2  -4 -19  721.84   27.46
   2   4 -19  702.37   26.66
   2  -4 -18   71.56    4.95
   2  -4 -18   64.58    5.38
   2   4 -18   77.09    3.84
   2  -4 -17    5.42    3.25
   2   4 -17    4.34    1.70
   2  -4 -17    3.33    2.86
   2  -4 -16  101.80    5.77
   2   4 -16  114.40    5.05
   2  -4 -16  112.37    6.16
   2  -4 -15   11.17    2.66
   2  -4 -15    9.40    2.91
   2   4 -15   10.62    1.59
   2  -4 -14    7.64    2.26
   2  -4 -14    8.46    2.44
   2   4 -14    7.26    1.54
   2  -4 -13    6.03    2.14
   2   4 -13    3.93    1.24
   2  -4 -12  524.46   20.09
   2   4 -12  537.10   19.62
   2  -4 -12  496.99   19.75
  -2   4  12  521.40   19.74
  -2  -4  12  518.01   19.76
   2   4 -11   12.34    1.37
  -2   4  11   10.52    1.27
  -2   4  11    9.59    0.88
  -2  -4  11   12.57    1.30
   2  -4 -11   10.93    1.30
  -2   4  10  158.02    6.67
   2   4 -10  162.44    6.62
  -2  -4  10  169.23    6.73
  -2   4  10  166.10    6.32
   2  -4 -10  158.68    6.71
   2  -4 -10  164.04    6.38
  -2   4   9  421.85   15.84
  -2   4   9  447.61   16.20
   2  -4  -9  428.60   15.88
   2   4  -9  421.65   16.08
  -2  -4   9  420.56   16.15
   2  -4  -9  422.50   16.18
  -2   4   8   82.34    3.55
  -2   4   8   75.63    3.25
   2  -4  -8   75.73    3.52
   2  -4  -8   81.68    3.31
  -2   4   7  298.50   11.41
   2  -4  -7  307.67   11.64
  -2   4   7  309.08   11.62
   2  -4  -6   12.64    1.07
  -2   4   6   12.92    1.01
  -2   4   6   12.52    1.17
   2  -4  -6   14.42    1.21
  -2   4   5   65.04    2.75
  -2   4   5   62.30    2.84
   2  -4  -5   60.60    2.81
   2  -4  -5   64.78    2.76
  -2  -4   5   64.71    2.92
  -2  -4   4   17.32    1.18
   2  -4  -4   16.72    1.13
  -2   4   4   13.74    1.08
  -2   4   4   13.03    1.07
   2  -4  -4   13.91    1.12
  -2   4   3   52.94    2.39
  -2   4   3   53.54    2.38
   2  -4  -3   51.93    2.40
  -2  -4   3   53.95    2.47
   2  -4  -3   53.55    2.39
   2  -4  -2   82.02    3.54
  -2  -4   2   93.20    3.63
  -2   4   2   84.54    3.51
  -2   4   2   83.66    3.53
   2  -4  -2   85.00    3.52
  -2  -4   1  225.94    9.20
  -2   4   1  241.40    9.16
   2  -4  -1  247.17    9.17
   2  -4  -1  235.43    9.11
  -2  -4   1  255.18    9.20
  -2   4   0   59.47    2.63
  -2  -4   0   57.08    2.68
  -2  -4   0   62.72    2.59
   2  -4   0   57.70    2.50
   2  -4   0   56.07    2.62
  -2  -4  -1 2450.71   88.35
   2  -4   1 2414.01   88.31
  -2  -4  -1 2405.60   88.49
  -2  -4  -2  982.97   35.57
   2  -4   2  965.32   35.57
  -2  -4  -2  961.61   35.78
  -2  -4  -3   16.02    1.26
   2  -4   3   19.43    1.35
   2  -4   3   17.32    1.03
   2   4   4  180.76    6.96
   2  -4   4  183.77    6.81
   2  -4   4  172.38    6.97
  -2  -4  -4  170.68    7.06
   2  -4   5    7.12    0.71
   2  -4   5    7.48    1.09
  -2  -4  -5    6.54    0.61
  -2  -4  -5    5.49    1.02
   2   4   5    8.96    0.94
  -2  -4  -6  410.31   15.72
  -2  -4  -6  433.46   15.73
   2  -4   6  446.73   16.15
  -2  -4  -6  448.21   16.30
   2   4   6  462.51   16.16
   2  -4   7   30.45    1.79
   2  -4   7   27.75    1.48
   2   4   7   30.21    1.72
  -2  -4  -7   27.97    1.75
   2  -4   8   20.41    1.27
   2  -4   8   24.35    1.59
  -2  -4  -8   21.68    1.57
  -2  -4  -8   20.76    1.83
   2   4   8   21.20    1.50
  -2  -4  -9   -0.42    1.40
   2  -4   9    0.50    0.97
  -2   4  -9    0.93    0.87
  -2  -4  -9    0.47    1.20
   2  -4   9    0.13    0.59
   2   4   9    0.39    0.75
  -2  -4  -9    0.78    0.95
  -2  -4  -9   -0.05    1.22
  -2   4 -10  322.60   12.63
   2  -4  10  318.29   12.60
   2   4  10  343.05   12.73
  -2  -4 -10  319.11   12.81
   2  -4  10  327.60   12.53
  -2  -4 -10  342.70   13.10
  -2  -4 -10  337.56   12.85
  -2  -4 -10  338.35   12.94
   2  -4  11  431.23   17.38
   2   4  11  477.43   17.45
  -2  -4 -11  466.99   17.56
  -2   4 -11  461.17   17.34
   2  -4  11  472.37   17.33
   2  -4  11  456.17   17.26
  -2  -4 -11  454.99   17.56
  -2  -4 -11  468.29   17.69
  -2  -4 -11  431.25   17.77
  -2  -4 -12   23.99    2.34
   2  -4  12   25.12    1.70
  -2   4 -12   21.58    1.72
   2   4  12   20.58    1.66
  -2  -4 -12   25.40    1.87
  -2  -4 -12   22.56    2.31
   2  -4  12   21.66    1.54
   2  -4  12   22.56    1.65
  -2  -4 -13  154.37    6.79
  -2  -4 -13  156.24    6.99
  -2   4 -13  152.03    6.36
  -2  -4 -14   38.86    3.06
  -2   4 -14   32.65    2.21
  -2  -4 -14   36.31    3.16
  -2  -4 -15   10.66    2.56
  -2  -4 -15   11.03    3.02
  -2  -4 -15   12.11    2.75
  -2  -4 -16   31.32    3.84
  -2  -4 -16   28.57    3.54
  -2  -4 -16   30.70    3.10
  -2  -4 -17    7.90    3.40
  -2  -4 -17    8.15    3.37
  -2  -4 -17    6.50    2.87
  -2  -4 -18   39.02    4.60
  -2  -4 -18   33.94    3.45
  -2  -4 -18   41.86    4.32
  -2  -4 -19  156.11    8.02
  -2  -4 -19  140.92    7.32
  -2  -4 -19  156.45    8.24
  -2  -4 -20   13.58    4.36
  -2  -4 -20   13.22    4.37
  -2  -4 -21   87.20    6.30
  -2  -4 -21   76.72    6.37
  -2  -4 -22    7.57    4.60
  -2  -4 -22   -3.73    4.46
  -2  -4 -23   50.30    5.07
  -2  -4 -23   52.72    5.41
  -2  -4 -24    0.41    3.50
  -2  -4 -24   -1.53    4.05
  -2  -4 -25   96.97    5.79
  -2  -4 -25   83.24    5.35
  -2  -4 -26   15.94    2.80
  -2  -4 -27   25.06    2.57
  -2  -4 -28    1.89    1.38
   2  -5 -29    5.15    1.29
   2  -5 -29    6.51    1.61
   2  -5 -28   20.50    2.43
   2  -5 -28   27.88    2.82
   2  -5 -27   33.98    3.39
   2  -5 -27   37.24    3.48
   2  -5 -26  110.45    5.48
   2  -5 -26  120.57    6.19
   2  -5 -26  113.48    6.31
   2  -5 -25   18.99    4.06
   2  -5 -25   13.36    2.95
   2  -5 -25   18.86    4.03
   2  -5 -24   10.20    4.50
   2  -5 -24   18.46    3.53
   2  -5 -24   15.21    4.13
   2  -5 -23    4.55    4.76
   2  -5 -23    3.01    3.27
   2  -5 -23    7.13    4.25
   2  -5 -22   25.48    5.05
   2  -5 -22   31.30    4.11
   2  -5 -22   24.80    5.12
   2  -5 -21   32.71    4.95
   2  -5 -21   40.05    4.60
   2  -5 -21   34.39    5.62
   2   5 -20  108.10    5.24
   2  -5 -20  107.42    7.06
   2  -5 -20  125.04    6.75
   2  -5 -19  144.12    8.35
   2  -5 -19  156.70    8.14
   2   5 -19  164.69    7.00
   2  -5 -18  160.57    7.89
   2  -5 -18  152.76    8.22
   2   5 -18  159.13    6.96
   2  -5 -17    2.86    3.28
   2   5 -17    3.45    1.89
   2  -5 -17    5.03    3.34
   2   5 -16 1403.52   51.07
   2  -5 -16 1383.28   51.53
   2  -5 -16 1333.70   51.72
   2  -5 -15  206.43    9.66
   2  -5 -15  212.93    9.53
   2   5 -15  229.94    9.04
   2  -5 -14 1726.62   66.30
   2  -5 -14 1762.50   66.15
   2   5 -14 1849.76   65.85
   2  -5 -13   92.49    5.27
   2  -5 -13  101.40    5.30
   2   5 -12 1133.44   41.66
   2  -5 -12 1111.54   42.01
   2  -5 -11   86.72    4.37
   2   5 -11   83.40    3.97
   2  -5 -10  509.52   19.71
  -2   5  10  512.58   19.67
   2   5 -10  519.60   19.61
   2  -5 -10  516.21   19.85
   2  -5 -10  542.52   19.34
  -2  -5  10  494.30   19.67
  -2   5  10  519.99   19.25
  -2   5   9  170.76    6.49
   2   5  -9  167.18    6.77
  -2   5   9  165.39    6.82
   2  -5  -9  159.64    6.82
  -2  -5   9  165.00    6.83
   2  -5  -9  165.27    6.52
   2   5  -8 1944.25   69.96
   2  -5  -8 1941.16   70.09
   2  -5  -8 1923.74   70.06
  -2  -5   8 1727.85   70.00
  -2   5   8 1972.77   69.73
  -2   5   8 1909.32   70.00
   2  -5  -7  854.46   31.71
  -2   5   7  866.89   31.70
   2  -5  -7  848.73   31.95
  -2   5   7  875.40   31.92
   2  -5  -7  858.76   31.99
  -2  -5   6 1254.91   48.25
  -2   5   6 1349.21   48.20
  -2   5   6 1318.41   48.02
   2  -5  -6 1289.87   48.21
   2  -5  -6 1328.42   48.04
  -2   5   5   57.01    2.71
  -2  -5   5   60.31    2.85
   2  -5  -5   59.53    2.75
   2  -5  -5   56.92    2.65
  -2   5   5   55.55    2.64
  -2   5   4  806.39   29.99
   2  -5  -4  803.17   29.93
  -2   5   4  817.04   29.92
   2  -5  -4  813.80   30.02
  -2  -5   4  818.45   30.09
  -2  -5   3    7.27    1.04
  -2   5   3    6.87    0.87
   2  -5  -3    6.99    0.98
  -2   5   3    7.09    1.02
  -2  -5   3    6.66    0.94
   2  -5  -3    6.35    1.00
  -2   5   2  470.50   17.22
   2  -5  -2  464.19   17.24
   2  -5  -2  466.22   17.24
  -2  -5   2  478.93   17.31
  -2  -5   2  423.44   17.28
  -2  -5   1 1159.31   43.90
   2  -5  -1 1206.09   43.82
   2  -5  -1 1183.12   43.80
  -2  -5   1 1224.36   43.87
  -2  -5   0  158.05    6.40
   2  -5   0  160.29    6.32
   2  -5   0  155.78    6.22
  -2  -5   0  160.35    6.28
   2  -5   1  306.20   11.83
  -2  -5  -1  313.74   11.93
  -2  -5  -1  313.09   11.75
   2  -5   1  309.85   11.73
   2  -5   2  490.90   18.00
  -2  -5  -2  473.73   17.97
  -2  -5  -2  487.42   18.22
   2  -5   3  807.79   29.97
  -2  -5  -3  816.34   30.25
  -2  -5  -3  842.70   29.94
  -2  -5  -3  792.55   29.89
   2  -5   4 1617.45   60.34
   2  -5   4 1662.94   60.20
  -2  -5  -4 1652.15   60.08
  -2  -5  -4 1653.17   60.10
  -2  -5  -4 1631.05   60.49
  -2  -5  -5  373.63   14.25
   2  -5   5  392.01   14.62
  -2  -5  -5  384.99   14.76
  -2   5  -5  394.25   14.61
   2  -5   5  391.23   14.44
   2   5   6   36.47    2.11
  -2  -5  -6   38.89    1.69
   2  -5   6   44.77    2.23
  -2  -5  -6   37.28    2.27
  -2  -5  -6   37.42    2.22
   2  -5   6   35.98    1.87
  -2  -5  -6   37.96    2.22
  -2   5  -6   39.44    2.16
   2  -5   7  809.29   28.25
  -2  -5  -7  795.89   28.50
   2  -5   7  805.30   28.22
  -2  -5  -7  708.79   27.83
   2  -5   7  859.37   28.46
  -2  -5  -7  814.31   28.50
  -2  -5  -7  851.19   28.68
  -2   5  -7  849.58   28.46
  -2  -5  -7  845.29   28.65
  -2  -5  -7  711.87   27.84
   2   5   7  829.34   28.45
  -2  -5  -8  607.54   22.10
   2   5   8  584.40   21.86
  -2   5  -8  599.88   21.88
  -2  -5  -8  572.86   21.95
  -2  -5  -8  602.02   22.14
   2  -5   8  567.61   21.67
   2  -5   8  572.60   21.82
  -2  -5  -8  578.17   21.89
  -2  -5  -8  570.61   21.92
   2  -5   9  824.75   31.28
   2   5   9  840.53   31.48
   2  -5   9  849.71   31.43
  -2  -5  -9  849.64   31.55
  -2  -5  -9  811.66   31.50
  -2   5  -9  865.45   31.47
  -2  -5  -9  861.26   31.77
  -2  -5  -9  885.97   31.74
  -2  -5 -10  213.73    8.63
   2   5  10  207.90    8.47
   2  -5  10  205.47    8.41
  -2  -5 -10  213.33    8.71
  -2  -5 -10  200.10    8.50
   2  -5  10  213.56    8.29
  -2   5 -10  218.10    8.47
  -2  -5 -10  208.26    8.86
  -2  -5 -11  194.90    7.92
   2  -5  11  183.11    7.56
  -2  -5 -11  183.99    7.88
   2  -5  11  170.33    7.62
  -2   5 -11  194.56    7.66
  -2  -5 -11  184.06    7.66
  -2  -5 -11  195.03    8.21
  -2  -5 -12  406.29   15.81
  -2   5 -12  407.44   15.53
  -2  -5 -12  389.43   15.53
  -2  -5 -12  407.30   16.13
  -2  -5 -12  409.94   15.85
  -2  -5 -13    4.73    2.59
  -2   5 -13    5.99    1.58
  -2  -5 -13    5.71    2.35
  -2  -5 -13    4.04    1.55
  -2  -5 -13    3.75    2.12
  -2  -5 -14  152.63    6.85
  -2  -5 -14  143.93    6.77
  -2   5 -14  136.40    6.17
  -2   5 -15    3.35    1.53
  -2  -5 -15    6.45    2.98
  -2  -5 -15    6.89    2.78
  -2   5 -16  133.01    5.91
  -2  -5 -16  136.66    7.02
  -2  -5 -16  137.79    6.86
  -2  -5 -17    3.12    3.29
  -2  -5 -17    1.82    3.11
  -2  -5 -18  202.15    9.14
  -2  -5 -18  187.33    9.66
  -2  -5 -18  194.48    9.33
  -2  -5 -19  103.86    6.39
  -2  -5 -19   99.49    6.84
  -2  -5 -19  102.06    6.12
  -2  -5 -20  197.88    9.65
  -2  -5 -20  192.32    9.95
  -2  -5 -21   17.06    5.06
  -2  -5 -21   18.11    4.37
  -2  -5 -22  342.34   14.37
  -2  -5 -22  333.85   14.73
  -2  -5 -23   -0.32    4.22
  -2  -5 -23    0.98    3.83
  -2  -5 -24  404.65   16.64
  -2  -5 -24  412.47   16.57
  -2  -5 -25    6.57    3.16
  -2  -5 -25    8.46    3.15
  -2  -5 -26  275.72   10.99
  -2  -5 -26  256.77   10.94
  -2  -5 -27   43.60    2.91
  -2  -5 -27   39.01    2.81
  -2  -5 -28    9.81    1.53
  -2  -5 -28    6.00    1.28
   2  -6 -28   35.16    2.42
   2  -6 -28   33.00    2.45
   2  -6 -27    5.75    2.22
   2  -6 -27    5.96    2.34
   2  -6 -26   17.72    3.17
   2  -6 -26   13.71    2.35
   2  -6 -26   13.45    2.69
   2  -6 -25    4.92    3.47
   2  -6 -25    2.37    2.69
   2  -6 -25    4.15    3.05
   2  -6 -24    0.43    3.86
   2  -6 -24    1.88    3.22
   2  -6 -24    2.24    2.95
   2  -6 -23   31.08    3.77
   2  -6 -23   30.63    4.10
   2  -6 -23   27.05    4.75
   2  -6 -22   14.44    4.70
   2  -6 -22    4.33    3.80
   2  -6 -22   10.73    4.05
   2  -6 -21   20.60    4.38
   2   6 -21   25.76    2.53
   2  -6 -21   25.76    4.27
   2  -6 -21   17.91    5.45
   2  -6 -20    8.41    3.95
   2   6 -20    6.02    2.14
   2  -6 -20    2.98    4.02
   2   6 -19   74.73    4.21
   2  -6 -19   73.10    5.58
   2  -6 -19   75.83    5.62
   2  -6 -18   14.89    4.03
   2   6 -18   20.32    2.68
   2  -6 -18   14.98    3.70
   2   6 -17  479.74   18.74
   2  -6 -17  473.00   19.37
   2  -6 -17  499.20   19.42
   2   6 -16    2.70    2.19
   2  -6 -16    0.46    3.41
   2  -6 -16    1.01    2.97
   2   6 -15  302.30   11.90
   2  -6 -15  281.24   12.26
   2  -6 -15  292.54   12.30
   2   6 -14  270.78   10.82
   2  -6 -14  257.89   11.17
   2  -6 -13  132.74    6.47
   2   6 -13  135.93    6.10
   2   6 -12  265.13   10.51
   2  -6 -12  252.32   10.75
   2  -6 -11   84.66    4.30
   2  -6 -11   78.87    4.43
   2   6 -11   80.96    4.10
   2   6 -10  350.40   13.55
   2  -6 -10  345.48   13.71
  -2  -6   9   39.88    2.17
   2   6  -9   38.05    2.42
  -2   6   9   38.59    2.38
   2  -6  -9   41.92    2.46
   2  -6  -9   42.84    2.64
   2  -6  -8   35.24    2.19
  -2   6   8   31.41    2.07
  -2  -6   8   33.26    1.94
   2  -6  -8   36.85    2.25
  -2   6   7   30.85    1.91
   2  -6  -7   28.82    1.83
  -2  -6   7   28.83    2.04
  -2  -6   7   30.27    1.83
   2  -6  -7   29.29    1.95
   2  -6  -6  350.60   14.06
   2  -6  -6  368.49   13.88
   2   6  -6  374.71   14.03
  -2   6   6  369.39   14.03
  -2  -6   6  385.40   14.20
  -2  -6   6  352.33   13.94
  -2  -6   5   51.91    2.69
   2   6  -5   49.51    2.57
   2  -6  -5   46.97    2.58
  -2   6   5   49.55    2.55
  -2  -6   5   49.64    2.57
   2  -6  -5   50.38    2.49
  -2   6   4  209.85    8.21
   2   6  -4  206.99    8.19
  -2  -6   4  210.29    8.33
   2  -6  -4  203.93    8.24
   2  -6  -4  212.55    8.17
  -2  -6   4  201.18    8.23
   2  -6  -3  330.57   13.03
  -2  -6   3  331.03   13.05
   2  -6  -3  348.74   12.99
  -2  -6   3  361.55   13.15
   2   6  -3  334.59   12.99
  -2  -6   2   51.69    2.61
   2  -6  -2   53.06    2.56
   2  -6  -2   54.83    2.62
  -2  -6   2   44.39    2.59
  -2  -6   2   51.93    2.68
   2  -6  -1  223.49    8.55
  -2  -6   1  223.85    8.68
  -2  -6   1  216.83    8.56
   2  -6  -1  220.48    8.57
  -2  -6   1  202.84    8.61
   2  -6   0  117.93    4.83
  -2  -6   0  114.35    4.89
  -2  -6   0  114.23    4.75
  -2   6   0  107.54    4.75
   2  -6   0  113.09    4.72
  -2  -6   0  111.07    4.89
  -2  -6  -1  602.44   22.13
  -2   6  -1  596.99   22.18
  -2  -6  -1  593.24   22.07
   2  -6   1  619.20   22.23
  -2  -6  -1  586.56   22.32
   2  -6   1  565.31   22.10
  -2  -6  -2  164.18    6.54
  -2  -6  -2  164.52    6.58
   2  -6   2  171.95    6.79
   2  -6   2  167.68    6.62
  -2  -6  -2  167.75    6.86
  -2   6  -2  161.19    6.72
  -2  -6  -3    1.21    1.00
  -2   6  -3   -0.58    0.98
   2  -6   3    0.62    0.80
  -2  -6  -3   -0.20    0.81
  -2  -6  -3    0.88    0.99
  -2  -6  -3    1.32    1.21
  -2  -6  -3    0.03    0.60
   2  -6   4   18.00    1.30
  -2  -6  -4   19.30    1.58
  -2  -6  -4   16.06    1.56
  -2  -6  -4   19.18    1.19
  -2  -6  -4   17.77    1.22
  -2  -6  -4   14.20    1.63
  -2  -6  -5  375.99   14.61
  -2   6  -5  386.52   14.52
   2  -6   5  380.00   14.33
   2  -6   5  385.44   14.53
  -2  -6  -5  368.83   14.53
  -2  -6  -5  381.63   14.71
  -2  -6  -5  370.33   14.48
  -2  -6  -5  380.74   14.14
   2  -6   6  577.00   21.03
  -2  -6  -6  551.89   21.42
  -2  -6  -6  558.51   21.24
   2  -6   6  565.40   21.22
  -2  -6  -6  541.54   20.74
  -2  -6  -6  569.62   21.31
  -2  -6  -6  575.93   21.34
  -2   6  -6  591.57   21.24
  -2  -6  -7   21.05    2.03
  -2   6  -7   21.17    1.80
   2  -6   7   20.88    1.42
  -2  -6  -7   19.59    1.92
  -2  -6  -7   20.40    1.79
  -2  -6  -7   21.33    1.96
   2  -6   7   19.77    1.73
   2  -6   8   44.45    2.36
   2   6   8   48.79    2.60
  -2   6  -8   48.87    2.76
  -2  -6  -8   48.81    2.96
   2  -6   8   47.07    2.66
  -2  -6  -8   48.32    2.62
  -2  -6  -8   45.19    2.93
   2  -6   8   41.89    2.38
  -2  -6  -8   50.27    2.93
  -2  -6  -8   52.89    2.90
  -2  -6  -9    8.76    1.56
  -2  -6  -9    9.70    1.93
  -2   6  -9    8.80    1.67
  -2  -6  -9    7.86    1.96
  -2  -6  -9    9.25    1.75
  -2   6 -10   40.88    2.65
  -2  -6 -10   41.99    3.06
  -2  -6 -10   39.55    3.22
  -2  -6 -10   41.42    2.76
  -2  -6 -10   43.32    2.71
  -2  -6 -11  295.61   11.69
  -2   6 -11  291.59   11.58
  -2  -6 -11  284.46   11.62
  -2  -6 -11  295.16   12.09
  -2   6 -12   45.58    2.96
  -2  -6 -12   35.95    3.64
  -2  -6 -12   44.16    2.99
  -2  -6 -12   40.96    3.06
  -2  -6 -13  121.16    5.85
  -2  -6 -13  119.17    5.63
  -2  -6 -13  120.81    6.38
  -2   6 -13  121.25    5.58
  -2  -6 -14   54.67    3.37
  -2  -6 -14   51.27    4.18
  -2  -6 -14   59.23    3.85
  -2  -6 -14   54.23    4.45
  -2   6 -14   51.65    3.29
  -2  -6 -15  127.58    6.42
  -2  -6 -15  125.01    6.69
  -2   6 -15  130.43    5.93
  -2  -6 -15  129.86    7.06
  -2  -6 -16   51.17    4.96
  -2   6 -16   50.09    3.30
  -2  -6 -16   50.39    4.65
  -2  -6 -16   54.57    4.19
  -2   6 -17  288.71   12.03
  -2  -6 -17  310.36   12.77
  -2  -6 -17  317.11   12.93
  -2  -6 -18   29.62    4.39
  -2   6 -18   22.64    2.39
  -2  -6 -18   22.94    3.79
  -2  -6 -19  232.83   10.74
  -2  -6 -19  248.60   10.97
  -2  -6 -20    2.96    3.63
  -2  -6 -21  301.22   12.68
  -2  -6 -21  287.51   13.22
  -2  -6 -22   18.94    3.72
  -2  -6 -22   18.74    4.52
  -2  -6 -23  219.13    9.53
  -2  -6 -23  210.39    9.91
  -2  -6 -24   41.54    4.12
  -2  -6 -24   41.17    3.57
  -2  -6 -25    6.85    2.35
  -2  -6 -25    8.77    2.77
  -2  -6 -26   44.53    2.91
  -2  -6 -26   44.01    3.19
  -2  -6 -27   17.21    1.70
  -2  -6 -27   13.39    1.75
   2  -7 -28   20.67    1.63
   2  -7 -27   12.10    1.99
   2  -7 -27   11.02    1.58
   2  -7 -26    5.36    2.25
   2  -7 -26   -0.05    1.86
   2  -7 -25    3.45    2.88
   2  -7 -25    5.79    2.44
   2  -7 -25    5.52    2.18
   2  -7 -24   25.59    3.14
   2  -7 -24   29.32    3.39
   2  -7 -23   54.13    4.29
   2  -7 -23   50.26    4.05
   2  -7 -22   26.54    3.89
   2   7 -22   26.82    2.40
   2  -7 -22   29.49    3.73
   2  -7 -21  142.35    6.74
   2   7 -21  128.66    5.85
   2  -7 -21  138.43    7.12
   2  -7 -20  196.29   10.68
   2   7 -20  216.48    9.12
   2  -7 -20  218.24   10.17
   2  -7 -20  227.34    9.96
   2   7 -19  239.94   10.03
   2  -7 -19  244.03   10.56
   2  -7 -19  236.46   10.77
   2  -7 -19  223.82   11.37
   2  -7 -18  106.98    6.73
   2  -7 -18  109.21    6.24
   2   7 -18  109.31    5.53
   2   7 -17   29.54    3.00
   2  -7 -17   22.72    3.55
   2  -7 -17   24.49    4.32
   2   7 -16  143.73    6.72
   2  -7 -16  137.29    7.09
   2   7 -15   93.81    5.17
   2  -7 -15   99.46    5.46
   2   7 -14   66.79    4.19
   2  -7 -14   68.11    4.35
   2   7 -13  105.32    5.44
   2  -7 -13  112.69    5.99
   2  -7 -13  110.42    5.57
   2  -7 -12    3.72    2.68
   2  -7 -12    1.84    2.05
   2   7 -12    4.04    2.13
   2   7 -11  148.63    6.67
   2  -7 -11  153.94    7.05
   2  -7 -11  148.54    6.67
   2   7 -10   99.50    4.73
   2  -7 -10   94.94    4.93
   2  -7 -10   88.26    4.56
   2  -7  -9  169.99    7.12
  -2  -7   9  153.76    6.55
   2  -7  -8  299.45   11.75
  -2  -7   8  288.07   11.39
  -2  -7   7   42.46    2.46
   2   7  -7   41.73    2.67
   2  -7  -7   43.25    2.86
   2  -7  -7   42.88    2.35
  -2   7   6  591.81   22.35
   2  -7  -6  615.86   22.43
   2   7  -6  617.91   22.35
   2  -7  -6  578.15   22.15
   2  -7  -6  563.46   22.41
  -2  -7   6  590.33   22.29
  -2   7   5    2.64    0.92
   2  -7  -5    2.19    1.03
   2  -7  -5    1.57    0.98
  -2  -7   5    2.02    1.37
  -2  -7   5    3.36    1.07
   2   7  -5    1.16    1.28
   2  -7  -4  649.78   24.40
  -2  -7   4  625.67   24.43
   2  -7  -4  677.35   24.28
  -2  -7   4  630.93   24.34
  -2   7   4  649.33   24.22
   2   7  -4  653.10   24.31
  -2  -7   3  408.73   15.50
   2   7  -3  402.78   15.44
  -2  -7   3  413.37   15.59
   2  -7  -3  421.90   15.44
  -2  -7   3  407.58   15.54
   2  -7  -3  367.35   15.46
  -2   7   3  412.44   15.41
  -2  -7   2  486.67   19.17
   2   7  -2  495.41   19.06
  -2   7   2  496.89   19.08
   2  -7  -2  521.69   19.20
   2  -7  -2  526.45   19.14
  -2  -7   2  502.30   19.22
  -2  -7   2  515.01   19.13
  -2  -7   1  286.52   11.07
   2   7  -1  282.25   10.94
   2  -7  -1  289.21   11.05
  -2  -7   1  294.68   11.18
  -2  -7   1  289.43   11.00
  -2   7   1  302.67   11.04
   2  -7  -1  281.20   11.02
   2  -7   0  182.76    7.15
   2   7   0  171.62    7.01
  -2   7   0  171.15    7.13
  -2  -7   0  180.53    7.10
  -2  -7   0  176.96    7.31
  -2  -7   0  169.85    7.11
   2  -7   0  170.66    7.16
  -2  -7   0  179.10    7.33
   2  -7   1  678.22   25.14
  -2  -7  -1  686.98   24.99
   2   7   1  656.53   24.93
  -2  -7  -1  649.29   25.27
  -2  -7  -1  669.61   24.94
  -2  -7  -1  693.85   25.28
  -2   7  -1  696.99   25.12
   2  -7   1  685.75   25.09
  -2  -7  -1  626.87   25.01
  -2  -7  -2  459.69   17.60
  -2  -7  -2  455.12   17.21
  -2  -7  -2  458.49   17.28
  -2  -7  -2  435.83   17.26
   2  -7   2  473.59   17.36
  -2   7  -2  467.96   17.41
   2  -7   2  456.35   17.44
  -2  -7  -3 1183.07   45.06
   2  -7   3 1236.95   45.07
  -2  -7  -3 1270.69   45.41
  -2  -7  -3 1151.95   44.96
  -2   7  -3 1282.64   45.19
  -2  -7  -3 1228.97   44.92
   2  -7   3 1240.17   45.22
   2  -7   4 1488.27   53.28
  -2  -7  -4 1475.18   53.09
  -2   7  -4 1427.16   53.37
  -2  -7  -4 1493.23   53.34
  -2  -7  -4 1377.65   53.56
  -2  -7  -4 1464.98   53.55
  -2  -7  -4 1388.39   53.29
  -2  -7  -5   11.02    1.92
   2  -7   5   12.77    1.24
  -2  -7  -5   13.36    1.78
  -2  -7  -5   12.51    1.54
  -2  -7  -6  351.24   13.62
  -2   7  -6  335.97   13.59
  -2  -7  -6  356.70   13.81
   2  -7   6  353.91   13.41
  -2  -7  -6  348.70   13.65
  -2   7  -7  104.77    4.79
  -2  -7  -7   96.48    4.91
  -2  -7  -7  101.56    4.81
  -2  -7  -7  101.50    4.86
  -2  -7  -8  507.38   19.59
  -2   7  -8  518.76   19.58
  -2  -7  -8  513.66   19.70
  -2  -7  -8  502.71   19.67
  -2   7  -9  236.79    9.44
  -2  -7  -9  216.04    9.61
  -2  -7  -9  242.07    9.59
  -2  -7  -9  219.99    9.50
  -2  -7 -10  122.53    5.59
  -2  -7 -10  123.84    5.97
  -2  -7 -10  125.45    6.03
  -2   7 -10  134.33    5.79
  -2  -7 -10  120.66    6.11
  -2  -7 -11  104.72    5.16
  -2  -7 -11  106.17    5.46
  -2   7 -11  106.29    5.11
  -2  -7 -11   99.89    4.92
  -2  -7 -11   99.00    5.45
  -2  -7 -12  381.59   15.98
  -2  -7 -12  399.07   15.80
  -2   7 -12  400.51   15.48
  -2  -7 -12  392.84   15.45
  -2  -7 -12  391.88   15.58
  -2   7 -13  261.94   10.61
  -2  -7 -13  263.95   10.69
  -2  -7 -13  250.21   10.59
  -2  -7 -13  248.43   11.20
  -2  -7 -14  298.81   12.22
  -2   7 -14  298.00   12.18
  -2  -7 -14  301.43   12.30
  -2  -7 -14  299.72   12.85
  -2   7 -15    0.15    2.23
  -2  -7 -15    1.92    3.53
  -2  -7 -15    1.33    2.49
  -2  -7 -15    1.62    2.15
  -2  -7 -16   39.36    3.09
  -2  -7 -16   46.46    4.98
  -2  -7 -16   47.04    4.75
  -2   7 -16   45.60    3.22
  -2  -7 -16   40.43    3.74
  -2  -7 -17   54.34    5.08
  -2   7 -17   44.84    3.25
  -2  -7 -17   52.73    5.05
  -2  -7 -17   46.73    3.96
  -2  -7 -18   43.42    4.99
  -2  -7 -18   44.25    4.91
  -2   7 -18   39.40    3.08
  -2  -7 -18   38.34    3.96
  -2   7 -19  118.97    5.52
  -2  -7 -19  122.89    7.50
  -2  -7 -19  116.60    6.29
  -2  -7 -20   67.34    4.57
  -2  -7 -20   63.50    5.75
  -2  -7 -21   31.18    3.44
  -2  -7 -22    2.56    2.58
  -2  -7 -24    4.09    2.77
  -2  -7 -24    7.20    2.10
  -2  -7 -25   24.58    2.68
  -2  -7 -25   23.70    2.11
  -2  -7 -26   16.87    1.94
  -2  -7 -26   16.08    1.54
  -2  -7 -27   17.68    1.39
   2  -8 -27  173.07    6.94
   2  -8 -26    1.93    1.05
   2  -8 -25  142.96    5.77
   2  -8 -25  117.33    5.45
   2  -8 -24    6.86    2.44
   2  -8 -24    5.97    1.93
   2  -8 -23   59.21    4.08
   2  -8 -23   52.74    3.48
   2  -8 -23   48.83    4.26
   2  -8 -22    0.28    3.60
   2   8 -22    0.61    1.71
   2  -8 -22   -0.75    3.19
   2  -8 -22   -0.58    2.33
   2  -8 -21   47.43    4.53
   2  -8 -21   44.28    4.84
   2  -8 -21   54.54    3.82
   2  -8 -21   45.50    3.25
   2   8 -21   51.70    3.30
   2   8 -20    0.77    2.29
   2  -8 -20    0.70    3.70
   2  -8 -20   -0.53    2.28
   2  -8 -20    5.62    2.79
   2  -8 -20    0.11    4.10
   2   8 -19    3.97    2.51
   2  -8 -19    3.19    4.18
   2  -8 -19    6.34    3.00
   2  -8 -19    3.39    4.33
   2  -8 -18   63.52    4.57
   2  -8 -18   56.62    5.52
   2  -8 -17   10.78    2.77
   2  -8 -17   13.39    4.24
   2   8 -17   11.84    2.90
   2  -8 -16    7.32    2.61
   2   8 -16    8.16    2.87
   2  -8 -15   11.89    2.80
   2   8 -15   12.17    2.93
   2  -8 -15    7.87    3.99
   2  -8 -14   11.65    2.58
   2   8 -14   13.60    2.80
   2  -8 -14   14.55    3.94
   2  -8 -13    5.58    2.27
   2  -8 -13    1.75    3.35
   2   8 -13    2.46    2.51
   2  -8 -12  255.23   11.07
   2   8 -12  273.45   10.83
   2  -8 -12  248.01   10.61
   2  -8 -11    4.02    2.71
   2   8 -11    3.20    2.54
   2  -8 -10  213.51    9.28
   2  -8  -9    4.70    2.31
  -2  -8   9    5.26    1.40
   2  -8  -8   16.11    2.53
   2   8  -8   17.64    2.45
  -2  -8   8   19.42    1.92
   2   8  -7    8.66    2.12
   2  -8  -7    8.48    2.12
  -2  -8   7    9.22    1.72
   2   8  -6   76.72    4.01
  -2  -8   6   77.21    3.96
   2  -8  -6   78.22    4.07
   2   8  -5  104.49    4.84
   2  -8  -5  101.85    4.87
  -2   8   5  103.80    4.56
  -2  -8   5  101.66    4.84
   2   8  -4    8.06    1.65
  -2   8   4    8.34    1.39
  -2  -8   4    6.82    1.83
   2  -8  -4    7.04    1.59
  -2  -8   3  562.97   21.75
   2   8  -3  570.64   21.63
   2  -8  -3  574.50   21.57
  -2   8   3  579.05   21.59
   2   8  -2  211.75    8.72
  -2   8   2  217.12    8.75
  -2  -8   2  223.27    8.99
   2   8  -1   58.83    3.03
  -2   8   1   59.47    3.20
  -2  -8   1   59.03    3.44
  -2  -8   0 1146.41   42.20
   2   8   0 1149.25   42.14
  -2   8   0 1148.11   42.28
  -2  -8   0 1099.52   42.26
   2  -8   0 1108.78   42.26
  -2  -8   0 1205.84   42.50
  -2  -8  -1  215.83    9.10
   2   8   1  228.82    9.04
   2  -8   1  226.76    9.18
  -2  -8  -1  230.25    9.49
  -2   8  -1  240.40    9.27
  -2  -8  -1  229.96    9.07
   2  -8   2  510.91   19.65
  -2   8  -2  534.67   19.73
  -2  -8  -2  505.05   19.88
   2  -8   3   66.98    3.58
  -2  -8  -3   75.74    3.70
   2  -8   3   75.04    3.58
  -2   8  -3   78.57    3.92
  -2  -8  -4   89.73    4.95
  -2  -8  -4  102.10    4.63
  -2   8  -4  103.19    4.86
  -2  -8  -5   10.93    1.97
  -2   8  -5   10.49    1.93
  -2  -8  -5   10.16    2.44
  -2  -8  -6  156.39    6.81
  -2  -8  -6  160.09    7.12
  -2  -8  -6  150.71    6.69
  -2  -8  -7   24.46    2.72
  -2  -8  -7   22.03    2.55
  -2   8  -7   19.84    2.60
  -2  -8  -7   25.52    2.37
  -2  -8  -8  103.20    5.37
  -2  -8  -8  113.00    5.27
  -2  -8  -8   99.30    5.12
  -2   8  -8  103.63    5.16
  -2  -8  -9    4.95    2.40
  -2   8  -9    3.93    2.33
  -2  -8  -9    7.84    2.30
  -2  -8  -9    4.42    2.60
  -2  -8 -10  293.75   11.83
  -2  -8 -10  279.69   11.68
  -2   8 -10  292.09   11.64
  -2  -8 -10  271.88   11.74
  -2  -8 -11   47.10    3.84
  -2   8 -11   56.00    3.82
  -2  -8 -11   48.03    3.91
  -2  -8 -11   53.86    3.83
  -2  -8 -12   19.65    3.28
  -2  -8 -12   22.32    3.56
  -2  -8 -12   17.52    2.94
  -2   8 -12   17.84    2.78
  -2  -8 -13   11.18    3.13
  -2  -8 -13    4.12    3.65
  -2   8 -13    8.81    2.54
  -2  -8 -13    6.82    2.61
  -2  -8 -13    3.66    2.08
  -2  -8 -14   72.35    4.43
  -2  -8 -14   75.19    5.50
  -2  -8 -14   77.78    5.28
  -2  -8 -14   68.71    4.10
  -2   8 -14   81.91    4.53
  -2  -8 -15    4.11    3.62
  -2  -8 -15    2.77    2.42
  -2   8 -15    2.39    2.42
  -2  -8 -15    2.07    2.20
  -2  -8 -16   25.59    4.25
  -2   8 -16   25.64    2.90
  -2  -8 -16   23.79    2.87
  -2  -8 -16   17.54    2.75
  -2   8 -17   59.56    3.86
  -2  -8 -17   56.37    5.02
  -2  -8 -17   52.40    3.89
  -2  -8 -17   54.60    3.52
  -2   8 -18  121.96    5.84
  -2  -8 -18  123.21    7.02
  -2  -8 -18  121.62    6.01
  -2   8 -19   45.53    3.19
  -2  -8 -19   49.60    3.58
  -2  -8 -19   47.99    5.01
  -2  -8 -20   11.36    3.69
  -2  -8 -20   15.42    2.56
  -2  -8 -21    2.32    3.41
  -2  -8 -21    0.80    2.11
  -2  -8 -22    5.30    3.15
  -2  -8 -22    9.30    2.04
  -2  -8 -23    1.96    1.65
  -2  -8 -23    0.93    2.47
  -2  -8 -24   10.27    1.43
   2  -9 -26   40.34    2.16
   2  -9 -25    3.18    1.53
   2  -9 -24   83.58    4.06
   2  -9 -24   80.85    4.25
   2  -9 -23  137.38    6.14
   2  -9 -23  126.96    6.21
   2  -9 -22   34.07    3.46
   2  -9 -22   37.18    3.33
   2  -9 -22   25.51    2.37
   2   9 -21  126.63    5.58
   2  -9 -21  126.36    6.32
   2  -9 -21  119.64    5.53
   2  -9 -21  131.56    6.45
   2  -9 -21  108.71    5.45
   2   9 -20  164.46    7.08
   2  -9 -20  152.06    6.91
   2  -9 -20  152.06    7.05
   2  -9 -20  169.46    7.85
   2   9 -19  203.46    8.47
   2  -9 -19  208.56    9.34
   2  -9 -19  181.87    8.27
   2  -9 -19  190.78    8.54
   2   9 -18  152.35    7.08
   2  -9 -18  150.50    7.30
   2  -9 -18  143.11    6.77
   2  -9 -18  155.71    7.86
   2  -9 -17  340.60   14.15
   2  -9 -17  350.41   15.01
   2   9 -17  371.72   14.48
   2  -9 -17  364.86   14.91
   2   9 -16  196.76    8.84
   2  -9 -16  200.37    9.47
   2  -9 -16  188.93    9.38
   2  -9 -15  611.22   24.54
   2  -9 -15  630.59   24.41
   2   9 -15  629.10   24.15
   2   9 -14   35.47    3.74
   2  -9 -14   37.04    4.24
   2  -9 -14   29.36    3.89
   2  -9 -13  157.78    8.22
   2   9 -13  184.10    8.04
   2   9 -12    7.64    2.94
   2  -9 -12   12.72    3.65
   2  -9 -11  420.81   16.88
   2  -9 -10   70.29    4.56
   2   9  -9  220.70    9.23
   2  -9  -9  216.10    9.28
  -2  -9   9  206.82    8.70
  -2  -9   8  124.29    5.65
   2   9  -8  125.17    6.05
   2  -9  -8  124.60    6.12
   2  -9  -7   19.97    2.57
   2   9  -7   21.61    2.72
  -2  -9   7   17.87    2.12
   2  -9  -6   61.79    3.76
   2   9  -6   66.11    3.82
  -2  -9   6   60.61    3.59
   2   9  -5   50.43    3.33
   2  -9  -5   51.47    3.18
  -2  -9   5   51.54    3.42
  -2   9   5   51.06    2.85
   2   9  -4  315.51   12.30
   2  -9  -4  303.23   12.17
  -2  -9   4  301.85   12.37
  -2   9   4  313.45   12.12
  -2  -9   3    1.34    2.15
   2   9  -3    1.84    1.65
  -2   9   3    1.98    1.57
   2   9  -2  246.09   10.25
  -2  -9   2  265.74   10.57
  -2   9   2  255.29   10.26
   2   9  -1   62.19    3.35
  -2   9   1   52.53    3.26
   2   9   0  365.25   14.47
  -2   9   0  371.74   14.62
  -2  -9   0  389.75   14.91
  -2  -9  -1    4.76    2.33
   2   9   1    2.87    1.35
  -2   9  -1    0.64    1.68
  -2   9  -2  117.15    5.55
   2  -9   2  111.99    5.49
  -2  -9  -2  127.98    5.90
   2  -9   3   50.39    3.12
  -2   9  -3   50.55    3.33
  -2   9  -4   17.35    2.44
  -2  -9  -5   40.85    2.98
  -2   9  -5   41.19    3.19
  -2  -9  -5   36.59    3.62
  -2  -9  -6  495.53   18.02
  -2  -9  -6  483.42   18.39
  -2  -9  -7   36.94    3.19
  -2  -9  -7   35.75    3.55
  -2  -9  -7   29.83    2.65
  -2  -9  -8    7.19    2.12
  -2   9  -8    8.23    2.82
  -2  -9  -8    7.64    2.97
  -2  -9  -8    8.14    2.57
  -2  -9  -9    7.41    2.40
  -2  -9  -9   10.58    3.30
  -2  -9  -9   12.86    2.94
  -2   9  -9   14.38    2.94
  -2   9 -10  177.45    7.65
  -2  -9 -10  150.10    7.56
  -2  -9 -10  167.83    7.86
  -2  -9 -10  168.66    7.75
  -2  -9 -11    1.45    2.61
  -2  -9 -11    6.99    3.48
  -2   9 -11    6.48    2.64
  -2  -9 -11    2.15    2.85
  -2  -9 -12  325.95   14.53
  -2  -9 -12  381.45   14.77
  -2   9 -12  358.02   14.44
  -2  -9 -12  366.52   14.59
  -2  -9 -13   95.31    5.85
  -2   9 -13   92.27    5.21
  -2  -9 -13   95.50    5.38
  -2  -9 -13   84.77    5.51
  -2  -9 -14   50.80    4.57
  -2   9 -14   52.02    3.75
  -2  -9 -14   42.47    4.30
  -2  -9 -14   51.88    3.85
  -2  -9 -15    4.34    3.47
  -2  -9 -15    9.55    2.68
  -2  -9 -15   14.80    4.03
  -2   9 -15    9.57    2.76
  -2   9 -16   61.69    4.06
  -2  -9 -16   62.24    3.95
  -2  -9 -16   60.99    4.88
  -2  -9 -17   21.40    2.68
  -2  -9 -17   24.80    3.92
  -2   9 -17   25.44    2.82
  -2   9 -18   28.96    2.86
  -2  -9 -18   34.52    4.00
  -2   9 -19  108.39    5.41
  -2  -9 -19  131.04    6.29
  -2  -9 -20    3.86    2.92
  -2   9 -20    6.03    1.64
  -2  -9 -21  186.79    8.14
  -2  -9 -22    2.36    2.07
  -2  -9 -23  222.01    8.99
  -2  -9 -24    7.90    1.48
   2 -10 -24    0.51    1.13
   2 -10 -23   17.29    1.94
   2 -10 -22    5.14    2.01
   2  10 -21   21.28    2.03
   2 -10 -21   23.19    2.71
   2 -10 -21   20.37    1.91
   2 -10 -20   59.79    3.64
   2  10 -20   70.30    3.71
   2 -10 -20   70.73    4.25
   2 -10 -19   -3.07    2.93
   2  10 -19    4.34    2.34
   2 -10 -19    1.92    3.07
   2 -10 -19    1.83    2.28
   2  10 -18   69.02    4.22
   2 -10 -18   66.97    4.35
   2 -10 -18   65.35    4.71
   2 -10 -18   80.38    5.00
   2  10 -17  159.84    7.51
   2 -10 -17  156.35    7.60
   2 -10 -17  160.79    7.79
   2 -10 -17  170.94    7.96
   2 -10 -16    3.35    3.76
   2  10 -16    5.70    3.15
   2 -10 -16    0.66    3.08
   2 -10 -16    2.56    3.29
   2  10 -15  110.05    6.09
   2 -10 -15  115.85    6.50
   2 -10 -15  108.10    6.07
   2  10 -14  130.38    6.53
   2 -10 -14  126.60    6.84
   2 -10 -14  110.28    6.38
   2  10 -13   76.20    5.05
   2 -10 -13   80.95    5.27
   2 -10 -13   72.30    4.91
   2 -10 -12    9.88    2.91
   2 -10 -12   10.00    3.52
   2 -10 -11  348.68   14.57
   2 -10 -11  367.84   14.63
   2  10 -10   81.82    4.94
   2 -10 -10   79.30    4.93
   2 -10 -10   71.18    4.49
   2  10  -9  206.49    8.82
   2 -10  -9  206.50    8.76
  -2 -10   9  199.59    8.14
   2  10  -8   19.88    3.18
   2 -10  -8   21.75    2.96
  -2 -10   8   22.07    2.37
  -2 -10   7  648.52   24.58
   2  10  -7  656.67   24.80
   2 -10  -7  634.82   24.66
   2  10  -6  114.80    5.79
   2 -10  -6  114.15    5.55
  -2 -10   6  120.62    5.60
   2  10  -5   68.46    3.97
  -2 -10   5   65.21    3.99
   2 -10  -5   59.69    3.65
  -2  10   5   63.23    3.38
   2  10  -4    4.93    2.25
  -2  10   4    3.92    1.60
  -2 -10   4    2.88    2.44
  -2  10   3    7.13    1.89
  -2 -10   3    9.84    2.69
   2  10  -3    7.69    2.14
  -2  10   2   29.43    2.46
   2  10  -2   22.76    2.51
  -2 -10   2   24.90    3.13
   2  10  -1   19.39    2.16
  -2 -10   1   19.46    3.11
  -2  10   1   20.65    2.41
   2 -10  -1   17.99    2.73
   2 -10   0   10.45    2.64
   2  10   0   10.00    1.90
  -2  10   0   14.37    2.30
  -2 -10   0   13.34    3.00
  -2  10  -1    6.61    2.21
   2  10   1    5.30    1.59
  -2 -10  -1    7.66    2.91
   2 -10   1    6.56    2.36
  -2  10  -2   35.26    3.08
  -2 -10  -2   33.15    3.62
   2 -10   2   36.67    2.88
   2 -10   3   52.42    3.35
  -2  10  -3   55.62    3.69
  -2 -10  -3   56.91    4.36
  -2  10  -4   39.48    3.48
  -2  10  -5    4.13    2.63
  -2  10  -6   27.36    3.31
  -2 -10  -6   34.39    3.95
  -2 -10  -7   11.57    3.47
  -2 -10  -8  509.39   20.12
  -2 -10  -9   11.69    3.56
  -2 -10  -9   12.27    2.31
  -2  10  -9    9.40    3.08
  -2  10 -10  152.47    7.39
  -2 -10 -10  164.13    7.67
  -2 -10 -10  146.23    6.99
  -2 -10 -11   68.90    4.46
  -2 -10 -11   78.54    5.01
  -2  10 -11   86.98    5.04
  -2 -10 -12   -2.40    2.61
  -2 -10 -12    5.64    2.98
  -2  10 -12    2.80    2.88
  -2 -10 -13  373.40   15.90
  -2  10 -13  414.24   16.00
  -2 -10 -13  413.59   16.15
  -2 -10 -14    9.73    2.82
  -2 -10 -14   19.11    3.14
  -2  10 -14   14.17    3.03
  -2  10 -15  223.89    9.54
  -2 -10 -15  216.86    9.64
  -2 -10 -15  224.54    9.54
  -2 -10 -16   49.96    3.96
  -2 -10 -16   49.20    3.53
  -2  10 -16   46.99    3.62
  -2  10 -17  170.16    7.21
  -2 -10 -17  161.60    7.37
  -2 -10 -17  149.37    6.93
  -2 -10 -18   12.93    2.78
  -2  10 -18   11.37    2.21
  -2  10 -19  114.70    5.20
  -2 -10 -19  113.03    5.48
  -2 -10 -20   42.48    2.94
  -2  10 -20   35.77    2.30
  -2 -10 -21   13.29    1.96
  -2 -10 -22   52.41    2.81
  -2 -10 -23   66.56    3.03
   2 -11 -22    3.21    1.09
   2 -11 -21    0.08    1.50
   2 -11 -20   21.35    2.32
   2 -11 -20   26.70    2.05
   2  11 -20   25.82    2.14
   2 -11 -19    7.77    2.00
   2 -11 -19    5.48    1.93
   2 -11 -19    9.51    2.57
   2  11 -19    6.48    1.92
   2 -11 -18  107.19    5.16
   2  11 -18  102.23    4.99
   2 -11 -18  106.35    5.36
   2 -11 -18   92.31    4.98
   2  11 -17   30.74    3.07
   2 -11 -17   32.95    3.53
   2 -11 -17   28.38    2.89
   2 -11 -17   23.21    3.23
   2 -11 -16    8.08    2.49
   2  11 -16    9.11    2.71
   2 -11 -16   12.22    3.11
   2 -11 -16    8.25    3.12
   2 -11 -15   14.49    2.75
   2 -11 -15   20.10    3.39
   2 -11 -15   17.70    3.52
   2  11 -15   15.95    3.13
   2  11 -14   69.56    4.77
   2 -11 -14   77.44    4.85
   2 -11 -14   66.04    4.28
   2 -11 -14   73.14    5.23
   2 -11 -13   49.47    4.00
   2 -11 -13   49.62    4.68
   2 -11 -13   42.42    3.44
   2 -11 -12   60.08    4.32
   2 -11 -12   50.89    5.14
   2 -11 -12   45.59    3.46
   2 -11 -11   33.20    3.71
   2  11 -11   36.12    4.07
   2  11 -10  207.80    9.25
   2 -11 -10  207.42    9.12
   2  11  -9    6.11    3.03
   2 -11  -9    0.59    2.59
  -2 -11   8   21.57    2.37
   2  11  -8   21.37    3.21
   2 -11  -8   22.84    2.94
   2 -11  -8   13.98    4.13
   2  11  -7   66.78    4.36
   2 -11  -7   63.04    3.79
  -2 -11   7   63.33    3.79
   2 -11  -7   59.01    5.08
   2 -11  -6   40.12    4.46
   2 -11  -6   39.60    3.03
   2  11  -6   39.75    3.51
  -2 -11   6   39.06    3.31
   2  11  -5   45.62    3.52
  -2 -11   5   50.05    3.59
   2 -11  -5   45.77    4.47
  -2  11   4    6.59    1.84
   2  11  -4    6.82    2.46
   2 -11  -4    1.79    3.25
  -2 -11   4    8.30    2.60
  -2  11   3  172.86    7.51
   2  11  -3  173.40    7.77
   2 -11  -3  180.01    8.46
  -2 -11   3  179.37    8.00
   2 -11  -2   12.85    3.32
  -2  11   2   15.51    2.30
   2  11  -2   18.34    2.45
  -2 -11   2   20.09    3.40
  -2 -11   1  801.11   29.34
  -2  11   1  753.80   28.90
   2  11  -1  747.12   28.86
   2 -11  -1  774.87   29.30
   2  11   0  114.19    5.32
  -2  11   0  109.28    5.58
  -2 -11   0  115.69    6.18
   2 -11   0  111.57    5.86
   2  11   1  594.77   22.66
  -2  11  -1  605.63   22.98
  -2 -11  -1  618.69   23.37
   2 -11   1  579.84   23.02
  -2  11  -2    6.92    2.45
   2 -11   2    8.70    2.49
  -2 -11  -2    8.73    3.51
  -2 -11  -3 1064.63   38.10
  -2  11  -3 1032.95   37.75
   2 -11   3  944.23   37.52
  -2 -11  -4    2.61    3.46
  -2  11  -4    0.72    2.63
  -2  11  -5   94.29    5.32
  -2  11  -6    3.29    3.09
  -2 -11  -7  590.51   22.37
  -2  11  -7  549.90   22.06
  -2 -11  -8    7.70    3.50
  -2 -11  -9 1247.61   46.83
  -2  11 -10   14.25    3.64
  -2 -11 -10   24.49    4.02
  -2  11 -11   14.17    3.37
  -2 -11 -11   17.57    3.43
  -2 -11 -12   43.34    3.97
  -2  11 -12   43.36    3.80
  -2 -11 -12   33.80    2.88
  -2  11 -13   49.52    3.82
  -2 -11 -13   44.79    3.88
  -2 -11 -13   40.87    3.15
  -2  11 -14   37.73    3.36
  -2 -11 -14   40.23    3.55
  -2 -11 -14   34.41    2.97
  -2 -11 -15   90.86    4.73
  -2  11 -15   93.02    4.80
  -2 -11 -15   81.42    4.51
  -2 -11 -16  122.77    5.65
  -2  11 -16  122.11    5.80
  -2 -11 -16  119.96    5.58
  -2  11 -17   27.20    2.48
  -2 -11 -17   24.64    2.18
  -2 -11 -17   24.06    2.38
  -2  11 -18   33.10    2.42
  -2 -11 -18   30.22    2.41
  -2  11 -19   11.08    1.47
  -2 -11 -19   11.27    1.67
  -2 -11 -20    4.82    1.32
  -2 -11 -21    2.60    0.94
   2 -12 -19   24.90    1.83
   2  12 -19   24.53    1.87
   2  12 -18  105.59    4.72
   2 -12 -18  106.76    4.81
   2 -12 -18   96.53    4.68
   2 -12 -17   13.79    2.22
   2  12 -17   10.58    2.07
   2 -12 -17    9.84    2.22
   2 -12 -16   63.47    3.93
   2  12 -16   59.67    3.72
   2 -12 -16   63.61    3.73
   2  12 -15   23.24    2.82
   2 -12 -15   21.51    3.20
   2 -12 -15   19.37    2.77
   2 -12 -14    0.40    3.17
   2 -12 -14    3.07    2.67
   2 -12 -13   25.83    3.01
   2 -12 -13   26.55    4.03
   2  12 -12   19.30    3.11
   2 -12 -12   19.60    3.85
   2 -12 -12   19.51    2.88
   2  12 -11  133.84    6.68
   2 -12 -11  139.07    6.39
   2  12 -10    0.62    3.00
   2 -12 -10    0.06    2.38
   2  12  -9   61.81    4.33
   2 -12  -9   57.98    3.72
   2 -12  -9   67.16    5.36
   2  12  -8   30.89    3.48
   2 -12  -8   28.01    2.72
   2 -12  -8   29.00    4.52
  -2 -12   7  236.28   10.17
   2  12  -7  252.60   10.60
  -2 -12   6   59.32    3.75
   2 -12  -6   60.11    5.02
   2  12  -6   61.20    4.13
   2  12  -5   24.18    2.97
  -2 -12   5   24.34    3.07
   2 -12  -5   25.26    4.20
   2  12  -4   48.39    3.43
  -2  12   4   40.96    2.80
   2 -12  -4   45.13    4.46
  -2 -12   4   44.20    3.66
  -2  12   3   79.88    4.35
  -2 -12   3   97.04    5.17
   2  12  -3   89.04    4.66
   2 -12  -3   90.02    5.60
   2 -12  -2    4.53    3.12
  -2 -12   2    5.92    3.21
   2  12  -2    6.21    2.03
  -2  12   2    8.85    2.04
   2  12  -1   71.72    3.98
  -2  12   1   72.98    4.15
  -2 -12   1   75.86    5.06
   2 -12  -1   76.97    4.85
  -2  12   0    6.40    2.32
   2  12   0    9.69    1.89
  -2 -12   0   10.07    3.40
   2 -12   0    5.65    2.77
  -2  12  -1   18.17    2.82
   2 -12   1   19.77    2.88
  -2 -12  -1   17.26    3.61
  -2  12  -2    6.42    2.58
   2 -12   2    5.16    2.22
  -2 -12  -2    4.03    3.77
   2 -12   3    2.38    1.98
  -2  12  -3    2.44    2.60
  -2 -12  -3    0.28    3.81
  -2 -12  -4  134.67    6.98
  -2  12  -4  117.56    6.18
  -2  12  -5   51.68    4.11
  -2  12  -6  305.73   12.62
  -2  12  -7   33.16    3.64
  -2 -12  -7   29.71    4.48
  -2  12  -8    4.78    3.03
  -2 -12  -8   -0.09    3.77
  -2 -12  -9    9.72    3.64
  -2 -12 -10   -0.41    3.28
  -2 -12 -11    2.29    2.97
  -2  12 -11    4.03    2.87
  -2 -12 -12   77.11    4.69
  -2  12 -12   75.77    4.52
  -2  12 -13   30.03    3.08
  -2 -12 -13   32.98    3.27
  -2  12 -14   14.98    2.52
  -2 -12 -14   10.30    2.47
  -2 -12 -15   28.05    2.57
  -2  12 -15   32.41    2.70
  -2  12 -16    9.05    1.92
  -2 -12 -16    7.21    1.68
  -2  12 -17   21.28    1.88
  -2 -12 -17   20.08    1.55
  -2  12 -18    0.97    1.06
   2  13 -18    9.39    1.14
   2 -13 -18    9.05    1.11
   2 -13 -17  121.13    5.35
   2  13 -17  136.28    5.38
   2 -13 -16    5.49    1.70
   2  13 -16    7.17    1.59
   2 -13 -15  446.43   17.16
   2 -13 -14   68.43    4.03
   2  13 -13  261.95   10.91
   2 -13 -13  287.67   11.29
   2  13 -12    9.08    2.36
   2  13 -11  254.15   10.45
   2 -13 -10    5.76    3.32
   2  13 -10    8.93    2.46
   2  13  -9   87.65    4.82
   2 -13  -9   97.65    5.61
   2 -13  -8   -0.09    3.51
   2  13  -8    0.47    2.37
   2  13  -7   21.87    2.75
   2 -13  -7   23.57    3.65
   2  13  -6   13.25    2.43
  -2 -13   6   11.09    2.18
   2 -13  -6    9.24    3.35
  -2 -13   5  118.58    5.57
   2 -13  -5  121.94    6.41
   2  13  -5  112.09    5.55
   2 -13  -4    3.30    3.34
   2  13  -4    2.43    2.09
  -2 -13   4    4.93    2.32
  -2 -13   3   96.03    5.28
   2  13  -3   94.63    4.77
   2 -13  -3  100.54    5.55
  -2  13   2   24.48    2.32
  -2 -13   2   30.83    3.28
   2 -13  -2   26.83    3.34
   2  13  -2   29.07    2.48
   2 -13  -1    4.36    2.66
   2  13  -1    0.88    1.66
  -2  13   1    3.12    1.83
  -2 -13   1    2.93    2.71
  -2  13   0    0.25    1.97
  -2 -13   0    2.37    3.10
   2 -13   0    2.71    2.37
  -2  13  -1    8.64    2.34
   2 -13   1   10.82    2.36
  -2 -13  -1    8.79    3.38
  -2  13  -2   78.82    4.28
  -2 -13  -2   84.08    5.05
  -2  13  -3    1.22    2.29
  -2 -13  -3   -1.35    3.33
  -2 -13  -4  123.07    6.36
  -2  13  -4  107.37    5.59
  -2 -13  -5    2.24    3.78
  -2  13  -5    3.12    2.46
  -2  13  -6    2.50    2.58
  -2  13  -7    5.10    2.70
  -2 -13  -8  168.02    7.84
  -2  13  -8  164.54    7.43
  -2  13  -9    9.60    2.59
  -2 -13  -9    7.20    3.09
  -2 -13 -10   13.09    2.97
  -2 -13 -11  146.31    6.78
  -2 -13 -12  111.99    5.38
  -2  13 -12  110.95    5.32
  -2 -13 -13   13.65    2.21
  -2  13 -13   14.89    2.18
  -2 -13 -14   17.88    1.93
  -2  13 -14   15.57    2.03
  -2  13 -15   40.32    2.43
  -2 -13 -15   36.03    2.23
  -2  13 -16   30.48    1.83
  -2 -13 -16   23.56    1.55
  -2  13 -17    7.99    0.98
   2 -14 -15   11.77    1.36
   2  14 -14    2.50    1.18
   2 -14 -14    1.36    1.47
   2  14 -13   16.75    1.69
   2 -14 -13   19.30    2.09
   2  14 -12   35.72    2.38
   2  14 -11    2.66    1.66
   2 -14 -11    8.71    2.26
   2 -14 -10   13.03    2.46
   2  14 -10   12.29    1.89
   2 -14  -9   75.65    4.11
   2  14  -9   66.09    3.59
   2  14  -8   53.22    3.21
   2 -14  -8   62.86    3.87
   2  14  -7   58.84    3.46
   2 -14  -7   72.94    4.20
   2 -14  -6  125.94    5.94
   2  14  -6  116.72    5.37
   2  14  -5   16.15    1.98
  -2 -14   5   17.38    1.88
   2 -14  -5   22.49    2.88
   2  14  -4    1.51    1.55
  -2 -14   4    1.67    1.80
   2 -14  -4    5.03    2.49
  -2 -14   3  188.71    7.82
   2  14  -3  172.52    7.50
  -2 -14   2   35.71    3.01
   2 -14  -2   33.78    2.96
  -2  14   1   32.21    2.19
   2 -14  -1   32.18    2.74
  -2 -14   1   39.31    3.16
  -2  14   0   35.79    2.39
  -2 -14   0   36.16    3.27
   2 -14   0   30.12    2.56
  -2  14  -1   20.11    2.10
  -2 -14  -1   18.83    2.90
  -2  14  -2  124.06    5.60
  -2 -14  -2  130.89    6.26
  -2 -14  -3    9.77    2.96
  -2  14  -3    8.51    1.98
  -2 -14  -4    7.11    2.85
  -2  14  -4    6.13    1.88
  -2  14  -5   -0.72    1.89
  -2 -14  -5    3.35    2.68
  -2  14  -6   93.17    4.53
  -2 -14  -6   91.94    5.00
  -2  14  -7   23.78    2.41
  -2  14  -8   86.40    4.31
  -2 -14  -9   23.84    2.65
  -2  14  -9   21.12    2.21
  -2  14 -10   54.57    3.19
  -2 -14 -10   61.98    3.44
  -2  14 -11   14.06    1.90
  -2 -14 -11   19.28    2.09
  -2 -14 -12   10.55    1.58
  -2 -14 -13   51.38    2.72
  -2  14 -13   60.53    2.82
  -2  14 -14   35.75    1.93
   2 -15 -12    0.35    0.92
   2 -15 -11    2.10    1.13
   2  15 -11    2.24    0.80
   2 -15 -10   16.35    1.61
   2  15 -10   13.63    1.18
   2  15  -9   29.84    1.72
   2 -15  -9   27.83    2.09
   2  15  -8    2.70    1.00
   2 -15  -8    2.27    1.55
   2 -15  -7   42.30    2.52
   2  15  -7   35.29    2.03
   2  15  -6    2.71    0.96
   2 -15  -6    1.86    1.60
   2 -15  -5   35.18    2.40
   2 -15  -4   46.32    2.76
  -2 -15   3  100.25    4.44
   2 -15  -3  110.75    4.69
   2 -15  -2  125.25    5.64
  -2 -15   2  148.85    5.73
  -2 -15   1  147.79    6.18
  -2 -15   0   64.32    3.38
  -2 -15  -1  191.50    7.86
  -2  15  -2    8.07    1.20
  -2 -15  -2   10.55    2.00
  -2  15  -3  187.16    7.91
  -2 -15  -3  231.67    8.37
  -2 -15  -4   97.75    4.50
  -2  15  -4   90.18    4.05
  -2 -15  -5  136.41    5.46
  -2  15  -5  112.50    5.03
  -2 -15  -6   50.16    2.98
  -2  15  -6   50.61    2.57
  -2 -15  -7  174.46    7.15
  -2  15  -7  175.21    6.95
  -2  15  -8   77.26    3.47
  -2 -15  -9  100.60    4.27
  -2  15  -9   95.19    4.14
  -2  15 -10   20.37    1.41
  -2 -15 -10   19.05    1.49
  -2  15 -11   20.64    1.30
   3   0 -30  405.18   15.40
   3   0 -29   -1.79    2.11
   3   0 -28  610.88   23.61
   3   0 -27    0.30    3.30
   3   0 -26  769.22   29.94
   3   0 -25   -0.26    4.10
   3   0 -24  184.22    9.57
   3   0 -23   -0.14    4.52
   3   0 -23    0.51    2.67
   3   0 -22  401.35   17.27
   3   0 -22  401.03   16.49
   3   0 -21    0.42    4.24
   3   0 -20  174.87    9.11
   3   0 -19    1.82    3.47
   3   0 -18  417.75   17.34
   3   0 -17    0.11    2.96
   3   0 -16  414.24   16.90
   3   0 -15    0.82    1.56
   3   0 -14  284.51   10.74
   3   0 -14  260.27   10.87
  -3   0  14  271.45   10.61
  -3   0  13   -0.05    0.91
  -3   0  13   -0.33    0.98
   3   0 -13    2.13    0.86
   3   0 -13    0.33    1.39
  -3   0  12  723.95   26.73
   3   0 -12  707.95   26.63
  -3   0  11    0.22    0.81
   3   0 -11    2.59    0.84
   3   0 -10 3768.44  136.70
  -3   0  10 3734.23  136.71
   3   0  -9    0.99    0.72
  -3   0   9    0.41    0.76
  -3   0   8 1919.79   70.13
  -3   0   7    0.03    0.62
  -3   0   6 2189.20   79.79
  -3   0   5    0.40    0.57
   3   0  -4  986.57   37.07
  -3   0   4 1034.19   37.01
  -3   0   3    0.25    0.40
  -3   0   2 5514.83  200.27
   3   0  -1    0.77    0.58
  -3   0   1    1.21    0.68
  -3   0   1    0.44    0.28
  -3   0   0   55.92    2.14
   3   0   0   57.29    2.36
  -3   0   0   56.75    2.37
   3   0   1    0.20    0.57
  -3   0  -1    0.11    0.58
   3   0   2  124.07    4.82
  -3   0  -2  126.38    4.82
  -3   0  -3    0.75    0.58
  -3   0  -4 9999.00  360.71
  -3   0  -4 9791.49  360.86
   3   0   4 9935.42  360.71
   3   0   5    1.33    0.34
  -3   0  -5    0.39    0.56
  -3   0  -5    0.66    0.32
  -3   0  -6 2769.93  102.03
  -3   0  -6 2850.18  101.98
   3   0   6 2787.52  101.99
   3   0   7    0.91    0.42
  -3   0  -7    0.88    0.44
   3   0   8 1398.90   51.40
  -3   0  -8 1417.37   51.38
  -3   0  -9    0.46    0.48
   3   0   9    0.02    0.52
   3   0   9    0.08    0.34
  -3   0  -9    0.09    1.13
   3   0  10 2878.94  107.56
   3   0  10 2964.77  107.59
  -3   0 -10 3028.50  108.27
   3   0  10 3010.70  107.86
  -3   0 -10 3064.32  107.83
  -3   0 -10 3064.48  108.19
  -3   0 -11    0.39    1.37
   3   0  11    0.32    0.29
  -3   0 -11    0.10    1.23
   3   0  11    0.03    0.62
  -3   0 -12  540.54   20.82
   3   0  12  555.40   20.35
  -3   0 -12  533.99   20.71
  -3   0 -13   -0.35    1.58
  -3   0 -13    1.69    1.73
  -3   0 -14   21.98    2.19
  -3   0 -14   22.24    2.60
  -3   0 -15   -0.07    1.88
  -3   0 -15   -2.79    2.43
  -3   0 -16   71.95    4.65
  -3   0 -16   78.03    4.18
  -3   0 -17   -1.26    2.13
  -3   0 -17   -1.55    3.06
  -3   0 -18  239.90   10.07
  -3   0 -18  239.32   10.64
  -3   0 -19    0.30    3.50
  -3   0 -19    0.38    2.15
  -3   0 -20  152.20    7.87
  -3   0 -20  148.53    6.93
  -3   0 -21   -2.91    3.72
  -3   0 -21    2.30    2.22
  -3   0 -22   67.15    5.29
  -3   0 -22   68.52    4.04
  -3   0 -23    0.30    3.53
  -3   0 -23    1.00    1.92
  -3   0 -24    7.67    3.32
  -3   0 -25    3.09    2.90
  -3   0 -26   85.30    4.83
  -3   0 -27    3.06    2.19
  -3   0 -28   18.99    2.09
   3  -1 -30    0.21    1.70
   3  -1 -29   94.11    4.67
   3   1 -29   70.88    3.85
   3   1 -28   41.77    3.18
   3  -1 -28   42.55    3.91
   3   1 -27    6.89    2.75
   3  -1 -27   -2.68    3.54
   3  -1 -26   22.70    2.87
   3   1 -26   17.63    3.53
   3  -1 -26   17.41    4.40
   3  -1 -25   -0.56    4.37
   3  -1 -25    0.90    2.89
   3   1 -25    0.67    3.40
   3  -1 -24   99.52    7.37
   3   1 -24  123.28    6.88
   3  -1 -24  112.41    6.51
   3  -1 -23   -3.05    5.12
   3   1 -23   -1.75    3.95
   3  -1 -23    0.86    3.50
   3  -1 -22   79.63    6.69
   3   1 -22   92.43    6.16
   3   1 -21   48.24    4.61
   3  -1 -21   47.80    5.78
   3  -1 -20  206.74    9.00
   3   1 -20  208.06    9.97
   3  -1 -20  196.92   10.17
   3  -1 -19   45.01    5.13
   3  -1 -19   50.00    3.65
   3   1 -19   51.78    4.60
   3   1 -18   10.17    3.03
   3  -1 -18   12.02    3.92
   3  -1 -18    6.37    2.42
   3  -1 -17  109.83    5.59
   3  -1 -17  103.33    6.49
   3   1 -16   80.58    4.75
   3  -1 -16   72.70    5.01
  -3   1  15   46.91    2.64
   3  -1 -15   48.79    3.29
   3   1 -15   49.52    3.67
  -3   1  14  291.24   11.11
  -3  -1  14  286.10   11.21
  -3   1  14  297.46   11.40
   3  -1 -14  284.62   11.69
   3  -1 -14  300.84   11.39
   3  -1 -13    2.77    0.94
   3   1 -13    2.01    0.91
   3  -1 -13    2.33    1.47
  -3  -1  13    1.70    0.93
   3  -1 -13    2.08    0.89
  -3   1  13    1.30    0.79
  -3  -1  13    3.73    0.89
  -3   1  13    0.80    1.10
   3   1 -13    1.05    0.88
  -3   1  13    2.06    0.99
   3  -1 -12  564.51   22.00
  -3   1  12  602.76   21.96
  -3   1  12  558.40   21.82
   3  -1 -12  600.63   21.85
  -3  -1  12  603.71   21.98
  -3   1  12  590.25   21.65
   3   1 -12  595.74   21.91
  -3  -1  12  580.95   21.72
   3  -1 -12  558.11   21.86
  -3   1  11  241.63    9.38
  -3   1  11  239.10    9.14
  -3  -1  11  243.04    9.40
   3  -1 -11  239.16    9.33
  -3  -1  11  234.09    9.21
   3   1 -11  238.66    9.36
  -3  -1  10   44.17    2.25
  -3   1  10   47.05    2.21
  -3   1  10   47.50    2.37
   3  -1 -10   46.68    2.31
  -3  -1  10   48.01    2.38
   3   1 -10   46.96    2.37
  -3   1   9   71.03    3.12
   3  -1  -9   73.31    3.10
  -3   1   9   69.57    3.01
  -3  -1   9   72.09    3.14
   3   1  -9   71.07    3.15
  -3  -1   9   63.53    3.06
  -3   1   8  147.06    5.65
  -3   1   8  139.09    5.55
   3   1  -8  153.02    5.73
  -3  -1   8  146.66    5.62
   3  -1  -8  142.71    5.62
  -3   1   7  282.11   10.81
   3  -1  -7  290.31   10.79
   3   1  -7  288.39   10.87
   3  -1  -7  292.61   10.80
  -3   1   7  276.35   10.74
  -3  -1   7  289.41   10.83
  -3  -1   7  285.20   10.80
  -3   1   6  260.63    9.96
   3  -1  -6  258.22    9.95
  -3   1   6  263.25    9.96
   3   1  -6  271.63   10.06
  -3  -1   6  263.53    9.98
  -3  -1   6  271.70   10.00
   3  -1  -6  263.96    9.97
  -3   1   5 3767.72  133.38
  -3  -1   5 3668.98  133.39
   3  -1  -5 3663.12  133.36
  -3   1   5 3602.61  133.39
  -3  -1   5 3590.68  133.40
   3  -1  -5 3703.80  133.40
  -3  -1   4  147.52    5.67
  -3   1   4  151.34    5.65
   3  -1  -4  142.66    5.63
  -3   1   4  150.08    5.72
   3  -1  -4  149.55    5.72
   3  -1  -3  530.52   20.26
   3  -1  -3  562.75   20.17
  -3   1   3  559.89   20.18
  -3  -1   3  540.49   20.20
   3  -1  -2  316.40   11.59
  -3   1   2  314.85   11.60
  -3  -1   2  312.39   11.74
  -3   1   1   89.68    3.81
  -3  -1   1   98.64    3.83
  -3   1   1   97.96    3.62
  -3   1   0 1204.97   44.02
  -3   1  -1  210.34    8.07
  -3  -1  -1  219.61    7.98
   3   1   1  213.72    8.02
   3  -1   1  209.26    8.04
  -3   1  -2 1532.51   54.96
  -3  -1  -2 1509.49   54.90
  -3  -1  -2 1542.74   54.86
   3  -1   2 1495.74   54.94
   3   1   2 1451.50   54.88
   3   1   3   93.08    3.65
  -3   1  -3   94.95    3.76
  -3  -1  -3   95.44    3.68
   3  -1   3   95.58    3.75
  -3  -1  -3   93.44    3.64
   3   1   4  135.11    5.09
  -3   1  -4  135.38    5.21
  -3  -1  -4  135.39    5.11
   3  -1   4  133.73    5.19
  -3  -1  -4  131.23    5.10
   3   1   4  135.76    5.09
   3   1   5 1138.06   40.97
   3   1   5 1138.04   41.02
  -3  -1  -5 1133.79   40.99
  -3   1  -5 1118.52   41.09
   3  -1   5 1142.68   41.08
   3  -1   5 1102.74   40.89
  -3  -1  -5 1119.99   41.02
  -3  -1  -6  295.64   10.65
  -3  -1  -6  269.80   10.72
   3   1   6  288.38   10.73
   3  -1   6  290.63   10.76
  -3   1  -6  290.32   10.79
   3  -1   6  291.21   10.62
  -3  -1  -7 1140.63   42.22
   3   1   7 1169.04   42.39
   3  -1   7 1153.93   42.38
   3  -1   7 1167.75   42.29
  -3  -1  -7 1184.40   42.40
   3  -1   8  146.59    5.55
   3   1   8  143.39    5.60
  -3  -1  -8  142.50    5.59
   3  -1   8  142.86    5.50
   3  -1   9 1632.72   58.09
   3  -1   9 1601.31   58.06
   3   1   9 1596.33   58.16
  -3  -1  -9 1548.44   58.50
  -3  -1  -9 1551.05   58.14
   3  -1  10  260.77    9.39
  -3  -1 -10  249.29    9.52
   3   1  10  260.80    9.55
  -3   1 -10  236.33    9.84
   3  -1  10  249.70    9.46
   3  -1  10  235.28    9.39
  -3  -1 -10  255.43    9.92
  -3   1 -11  482.92   18.44
   3   1  11  504.36   18.11
  -3  -1 -11  494.56   18.07
   3  -1  11  508.89   17.87
   3  -1  11  485.83   18.01
  -3  -1 -11  441.55   18.46
   3  -1  11  456.65   17.86
  -3   1 -11  476.43   18.27
  -3  -1 -11  484.80   18.48
   3   1  12  415.24   15.80
  -3   1 -12  415.28   16.00
  -3  -1 -12  414.84   15.77
  -3   1 -12  428.58   16.20
  -3  -1 -12  404.10   16.27
   3  -1  12  426.91   15.74
  -3  -1 -12  429.25   16.24
  -3  -1 -13  393.62   15.29
  -3   1 -13  387.33   15.23
  -3  -1 -13  384.20   15.37
  -3   1 -13  394.25   15.02
  -3   1 -14   77.26    4.24
  -3  -1 -14   76.52    4.22
  -3  -1 -14   73.96    4.44
  -3   1 -14   82.32    3.88
  -3   1 -15  302.10   12.34
  -3  -1 -15  312.94   12.58
  -3   1 -15  302.74   11.98
  -3  -1 -15  297.40   12.32
  -3   1 -16  201.26    8.09
  -3   1 -16  175.88    8.50
  -3  -1 -16  196.94    8.77
  -3  -1 -16  191.02    8.42
  -3  -1 -17    9.80    2.67
  -3   1 -17    3.86    2.81
  -3   1 -17    7.92    1.91
  -3  -1 -17    5.89    3.14
  -3  -1 -18  317.49   12.87
  -3   1 -18  314.86   12.89
  -3  -1 -18  310.20   13.28
  -3   1 -18  300.08   12.33
  -3   1 -19   61.44    3.50
  -3  -1 -19   51.56    4.25
  -3   1 -19   56.11    4.41
  -3  -1 -19   51.64    4.80
  -3  -1 -20  203.24    9.68
  -3  -1 -20  198.50    8.87
  -3   1 -20  194.00    9.09
  -3   1 -21   89.73    5.58
  -3  -1 -21   92.67    6.21
  -3  -1 -21   86.97    5.26
  -3  -1 -22   46.98    5.19
  -3   1 -22   44.96    4.34
  -3  -1 -22   52.39    3.94
  -3  -1 -23   17.79    2.78
  -3   1 -23   19.77    3.39
  -3  -1 -23   20.00    4.23
  -3  -1 -24  154.87    7.04
  -3  -1 -24  164.31    8.02
  -3   1 -24  157.39    7.45
  -3  -1 -25   41.77    2.94
  -3   1 -25   47.99    3.67
  -3  -1 -25   46.53    4.35
  -3   1 -26   26.67    2.69
  -3  -1 -26   23.80    3.32
  -3   1 -27   65.77    3.71
  -3  -1 -27   77.42    4.31
  -3   1 -28   15.23    1.62
  -3  -1 -28   17.20    2.24
  -3  -1 -29   47.22    2.59
   3  -2 -30   30.59    2.42
   3  -2 -29    4.67    2.52
   3  -2 -28   46.81    4.20
   3   2 -27    8.31    2.09
   3  -2 -27    6.49    2.51
   3  -2 -27    4.04    3.93
   3   2 -26    8.46    2.51
   3  -2 -26    6.58    3.18
   3  -2 -26    4.62    4.36
   3  -2 -25    7.90    3.47
   3  -2 -25    6.16    4.80
   3   2 -25   13.72    2.99
   3  -2 -24   17.99    5.41
   3  -2 -24   11.91    4.14
   3   2 -24   18.78    3.48
   3   2 -23   16.35    3.32
   3  -2 -23    9.96    5.08
   3  -2 -23   13.02    2.79
   3  -2 -23    7.70    4.27
   3  -2 -22   35.80    3.52
   3   2 -22   36.43    3.99
   3  -2 -22   32.55    5.66
   3  -2 -21  253.93   12.77
   3  -2 -21  260.10   11.44
   3   2 -21  292.07   11.85
   3  -2 -20  207.92   10.07
   3  -2 -20  231.09   11.25
   3  -2 -19   83.07    5.00
   3   2 -19   90.51    5.29
   3  -2 -19   79.26    6.20
   3  -2 -18  326.36   13.79
   3   2 -18  354.74   14.02
   3  -2 -18  326.71   14.54
   3   2 -17   11.95    2.67
   3  -2 -17    8.89    3.63
   3  -2 -17    7.60    2.57
   3   2 -16  138.48    5.77
   3   2 -16  144.17    6.54
   3   2 -15  511.28   19.48
   3   2 -15  522.12   18.86
  -3  -2  15  471.76   18.75
   3   2 -14  965.09   35.81
   3  -2 -14  911.24   35.68
   3  -2 -14  992.81   35.39
  -3  -2  14  926.62   35.25
   3   2 -14  966.53   35.31
  -3  -2  13   82.29    3.64
   3   2 -13   81.13    3.66
   3  -2 -13   92.25    3.75
   3  -2 -13   84.73    3.83
  -3  -2  13   71.01    3.80
  -3   2  13   77.51    3.44
  -3   2  13   77.21    3.79
  -3   2  13   83.70    3.85
   3  -2 -13   81.76    4.19
   3  -2 -12 1395.19   52.61
   3   2 -12 1440.46   52.36
  -3   2  12 1413.13   52.48
  -3   2  12 1407.31   52.17
   3  -2 -12 1379.24   52.47
  -3  -2  12 1495.08   52.60
  -3   2  12 1463.25   52.53
  -3  -2  12 1428.87   52.34
   3  -2 -11   42.27    2.59
   3   2 -11   45.01    2.28
   3  -2 -11   42.10    2.32
  -3   2  11   44.29    2.40
  -3   2  11   46.35    2.38
   3   2 -11   44.28    2.39
  -3  -2  11   43.83    2.36
  -3  -2  11   43.78    2.26
  -3   2  11   44.31    2.15
   3  -2 -10 5780.86  213.90
  -3   2  10 5830.60  213.69
  -3   2  10 5933.95  213.91
  -3  -2  10 5940.88  213.96
  -3  -2  10 5920.83  213.83
   3   2 -10 5888.78  213.96
   3  -2  -9  266.88   10.35
  -3   2   9  268.63   10.20
  -3  -2   9  265.13   10.37
  -3  -2   9  273.15   10.34
   3   2  -9  274.30   10.44
  -3   2   9  270.14   10.37
   3  -2  -8  671.96   24.43
  -3  -2   8  682.72   24.55
   3   2  -8  686.57   24.61
  -3  -2   8  648.68   24.48
  -3   2   8  655.71   24.38
   3  -2  -8  643.91   24.48
  -3   2   8  646.54   24.49
   3   2  -7  370.47   14.10
  -3  -2   7  379.25   14.03
  -3   2   7  373.90   13.93
  -3  -2   7  382.10   14.03
  -3   2   7  377.17   14.00
   3  -2  -7  366.12   13.94
   3  -2  -7  363.68   13.98
  -3   2   6 1338.45   49.46
  -3  -2   6 1394.40   49.55
   3  -2  -6 1314.91   49.47
  -3  -2   6 1375.04   49.53
  -3   2   6 1386.54   49.51
   3  -2  -6 1321.07   49.49
  -3  -2   5 1778.83   63.87
  -3   2   5 1711.77   63.84
   3  -2  -5 1742.05   63.83
  -3   2   5 1766.45   63.84
   3  -2  -5 1752.48   63.86
  -3   2   4  150.91    6.02
   3  -2  -4  160.01    5.97
   3   2  -4  152.13    6.11
  -3   2   4  158.86    5.99
  -3  -2   3 1235.72   43.92
   3  -2  -3 1182.58   43.79
  -3   2   3 1172.27   43.89
   3   2  -3 1241.69   43.96
  -3   2   3 1189.08   43.79
  -3  -2   2  109.79    4.25
   3  -2  -2   96.66    4.19
   3  -2  -2  109.54    4.08
   3   2  -2  108.65    4.25
  -3   2   2  105.68    4.08
  -3   2   1   88.07    3.37
   3  -2  -1   87.00    3.35
   3   2  -1   90.16    3.55
  -3  -2   1   87.32    3.55
  -3  -2   0  565.83   20.39
  -3   2   0  538.69   20.44
   3  -2   0  564.81   20.20
   3   2   0  594.87   20.42
  -3  -2   0  554.44   20.41
  -3   2  -1  100.47    4.15
  -3  -2  -1  101.11    4.14
  -3  -2  -1  104.98    4.09
   3  -2   1  105.53    3.85
   3   2   1  101.82    4.08
   3  -2   1  106.51    4.16
  -3   2  -2   94.00    3.78
   3  -2   2   91.36    3.76
  -3  -2  -2   94.12    3.67
  -3  -2  -2   88.85    3.77
   3   2   2   96.84    3.66
   3   2   3  131.99    4.95
  -3  -2  -3  129.35    5.08
  -3   2  -3  126.57    5.11
   3  -2   3  132.18    5.12
  -3   2  -4  655.41   23.63
   3  -2   4  626.69   23.31
   3  -2   4  617.12   23.31
   3  -2   4  670.17   23.62
  -3  -2  -4  677.80   23.47
   3   2   4  664.58   23.42
  -3  -2  -4  672.59   23.61
  -3   2  -5  496.75   18.85
   3   2   5  511.83   18.79
   3  -2   5  505.24   18.59
   3  -2   5  506.06   18.84
  -3  -2  -5  527.48   18.66
   3   2   5  506.41   18.59
  -3  -2  -5  504.28   18.83
  -3  -2  -6   33.01    1.39
  -3  -2  -6   33.22    1.63
   3   2   6   34.22    1.62
   3  -2   6   32.76    1.67
  -3   2  -6   30.00    1.70
   3  -2   6   33.68    1.41
   3   2   7   57.31    2.47
  -3  -2  -7   54.64    2.47
   3  -2   7   54.86    2.26
   3  -2   7   57.34    2.50
   3  -2   8   30.89    1.43
   3   2   8   31.14    1.59
   3  -2   8   31.83    1.63
  -3  -2  -8   29.52    1.59
  -3  -2  -9   41.87    2.48
  -3  -2  -9   39.28    2.22
   3   2   9   39.13    1.98
   3  -2   9   41.00    1.97
  -3  -2  -9   38.06    2.39
   3  -2   9   40.69    1.83
  -3  -2  -9   40.05    2.01
  -3  -2 -10  497.48   18.05
  -3  -2 -10  500.42   18.44
  -3  -2 -10  473.59   18.18
   3   2  10  469.94   18.00
   3  -2  10  500.85   17.93
  -3  -2 -10  456.05   18.35
  -3   2 -10  460.88   18.20
   3  -2  10  482.91   17.87
  -3  -2 -11   54.62    2.70
  -3  -2 -11   57.22    3.02
   3   2  11   60.39    2.75
   3  -2  11   60.31    2.61
  -3  -2 -11   57.91    3.28
  -3   2 -11   55.55    3.07
   3  -2  11   54.98    2.60
   3  -2  11   58.57    2.56
  -3  -2 -11   61.47    3.32
  -3  -2 -12  517.37   19.59
   3   2  12  531.14   19.43
  -3   2 -12  521.52   19.68
  -3  -2 -12  484.99   19.83
  -3  -2 -12  513.51   19.40
  -3  -2 -12  522.92   19.88
  -3  -2 -13    7.36    2.07
  -3   2 -13    7.98    1.73
  -3   2 -14   61.07    3.75
  -3  -2 -14   71.34    4.17
  -3  -2 -15   42.23    3.40
  -3   2 -15   33.36    2.95
  -3   2 -16  225.52    9.63
  -3  -2 -16  225.68    9.91
  -3   2 -17    6.01    2.62
  -3  -2 -17    2.14    2.98
  -3   2 -18  182.84    8.37
  -3  -2 -18  185.26    8.73
  -3  -2 -19  298.70   13.94
  -3  -2 -19  341.49   13.89
  -3   2 -19  342.46   13.57
  -3  -2 -20   41.24    4.11
  -3  -2 -20   46.12    5.14
  -3   2 -20   41.64    3.77
  -3   2 -21   13.30    3.00
  -3  -2 -21   14.04    3.61
  -3  -2 -21   20.35    4.67
  -3  -2 -22   14.93    3.36
  -3  -2 -22   13.98    4.69
  -3   2 -22   16.97    3.06
  -3  -2 -23    0.44    2.95
  -3   2 -23    5.44    2.41
  -3  -2 -23    2.50    4.14
  -3  -2 -24    2.86    2.48
  -3  -2 -24    3.69    3.90
  -3   2 -24    3.90    2.28
  -3  -2 -25    5.39    2.28
  -3  -2 -25    4.55    3.50
  -3   2 -25    5.09    2.12
  -3   2 -26   11.64    1.97
  -3  -2 -26    6.21    1.99
  -3  -2 -26   15.43    3.24
  -3  -2 -27   19.13    2.69
  -3  -2 -28   -2.37    2.06
  -3  -2 -29    0.65    1.23
   3  -3 -30    0.96    1.53
   3  -3 -29    0.69    2.38
   3  -3 -28   13.70    2.32
   3  -3 -28   14.46    3.22
   3  -3 -27   10.55    2.83
   3  -3 -27    8.08    3.61
   3  -3 -26  183.76    9.16
   3  -3 -26  176.16    8.70
   3  -3 -25   27.13    4.29
   3  -3 -25   33.38    5.23
   3  -3 -24   23.82    4.57
   3  -3 -24   28.79    3.27
   3  -3 -24   21.49    5.60
   3   3 -24   32.49    2.96
   3  -3 -23   39.00    3.83
   3   3 -23   44.88    3.50
   3  -3 -23   33.86    5.44
   3  -3 -22   15.67    3.52
   3   3 -22   22.85    2.91
   3   3 -21    4.56    2.51
   3  -3 -21    7.74    3.32
   3  -3 -20   18.36    3.55
   3   3 -20   18.63    2.91
   3  -3 -19   51.25    4.36
   3   3 -19   53.38    3.68
   3   3 -18   32.63    2.42
   3  -3 -18   34.26    3.57
   3   3 -18   31.80    2.96
   3  -3 -17   72.66    4.79
   3   3 -17   77.38    4.41
   3   3 -17   83.81    3.97
   3   3 -16  183.61    7.31
   3   3 -16  176.23    7.67
   3  -3 -15   30.75    3.55
   3   3 -15   36.84    2.31
   3   3 -15   32.54    2.64
   3  -3 -14    0.94    2.28
   3   3 -14    0.33    1.49
   3   3 -14    1.48    1.25
  -3  -3  13    2.74    1.04
   3   3 -13    2.91    1.26
   3  -3 -13    2.92    2.05
   3   3 -13    5.06    1.41
  -3  -3  12  419.41   15.52
   3  -3 -12  405.91   15.81
   3  -3 -12  387.98   15.58
  -3   3  12  399.50   15.24
  -3   3  12  411.05   15.63
   3   3 -12  424.65   15.53
  -3  -3  11   37.24    2.17
   3   3 -11   40.29    2.18
  -3   3  11   38.10    1.92
   3  -3 -11   35.83    2.14
  -3  -3  11   38.30    2.16
  -3   3  11   36.30    2.17
   3  -3 -11   36.76    2.58
   3  -3 -10    1.46    0.86
  -3  -3  10    3.33    1.04
   3  -3 -10    1.96    1.31
   3  -3 -10    1.95    0.89
  -3   3  10    4.02    0.91
   3   3 -10    1.31    0.93
  -3   3  10    3.78    0.92
  -3   3  10    2.28    1.16
  -3  -3  10    2.63    0.93
   3  -3  -9    8.35    1.46
  -3  -3   9   10.34    1.19
  -3   3   9   11.52    1.14
  -3   3   9   10.51    1.06
   3   3  -9   11.10    1.11
   3  -3  -9   12.57    1.20
  -3   3   9    9.72    1.30
   3  -3  -9   12.45    1.13
  -3   3   8 1388.40   50.57
   3  -3  -8 1366.41   50.61
  -3  -3   8 1385.24   50.75
  -3   3   8 1391.22   50.71
   3  -3  -8 1380.67   50.72
   3  -3  -7 1304.95   50.89
  -3   3   7 1444.55   50.83
  -3   3   7 1329.88   50.88
   3  -3  -7 1428.93   50.85
  -3  -3   7 1433.97   50.97
  -3   3   6  106.05    4.22
   3  -3  -6  103.68    4.23
  -3   3   6  100.79    4.23
  -3   3   5 2574.67   94.62
   3  -3  -5 2554.73   94.63
  -3   3   5 2661.04   94.64
   3   3  -5 2601.00   94.77
  -3   3   4  596.97   21.42
  -3   3   4  582.41   21.37
   3  -3  -4  578.90   21.41
   3  -3  -4  561.51   21.35
   3   3  -4  576.83   21.51
  -3   3   3 2552.36   93.27
   3  -3  -3 2544.79   93.19
  -3   3   3 2533.12   93.19
   3  -3  -3 2623.36   93.29
   3   3  -3 2557.95   93.34
   3   3  -2 1641.19   58.87
   3  -3  -2 1540.13   58.71
  -3   3   2 1610.34   58.83
  -3   3   2 1632.10   58.74
   3  -3  -2 1658.81   58.85
  -3  -3   1   14.86    1.03
  -3   3   1   15.47    0.90
   3  -3  -1   15.41    0.87
   3   3  -1   14.82    1.08
  -3  -3   0  193.68    7.15
  -3  -3   0  179.51    7.19
   3  -3   0  187.91    6.98
   3   3   0  182.20    7.12
  -3  -3  -1   20.64    1.24
  -3   3  -1   17.22    1.28
   3  -3   1   18.07    1.27
   3  -3   1   18.50    0.90
   3   3   1   17.64    1.02
  -3  -3  -1   18.61    1.15
   3  -3   2 2044.70   75.48
   3  -3   2 2137.94   75.75
  -3  -3  -2 2093.37   75.80
  -3   3  -2 2028.77   75.75
  -3  -3  -2 2109.67   75.62
  -3  -3  -3  439.89   16.34
  -3   3  -3  445.89   16.30
   3  -3   3  449.21   16.29
   3  -3   3  430.12   16.00
  -3  -3  -3  431.40   16.10
  -3   3  -4 2492.42   91.13
   3  -3   4 2482.40   91.12
  -3  -3  -4 2529.55   91.19
   3  -3   4 2501.87   90.84
   3  -3   4 2495.07   90.85
   3   3   5  142.48    5.61
  -3  -3  -5  149.50    5.77
   3  -3   5  141.66    5.39
   3  -3   5  143.76    5.39
   3  -3   5  147.07    5.70
  -3  -3  -5  141.48    5.41
  -3   3  -5  139.70    5.70
  -3  -3  -6 2943.88  109.96
  -3  -3  -6 3009.10  109.57
   3  -3   6 3028.34  109.65
   3   3   6 3064.26  109.87
   3  -3   6 3023.52  109.90
  -3  -3  -7 1155.68   43.07
   3   3   7 1211.57   42.81
   3  -3   7 1229.20   42.83
  -3  -3  -7 1130.44   42.91
  -3  -3  -7 1157.18   42.88
   3  -3   7 1133.73   42.56
   3  -3   8  328.86   12.19
  -3  -3  -8  316.62   12.33
   3  -3   8  327.79   11.97
   3   3   8  317.30   12.17
  -3  -3  -8  314.77   12.42
  -3  -3  -8  331.19   12.28
  -3  -3  -8  295.41   12.45
  -3  -3  -9  149.92    6.25
   3   3   9  154.13    6.04
  -3  -3  -9  152.59    6.12
   3  -3   9  154.99    6.04
  -3  -3  -9  142.68    6.31
   3  -3   9  145.99    5.80
  -3   3 -10  133.31    5.63
   3   3  10  136.93    5.55
  -3  -3 -10  137.08    5.82
   3  -3  10  141.97    5.53
  -3  -3 -10  134.44    5.61
  -3   3 -10  134.02    5.56
   3  -3  10  135.78    5.34
  -3  -3 -10  125.17    5.89
  -3   3 -11  266.81   10.79
   3   3  11  288.00   10.88
  -3  -3 -11  277.45   10.91
  -3  -3 -11  295.15   11.11
   3  -3  11  282.02   10.76
  -3  -3 -11  281.18   11.35
  -3   3 -11  277.98   10.95
  -3  -3 -11  277.81   11.25
  -3  -3 -12   17.44    2.46
  -3  -3 -12   15.80    1.97
   3   3  12   14.78    1.29
  -3  -3 -12   12.55    2.17
  -3  -3 -12   13.22    1.33
  -3   3 -12   12.52    1.60
  -3  -3 -13  114.24    5.16
  -3  -3 -13  107.69    5.45
  -3   3 -13  104.54    4.96
  -3  -3 -13  106.48    5.52
  -3   3 -14   31.60    2.58
  -3  -3 -14   36.56    3.22
  -3  -3 -14   35.94    2.90
  -3  -3 -14   32.26    3.22
  -3  -3 -15   39.08    3.70
  -3  -3 -15   37.63    3.65
  -3   3 -15   38.40    2.81
  -3  -3 -16   22.51    3.51
  -3  -3 -16   28.01    3.46
  -3   3 -16   24.00    2.66
  -3   3 -17  144.87    6.47
  -3  -3 -17  132.40    7.34
  -3  -3 -17  136.45    7.33
  -3  -3 -18    4.01    3.45
  -3   3 -18    6.84    2.38
  -3  -3 -18    3.12    4.21
  -3   3 -19  195.22    8.33
  -3  -3 -19  178.40    9.22
  -3  -3 -20   17.98    4.26
  -3   3 -20   22.13    2.80
  -3  -3 -21  435.81   18.29
  -3   3 -21  455.05   17.53
  -3   3 -22   35.85    3.02
  -3  -3 -22   36.60    4.26
  -3   3 -23  207.84    8.67
  -3  -3 -23  205.60    9.46
  -3   3 -24   67.96    3.75
  -3  -3 -24   71.70    4.65
  -3  -3 -25  198.78    8.71
  -3  -3 -26   15.95    2.34
  -3  -3 -26   12.61    3.17
  -3  -3 -27   71.11    3.90
  -3  -3 -27   49.82    3.06
  -3  -3 -28    6.30    1.90
   3  -4 -30   54.24    2.86
   3  -4 -29   73.95    3.56
   3  -4 -28  122.50    5.79
   3  -4 -27   87.18    5.07
   3  -4 -26  100.43    5.02
   3  -4 -26  107.32    6.05
   3  -4 -25   71.53    4.49
   3  -4 -25   69.02    5.43
   3  -4 -24  247.72   10.61
   3  -4 -24  233.51   11.54
   3  -4 -23  346.52   14.13
   3  -4 -23  327.79   14.96
   3  -4 -23  334.08   15.09
   3  -4 -22  601.06   23.96
   3  -4 -22  623.87   24.83
   3  -4 -21  138.89    7.40
   3  -4 -21  135.87    8.34
   3  -4 -20   28.62    4.91
   3  -4 -20   34.63    4.30
   3   4 -19  145.15    6.31
   3  -4 -19  131.71    7.16
   3  -4 -19  134.08    7.88
   3  -4 -18   28.44    4.65
   3   4 -18   36.63    2.69
   3  -4 -18   29.71    3.91
   3   4 -17   72.65    3.83
   3  -4 -17   73.80    4.81
   3  -4 -17   64.92    5.38
   3  -4 -16   16.23    3.41
   3  -4 -16   13.10    3.05
   3   4 -16   16.65    1.99
   3  -4 -15  159.97    7.75
   3   4 -15  158.89    6.82
   3  -4 -14  105.54    5.95
   3   4 -14  119.06    5.21
   3  -4 -13    2.05    2.29
   3   4 -13    3.23    1.47
  -3  -4  12   14.61    1.53
   3  -4 -12   12.99    2.30
   3   4 -12   13.63    1.62
   3  -4 -11   21.48    1.47
   3   4 -11   20.10    1.74
  -3   4  11   20.17    1.58
  -3   4  11   21.63    1.38
   3  -4 -11   17.79    2.24
  -3  -4  11   18.87    1.41
   3  -4 -11   17.43    1.58
   3  -4 -10  483.05   17.09
  -3   4  10  443.41   17.26
   3  -4 -10  449.87   17.28
   3   4 -10  451.37   17.23
  -3   4  10  470.16   17.00
  -3  -4  10  426.23   17.27
  -3  -4  10  445.48   17.07
  -3  -4   9   43.10    2.30
  -3   4   9   38.55    2.23
   3   4  -9   42.52    2.29
  -3   4   9   40.05    2.06
   3  -4  -9   44.14    2.30
   3  -4  -9   41.82    2.13
   3  -4  -8    3.48    1.27
   3  -4  -8    5.18    0.94
   3   4  -8    4.38    0.99
  -3   4   8    4.41    0.94
  -3   4   8    5.84    0.93
   3  -4  -8    6.24    0.96
  -3  -4   8    5.08    0.98
   3  -4  -7 1170.31   43.85
   3  -4  -7 1179.56   43.76
  -3   4   7 1197.86   43.76
  -3   4   7 1205.47   43.65
  -3   4   6  214.67    8.32
   3  -4  -6  214.48    8.38
  -3   4   6  219.06    8.39
  -3   4   5  126.21    5.20
   3  -4  -5  132.19    5.23
  -3   4   5  133.66    5.24
   3  -4  -5  127.43    5.24
   3  -4  -4  490.05   18.18
  -3   4   4  489.87   18.16
   3  -4  -4  484.43   18.21
  -3   4   4  488.06   18.19
  -3   4   3  298.37   11.12
   3  -4  -3  289.23   11.20
   3  -4  -3  292.73   11.11
  -3   4   3  298.38   11.20
  -3  -4   2  115.89    4.93
  -3   4   2  120.46    4.93
  -3   4   2  123.58    4.81
   3  -4  -2  121.65    4.94
   3  -4  -2  123.77    4.81
  -3   4   1    5.01    0.93
  -3  -4   1    3.34    0.80
   3  -4  -1    5.42    1.03
   3  -4  -1    4.80    0.66
  -3  -4   0  234.32    9.00
   3  -4   0  231.47    8.77
   3  -4   1   22.94    1.20
  -3  -4  -1   21.91    1.47
   3  -4   2  196.04    7.46
  -3  -4  -2  201.29    7.58
  -3   4  -2  196.40    7.72
   3  -4   2  198.32    7.73
  -3  -4  -2  196.33    7.81
  -3  -4  -3  369.36   13.44
  -3   4  -3  371.94   13.64
   3  -4   3  372.33   13.66
   3  -4   3  343.65   13.36
  -3  -4  -3  357.76   13.74
  -3  -4  -4   68.63    2.83
   3  -4   4   68.52    3.13
   3  -4   4   71.02    2.81
  -3  -4  -4   64.20    3.19
   3  -4   5  126.32    4.97
  -3  -4  -5  128.42    5.42
   3  -4   5  136.58    5.01
   3  -4   5  137.85    5.34
  -3  -4  -5  122.51    4.96
  -3  -4  -6  332.68   12.30
  -3  -4  -6  318.34   12.78
   3  -4   6  328.61   12.43
   3  -4   6  349.45   12.75
   3  -4   6  338.51   12.43
  -3  -4  -6  339.86   12.89
  -3  -4  -6  337.21   12.93
  -3  -4  -7  878.15   32.50
   3  -4   7  862.35   31.97
   3   4   7  850.10   32.21
   3  -4   7  866.62   31.96
   3  -4   7  914.43   32.29
  -3   4  -7  898.28   32.31
  -3  -4  -7  840.61   32.34
  -3  -4  -7  883.26   32.41
  -3  -4  -8 1020.81   37.34
   3   4   8  982.44   36.98
   3  -4   8 1020.37   37.01
  -3   4  -8 1000.56   37.05
  -3  -4  -8 1015.37   37.19
  -3  -4  -8  990.84   37.16
   3  -4   8  997.21   36.75
  -3   4  -9  508.26   18.66
   3  -4   9  497.28   18.35
   3   4   9  491.67   18.59
  -3  -4  -9  511.55   18.80
   3  -4   9  513.12   18.61
  -3  -4  -9  465.04   18.73
  -3  -4  -9  490.12   18.81
  -3  -4  -9  473.22   18.56
  -3  -4  -9  491.10   18.97
   3   4  10  747.87   27.52
  -3  -4 -10  739.38   27.67
   3  -4  10  736.99   27.48
  -3  -4 -10  740.47   27.71
  -3   4 -10  732.02   27.53
  -3  -4 -10  740.01   27.77
  -3  -4 -10  728.37   27.88
  -3  -4 -11  154.27    6.64
  -3  -4 -11  149.78    6.44
   3  -4  11  155.37    6.26
  -3  -4 -11  151.60    6.67
  -3   4 -11  147.67    6.28
   3   4  11  149.10    6.27
  -3  -4 -12  155.11    6.71
  -3  -4 -12  150.58    6.55
  -3   4 -12  139.95    6.12
  -3   4 -12  146.00    6.12
  -3  -4 -13  187.98    7.86
  -3   4 -13  173.79    7.33
  -3   4 -13  179.11    7.37
  -3  -4 -13  180.53    7.99
  -3  -4 -14   10.15    2.71
  -3  -4 -14   12.96    2.56
  -3   4 -14   10.11    1.66
  -3  -4 -15  256.35   10.73
  -3  -4 -15  253.97   10.49
  -3   4 -15  241.01    9.98
  -3  -4 -15  245.76   10.91
  -3  -4 -16   11.07    3.50
  -3   4 -16   10.68    1.86
  -3  -4 -16    8.40    3.32
  -3  -4 -17   98.33    6.40
  -3  -4 -17  108.44    6.35
  -3   4 -17  103.45    5.02
  -3  -4 -18   -0.56    4.15
  -3   4 -18    5.14    2.01
  -3  -4 -18    2.03    3.90
  -3  -4 -19    3.53    4.31
  -3   4 -19    6.86    2.08
  -3  -4 -19    2.62    4.18
  -3  -4 -20    2.16    4.41
  -3  -4 -20   -0.55    4.22
  -3  -4 -21   79.29    5.87
  -3  -4 -21   73.31    5.93
  -3  -4 -22    0.85    3.88
  -3  -4 -22    1.79    4.24
  -3  -4 -23   35.83    4.38
  -3  -4 -23   33.05    4.12
  -3  -4 -24    4.43    3.12
  -3  -4 -24    1.55    3.46
  -3  -4 -25   15.13    2.90
  -3  -4 -25   20.63    3.36
  -3  -4 -26    4.93    2.15
  -3  -4 -26    5.65    2.55
  -3  -4 -27   35.42    2.47
   3  -5 -29   -0.41    1.43
   3  -5 -28    1.40    2.08
   3  -5 -28    1.43    1.77
   3  -5 -27   -0.86    2.52
   3  -5 -27   -0.60    2.64
   3  -5 -26    1.51    3.04
   3  -5 -26    1.96    2.23
   3  -5 -26    1.42    3.17
   3  -5 -25  187.28    8.34
   3  -5 -25  196.37    9.07
   3  -5 -25  177.55    9.05
   3  -5 -24  111.10    6.73
   3  -5 -24  104.82    5.96
   3  -5 -24  104.44    6.80
   3  -5 -23    1.78    4.38
   3  -5 -23    5.32    3.50
   3  -5 -23    1.42    4.63
   3  -5 -22  430.61   17.56
   3  -5 -22  432.10   18.32
   3  -5 -22  433.80   18.11
   3  -5 -21   63.15    5.79
   3  -5 -21   57.73    5.30
   3   5 -20   11.38    2.28
   3  -5 -20   12.61    4.40
   3  -5 -20   13.51    3.86
   3   5 -19    2.91    2.15
   3  -5 -19    1.11    3.72
   3  -5 -19    5.15    3.86
   3  -5 -18   13.00    4.01
   3   5 -18    6.53    2.05
   3  -5 -18    9.26    3.53
   3  -5 -17   98.04    6.11
   3   5 -17  107.92    5.13
   3  -5 -17  103.59    6.28
   3   5 -16  224.68    9.20
   3  -5 -16  213.31    9.82
   3  -5 -16  217.44   10.08
   3   5 -15   91.63    4.43
   3  -5 -15   80.88    5.06
   3  -5 -15   80.30    5.12
   3   5 -14  134.52    6.02
   3  -5 -14  130.30    6.64
   3  -5 -13   13.66    2.65
   3   5 -13   15.61    2.07
   3   5 -12   69.03    3.69
  -3  -5  11   35.67    2.11
   3   5 -11   36.57    2.46
   3  -5 -10  203.46    8.37
  -3   5  10  209.44    8.37
  -3  -5  10  197.82    8.13
   3  -5 -10  217.61    8.14
  -3   5  10  200.48    8.03
   3   5 -10  219.03    8.40
   3  -5 -10  198.22    8.60
  -3   5   9   68.61    3.02
   3  -5  -9   65.09    3.57
  -3  -5   9   62.03    3.03
  -3   5   9   68.31    3.22
   3  -5  -9   66.11    3.22
   3  -5  -9   66.53    3.02
   3   5  -9   68.72    3.29
  -3  -5   9   55.82    3.17
  -3  -5   8  109.19    4.69
  -3   5   8  114.54    4.64
  -3   5   8  106.94    4.75
   3  -5  -8  109.19    4.78
   3  -5  -8  111.28    5.04
   3  -5  -7    9.62    1.52
  -3   5   7    9.58    1.14
   3  -5  -7    9.45    1.07
  -3   5   7   11.62    1.21
  -3  -5   7   10.68    1.20
  -3   5   6  304.63   11.22
   3  -5  -6  297.57   11.41
   3   5  -6  294.67   11.32
   3  -5  -6  293.87   11.31
  -3   5   6  293.52   11.26
   3  -5  -6  283.51   11.23
  -3  -5   6  284.41   11.26
   3  -5  -5   45.57    2.20
   3   5  -5   39.83    2.20
  -3   5   5   39.71    2.12
   3  -5  -5   39.30    2.21
  -3  -5   5   40.28    2.22
  -3   5   5   42.73    2.18
   3  -5  -5   40.95    2.35
  -3  -5   4  515.33   19.98
  -3   5   4  556.71   19.94
  -3   5   4  532.58   19.90
   3  -5  -4  534.68   19.95
   3  -5  -4  550.92   19.95
   3   5  -4  511.36   19.95
   3  -5  -3  208.04    8.06
  -3   5   3  215.01    8.13
  -3   5   3  189.92    8.00
   3  -5  -3  218.73    8.16
  -3  -5   3  210.04    8.19
  -3  -5   2  124.63    5.30
  -3   5   2  133.05    5.29
   3  -5  -2  126.66    5.17
   3  -5  -2  129.85    5.32
  -3   5   1  828.96   30.40
  -3  -5   1  792.65   30.44
   3  -5  -1  830.33   30.42
   3  -5  -1  830.22   30.28
  -3  -5   0  170.26    6.88
  -3   5   0  172.58    6.82
   3  -5   0  165.32    6.81
   3  -5   0  172.33    6.63
  -3  -5  -1  447.46   16.85
   3  -5   1  445.16   16.55
  -3  -5  -1  444.71   16.80
  -3   5  -1  440.37   16.75
   3  -5   2  107.11    4.30
  -3  -5  -2  107.28    4.65
  -3  -5  -2  105.46    4.61
   3  -5   3  528.35   19.31
   3  -5   3  533.01   19.04
  -3  -5  -3  518.80   19.42
  -3  -5  -3  497.01   19.31
  -3   5  -3  479.92   19.26
  -3  -5  -4   16.61    1.08
   3  -5   4   14.29    1.02
   3  -5   4   15.29    1.49
  -3  -5  -4   14.25    1.45
  -3  -5  -4   14.91    1.43
  -3   5  -4   14.11    1.38
  -3  -5  -4   13.68    1.38
  -3  -5  -5  584.15   21.45
   3  -5   5  588.76   21.85
  -3  -5  -5  571.89   21.84
   3  -5   5  585.59   21.54
  -3   5  -5  601.21   21.87
  -3  -5  -5  578.35   21.47
  -3  -5  -5  560.05   21.99
  -3  -5  -5  566.51   21.87
  -3  -5  -5  605.76   21.97
  -3  -5  -6  759.45   26.82
  -3  -5  -6  714.39   26.67
   3  -5   6  721.04   26.63
  -3  -5  -6  695.08   26.17
   3  -5   6  735.72   26.32
  -3  -5  -6  718.29   26.68
  -3  -5  -6  700.79   26.15
  -3  -5  -6  729.13   26.85
   3  -5   6  694.39   26.31
  -3   5  -6  741.54   26.67
   3  -5   7  853.15   31.59
  -3  -5  -7  836.88   31.66
   3  -5   7  832.72   31.28
   3  -5   7  851.44   31.27
  -3   5  -7  882.36   31.64
  -3  -5  -7  850.55   31.59
  -3  -5  -7  872.88   31.84
  -3  -5  -7  869.54   31.81
  -3  -5  -7  821.89   31.61
  -3  -5  -8   35.47    2.27
   3  -5   8   37.26    2.18
  -3  -5  -8   30.69    2.44
  -3  -5  -8   32.57    2.21
  -3   5  -8   32.51    2.18
  -3  -5  -8   30.93    2.14
  -3  -5  -8   33.09    2.51
   3   5   9  412.21   16.27
  -3  -5  -9  433.15   16.44
   3  -5   9  432.29   16.32
  -3  -5  -9  420.45   16.33
  -3  -5  -9  417.77   16.54
  -3   5  -9  438.96   16.35
  -3  -5  -9  437.55   16.68
  -3  -5 -10  177.91    7.30
  -3   5 -10  166.17    7.11
  -3  -5 -10  166.87    7.32
  -3  -5 -10  168.33    7.07
  -3  -5 -10  174.13    7.52
  -3  -5 -11   58.47    3.18
  -3  -5 -11   63.39    3.62
  -3  -5 -11   60.44    3.76
  -3   5 -11   62.69    3.33
  -3  -5 -11   61.61    4.09
  -3  -5 -12  100.08    5.11
  -3   5 -12  101.24    4.66
  -3  -5 -12   94.97    5.06
  -3  -5 -12   99.46    5.44
  -3  -5 -13   -1.88    2.28
  -3  -5 -13    3.99    2.77
  -3  -5 -13    1.33    2.47
  -3   5 -13    3.94    1.71
  -3  -5 -14   17.60    2.86
  -3  -5 -14   14.27    2.92
  -3   5 -14   17.40    1.98
  -3  -5 -15   10.34    3.12
  -3  -5 -15   13.75    3.30
  -3   5 -15   12.26    1.88
  -3  -5 -16  130.49    6.85
  -3  -5 -17    6.94    3.52
  -3  -5 -18  455.37   18.29
  -3  -5 -18  444.47   18.58
  -3  -5 -19   18.01    4.71
  -3  -5 -19   19.04    4.13
  -3  -5 -20  544.89   21.83
  -3  -5 -20  551.90   22.11
  -3  -5 -21   54.84    5.28
  -3  -5 -21   42.11    4.72
  -3  -5 -22  793.26   30.29
  -3  -5 -22  773.25   30.07
  -3  -5 -23    6.75    3.72
  -3  -5 -23   10.02    3.46
  -3  -5 -24  911.50   34.71
  -3  -5 -24  928.70   34.84
  -3  -5 -25  107.17    5.64
  -3  -5 -25  114.16    5.52
  -3  -5 -26  118.93    5.66
  -3  -5 -26  128.69    5.72
  -3  -5 -27   57.42    2.98
  -3  -5 -27   47.78    2.86
   3  -6 -28    1.02    1.57
   3  -6 -28    0.68    1.43
   3  -6 -27   13.04    2.39
   3  -6 -27   11.97    2.22
   3  -6 -26    3.40    2.63
   3  -6 -26    1.71    2.53
   3  -6 -26    3.76    2.12
   3  -6 -25   58.13    3.94
   3  -6 -25   54.37    4.28
   3  -6 -25   54.89    4.61
   3  -6 -24    9.25    3.85
   3  -6 -24    7.18    3.06
   3  -6 -24    8.18    3.51
   3  -6 -23    1.28    4.22
   3  -6 -23    3.20    3.33
   3  -6 -23    3.17    3.74
   3  -6 -22    5.75    3.85
   3  -6 -22    7.39    4.81
   3  -6 -22    7.48    3.73
   3  -6 -21  185.71    9.01
   3  -6 -21  186.48    9.26
   3  -6 -20   31.87    4.63
   3  -6 -20   28.95    4.31
   3   6 -20   29.36    2.93
   3   6 -19  175.55    7.70
   3  -6 -19  163.06    8.64
   3  -6 -19  173.77    8.59
   3  -6 -18    4.53    3.95
   3  -6 -18    1.90    3.66
   3   6 -18    3.60    2.44
   3   6 -17   27.66    2.94
   3  -6 -17   19.07    3.92
   3  -6 -17   22.35    3.74
   3   6 -16   33.57    3.04
   3  -6 -16   28.19    3.75
   3  -6 -16   22.91    3.60
   3   6 -15  630.69   23.22
   3  -6 -15  581.71   23.52
   3  -6 -15  595.41   23.62
   3   6 -14  340.47   13.47
   3  -6 -14  330.90   13.83
   3   6 -13  362.92   13.83
   3  -6 -13  329.29   14.10
   3  -6 -12    9.64    2.37
   3   6 -12    6.82    1.96
   3  -6 -11  292.88   11.62
  -3  -6  11  272.08   11.04
   3   6 -11  293.50   11.37
   3   6 -10   10.11    1.76
  -3  -6  10    6.39    1.35
  -3   6   9 1222.33   45.80
   3  -6  -9 1309.83   46.30
  -3  -6   9 1232.20   45.91
   3  -6  -8  440.91   16.56
  -3   6   8  426.38   16.13
  -3   6   8  426.03   16.32
  -3  -6   8  424.92   16.22
   3  -6  -8  418.08   16.35
  -3   6   7  711.84   25.52
   3  -6  -7  705.80   25.82
   3   6  -7  693.44   25.69
   3  -6  -7  681.09   25.71
  -3   6   7  686.83   25.49
  -3  -6   7  670.21   25.60
  -3   6   7  648.03   25.61
  -3   6   6  216.70    8.60
  -3  -6   6  214.78    8.71
   3  -6  -6  219.61    8.73
   3   6  -6  212.54    8.73
   3  -6  -6  220.90    8.65
   3  -6  -6  229.18    8.90
  -3   6   6  220.41    8.59
  -3   6   6  215.73    8.67
  -3   6   5 1132.90   40.38
   3  -6  -5 1075.25   40.44
  -3  -6   5 1115.16   40.55
   3  -6  -5 1137.50   40.53
   3   6  -5 1099.40   40.45
   3  -6  -5 1070.00   40.38
  -3  -6   5 1065.91   40.44
  -3   6   5 1074.45   40.35
  -3   6   5 1085.74   40.38
   3  -6  -4    3.68    1.16
  -3  -6   4    4.47    1.01
  -3   6   4    4.45    1.09
  -3   6   4    3.51    0.87
   3  -6  -4    3.11    1.28
   3   6  -4    3.99    1.17
   3  -6  -4    3.53    0.91
  -3   6   4    5.68    1.16
  -3  -6   4    3.58    1.30
  -3   6   3  571.23   21.13
   3  -6  -3  571.73   21.16
   3   6  -3  561.15   21.12
   3  -6  -3  580.32   21.18
  -3  -6   3  560.73   21.24
  -3  -6   3  539.67   21.22
  -3   6   3  564.83   21.14
   3  -6  -3  558.56   21.10
   3  -6  -2    2.75    1.22
  -3  -6   2    2.40    0.93
   3   6  -2    3.23    0.98
   3  -6  -2    2.40    0.85
  -3  -6   2    1.27    1.26
  -3   6   2    4.59    1.07
  -3  -6   1  550.15   21.03
  -3  -6   1  564.43   21.08
   3  -6  -1  567.26   20.98
  -3   6   1  564.96   20.97
   3  -6  -1  568.72   20.86
   3   6  -1  536.71   20.85
  -3   6   0    7.65    1.23
   3  -6   0    9.59    1.38
  -3  -6   0    6.43    1.18
   3  -6   0    8.48    0.98
  -3  -6  -1   13.74    1.39
   3  -6   1   13.21    1.50
   3  -6   1   11.15    1.08
  -3   6  -1   12.21    1.47
  -3  -6  -2   47.18    2.72
   3  -6   2   50.68    2.40
  -3   6  -2   53.59    2.77
  -3  -6  -2   49.08    2.79
  -3  -6  -3  221.90    9.07
   3  -6   3  226.66    8.68
  -3  -6  -3  222.57    9.04
  -3  -6  -4  104.03    4.35
  -3  -6  -4  112.22    4.43
  -3   6  -4  101.94    4.75
  -3  -6  -4  110.00    4.91
   3  -6   4  109.01    4.77
  -3  -6  -4  108.27    4.75
   3  -6   4  106.03    4.42
  -3  -6  -4  104.85    4.71
  -3  -6  -4  106.92    4.85
  -3  -6  -5    9.07    1.60
  -3  -6  -5    6.48    1.45
  -3   6  -5    8.51    1.45
   3  -6   5    9.08    1.36
   3  -6   5    9.20    0.91
  -3  -6  -5    8.39    1.37
  -3  -6  -5    6.38    1.54
  -3  -6  -6   57.58    3.23
   3  -6   6   55.09    3.00
  -3  -6  -6   56.68    3.16
  -3  -6  -6   59.02    3.17
  -3  -6  -6   51.91    3.09
  -3   6  -6   58.89    3.04
  -3   6  -7  333.83   12.44
  -3  -6  -7  304.94   12.45
  -3  -6  -7  314.50   12.23
  -3  -6  -7  316.34   12.46
  -3  -6  -7  309.99   12.63
  -3  -6  -7  317.86   12.54
  -3   6  -8  121.69    5.22
  -3  -6  -8  111.84    5.35
  -3  -6  -8  112.91    5.05
  -3  -6  -8  116.69    5.43
  -3  -6  -8  108.42    5.22
  -3   6  -9   45.43    2.88
  -3  -6  -9   42.23    3.12
  -3  -6  -9   41.35    3.13
  -3  -6  -9   40.45    2.67
  -3  -6  -9   44.87    2.84
  -3  -6 -10   32.21    2.95
  -3   6 -10   30.33    2.50
  -3  -6 -10   31.64    2.47
  -3  -6 -10   34.05    3.06
  -3  -6 -10   32.98    2.55
  -3   6 -11  104.46    4.96
  -3  -6 -11  104.39    5.13
  -3  -6 -11  105.31    5.59
  -3  -6 -11  107.17    5.03
  -3  -6 -12   22.43    3.22
  -3   6 -12   24.18    2.42
  -3  -6 -12   26.19    2.39
  -3  -6 -12   23.69    2.63
  -3  -6 -13   31.52    3.66
  -3  -6 -13   31.67    3.67
  -3  -6 -13   31.98    3.10
  -3  -6 -13   30.92    2.55
  -3   6 -13   32.30    2.69
  -3  -6 -14   32.83    4.07
  -3   6 -14   31.33    2.73
  -3  -6 -14   31.89    3.97
  -3  -6 -14   27.67    3.22
  -3   6 -15   49.75    3.31
  -3  -6 -15   46.68    4.76
  -3  -6 -15   51.69    4.00
  -3  -6 -15   47.76    4.34
  -3  -6 -16   24.62    4.62
  -3   6 -16   27.21    2.55
  -3  -6 -16   29.42    3.40
  -3   6 -17    7.70    1.96
  -3  -6 -17    6.69    3.16
  -3  -6 -18  102.44    5.92
  -3  -6 -19  197.38    9.18
  -3  -6 -20   57.97    4.58
  -3  -6 -21    6.95    4.41
  -3  -6 -21   12.36    3.38
  -3  -6 -22    7.97    3.65
  -3  -6 -22   10.19    3.08
  -3  -6 -23    5.69    2.74
  -3  -6 -23    1.29    3.22
  -3  -6 -24   55.36    3.67
  -3  -6 -24   58.24    4.14
  -3  -6 -25    3.43    2.27
  -3  -6 -25    0.53    1.88
  -3  -6 -26    7.78    1.71
  -3  -6 -26   -0.17    1.49
  -3  -6 -27   10.65    1.27
  -3  -6 -27    8.89    1.17
   3  -7 -28    4.39    1.13
   3  -7 -27   17.25    1.93
   3  -7 -27   16.18    1.69
   3  -7 -26    1.05    2.32
   3  -7 -26    2.33    1.80
   3  -7 -26    3.07    1.73
   3  -7 -25   69.32    3.96
   3  -7 -25   68.26    4.01
   3  -7 -25   68.78    4.45
   3  -7 -24    2.12    2.77
   3  -7 -24    4.06    2.57
   3  -7 -23   70.73    4.68
   3  -7 -23   67.12    4.70
   3  -7 -22   10.27    3.70
   3  -7 -22   12.18    3.43
   3   7 -21   97.16    4.94
   3  -7 -21   99.22    6.19
   3  -7 -21   93.81    5.68
   3  -7 -20   22.78    3.89
   3   7 -20   27.94    2.85
   3  -7 -20   24.53    4.98
   3  -7 -20   23.08    4.54
   3  -7 -19   11.32    3.51
   3   7 -19   11.29    2.82
   3  -7 -19   13.93    4.41
   3   7 -18   11.18    2.68
   3  -7 -18    7.67    4.07
   3  -7 -18   11.32    3.20
   3   7 -17  294.45   11.91
   3  -7 -17  275.73   12.13
   3   7 -16   16.07    2.79
   3  -7 -16   13.52    3.41
   3   7 -15   60.32    4.07
   3  -7 -15   50.60    4.17
   3   7 -14  177.90    7.66
   3  -7 -14  171.44    7.80
   3   7 -13   33.73    3.14
   3  -7 -13   30.29    3.78
   3  -7 -13   31.20    3.23
   3  -7 -12    2.50    2.16
   3   7 -12    3.78    2.33
   3  -7 -12    0.73    2.62
   3  -7 -11   18.13    2.39
  -3  -7  11   17.68    1.77
   3  -7 -11   17.39    2.96
   3   7 -11   19.06    2.52
  -3  -7  10  188.11    7.77
   3  -7 -10  192.24    8.12
   3  -7  -9    2.13    1.63
  -3  -7   9    0.48    1.41
   3   7  -8  343.23   13.56
  -3  -7   8  344.82   13.37
  -3  -7   7   39.08    2.52
   3   7  -7   36.46    2.54
   3  -7  -7   35.88    2.24
  -3   7   7   38.17    2.22
  -3  -7   6  263.60   10.60
   3   7  -6  278.89   10.68
   3  -7  -6  262.61   10.50
  -3   7   6  265.37   10.46
   3   7  -5  416.77   15.82
   3  -7  -5  420.35   15.76
   3  -7  -5  390.57   15.79
  -3   7   5  417.67   15.72
  -3  -7   5  411.67   15.83
   3  -7  -4   50.87    2.64
  -3  -7   4   47.83    2.92
   3   7  -4   49.34    2.79
   3  -7  -4   47.28    2.90
   3  -7  -4   46.44    2.65
  -3   7   4   49.10    2.66
   3   7  -3   29.74    2.02
   3  -7  -3   29.05    2.16
   3  -7  -3   29.15    2.08
  -3  -7   3   25.69    2.21
  -3   7   3   33.05    2.09
   3  -7  -3   26.88    1.88
   3  -7  -2  351.11   13.33
   3   7  -2  343.08   13.33
   3  -7  -2  355.82   13.44
  -3   7   2  345.38   13.37
  -3  -7   2  337.27   13.52
   3  -7  -2  344.13   13.35
   3   7  -1  449.82   17.51
   3  -7  -1  449.89   17.52
   3  -7  -1  472.89   17.67
  -3   7   1  481.77   17.65
  -3  -7   1  465.01   17.76
   3   7   0  918.17   34.71
   3  -7   0  925.55   34.88
  -3  -7   0  881.73   34.97
  -3   7   0  972.39   34.90
  -3  -7   0  957.74   35.00
   3  -7   0  970.17   34.77
  -3  -7  -1  602.23   22.35
  -3   7  -1  612.84   22.56
   3  -7   1  598.11   22.36
   3   7   1  580.70   22.31
  -3  -7  -2  532.74   19.23
  -3   7  -2  522.09   19.49
  -3  -7  -2  465.01   19.50
   3  -7   2  514.90   19.24
  -3  -7  -3  814.38   30.82
  -3   7  -3  828.34   30.74
  -3  -7  -4  649.00   24.42
  -3  -7  -4  640.04   24.19
  -3   7  -5  247.22   10.83
  -3  -7  -5  287.06   11.04
  -3  -7  -5  286.45   10.86
  -3  -7  -5  268.70   10.80
  -3   7  -6 1378.33   51.57
  -3  -7  -6 1428.27   51.55
  -3  -7  -6 1363.26   51.64
  -3  -7  -6 1401.96   51.57
  -3  -7  -7    9.58    2.22
  -3  -7  -7   11.72    2.24
  -3  -7  -7   10.14    2.04
  -3   7  -7   10.56    1.91
  -3  -7  -8   13.40    2.45
  -3  -7  -8   18.30    2.59
  -3  -7  -8   18.45    2.38
  -3   7  -8   15.46    2.22
  -3  -7  -9  106.31    5.22
  -3  -7  -9  107.65    5.34
  -3   7  -9  104.75    5.15
  -3  -7  -9  102.45    5.29
  -3  -7 -10  184.53    7.77
  -3  -7 -10  191.28    8.25
  -3   7 -10  190.03    8.01
  -3  -7 -10  184.39    8.06
  -3  -7 -10  175.79    8.26
  -3  -7 -11   64.76    4.29
  -3   7 -11   66.11    3.83
  -3  -7 -11   61.18    3.54
  -3  -7 -11   65.59    3.86
  -3   7 -12  150.85    7.00
  -3  -7 -12  154.09    6.84
  -3  -7 -12  158.55    6.94
  -3  -7 -12  149.14    7.53
  -3  -7 -13    5.50    3.39
  -3   7 -13    7.95    2.34
  -3  -7 -13   11.19    2.34
  -3  -7 -13    6.79    2.37
  -3  -7 -14  100.98    5.29
  -3  -7 -14   99.14    5.02
  -3   7 -14   99.66    5.17
  -3  -7 -14  102.21    6.02
  -3   7 -15   -0.66    2.11
  -3  -7 -15   -3.21    3.85
  -3  -7 -15   -0.80    2.61
  -3   7 -16   80.95    4.43
  -3  -7 -16   81.38    4.76
  -3  -7 -16   75.15    5.75
  -3  -7 -17  139.89    6.79
  -3   7 -17  137.49    6.35
  -3  -7 -17  140.25    7.68
  -3  -7 -18   -1.59    4.46
  -3   7 -18    4.53    2.01
  -3  -7 -18    3.39    2.95
  -3  -7 -19   20.65    4.53
  -3  -7 -19   20.51    3.25
  -3  -7 -20   13.51    4.27
  -3  -7 -20   12.59    2.90
  -3  -7 -21   21.50    2.84
  -3  -7 -22   52.31    3.54
  -3  -7 -23  147.98    6.50
  -3  -7 -24   41.45    2.68
  -3  -7 -24   42.73    3.21
  -3  -7 -25   75.49    3.75
  -3  -7 -25   68.15    3.37
  -3  -7 -26    7.41    1.41
   3  -8 -27  187.78    7.43
   3  -8 -26   -0.10    1.05
   3  -8 -25   73.23    3.59
   3  -8 -25   60.75    3.34
   3  -8 -24   13.82    2.19
   3  -8 -24   18.90    2.65
   3  -8 -23  144.04    6.60
   3  -8 -23  143.89    7.00
   3  -8 -23  131.82    6.27
   3  -8 -22    4.77    3.56
   3  -8 -22    1.33    3.33
   3  -8 -22    6.87    1.89
   3  -8 -22    7.43    2.49
   3   8 -21   39.59    3.05
   3  -8 -21   40.43    4.31
   3  -8 -21   37.01    4.54
   3  -8 -21   38.94    3.55
   3  -8 -20   37.49    3.67
   3  -8 -20   42.81    4.56
   3   8 -20   39.80    3.24
   3  -8 -20   38.00    4.83
   3   8 -19  164.17    7.35
   3  -8 -19  156.24    7.51
   3  -8 -19  154.80    8.55
   3  -8 -18    2.67    2.68
   3   8 -18    2.71    2.79
   3   8 -17  425.13   16.49
   3  -8 -17  399.47   16.52
   3  -8 -16    2.11    2.75
   3   8 -16    2.42    2.97
   3  -8 -16    3.70    4.21
   3  -8 -15   77.24    5.59
   3  -8 -15   73.28    4.75
   3   8 -15   82.96    4.85
   3  -8 -14  183.46    8.14
   3   8 -14  173.14    8.13
   3  -8 -14  180.39    8.61
   3   8 -13  197.09    8.64
   3  -8 -13  187.32    9.05
   3  -8 -13  189.95    8.44
   3  -8 -12   11.93    2.30
   3   8 -12    9.62    2.82
   3  -8 -12    8.23    3.45
   3  -8 -11   68.14    4.48
  -3  -8  11   60.79    3.38
  -3  -8  10    7.71    1.71
   3  -8 -10    9.44    2.92
  -3  -8   9   23.02    2.22
   3   8  -9   27.31    2.87
   3  -8  -9   24.83    2.96
   3   8  -8    4.52    2.03
   3  -8  -8    4.00    2.35
  -3  -8   8    3.25    1.76
   3   8  -7    7.28    2.18
   3  -8  -7    5.67    2.24
  -3  -8   7    6.95    1.81
  -3   8   7    5.13    1.30
   3   8  -6    8.67    2.05
  -3   8   6   10.07    1.54
   3  -8  -6    7.63    2.15
  -3  -8   6    6.40    1.91
   3   8  -5    1.79    1.68
  -3   8   5    0.16    1.39
  -3  -8   5    0.32    1.83
   3   8  -4  173.92    7.34
  -3   8   4  176.80    7.22
  -3  -8   4  164.29    7.40
   3   8  -3   81.13    3.93
  -3  -8   3   78.16    4.16
  -3   8   3   71.45    3.77
   3   8  -2  701.47   26.15
  -3   8   2  706.11   26.18
  -3  -8   2  676.82   26.36
   3   8  -1  163.55    6.84
  -3  -8   1  168.49    7.26
  -3   8   1  161.25    6.97
  -3   8   0   72.67    3.81
   3   8   0   69.83    3.53
  -3  -8   0   77.54    4.15
   3   8   1  180.59    7.51
  -3   8  -1  191.94    7.85
  -3   8  -2  313.05   12.45
  -3   8  -3   49.84    3.24
  -3  -8  -3   46.31    3.40
  -3   8  -4   39.50    2.93
  -3  -8  -4   40.00    3.23
  -3  -8  -5  702.98   25.71
  -3  -8  -5  652.18   25.31
  -3  -8  -6   19.79    2.20
  -3   8  -6   16.85    2.54
  -3  -8  -6   22.57    2.85
  -3  -8  -7  128.36    6.33
  -3   8  -7  139.64    6.23
  -3  -8  -7  133.12    6.13
  -3   8  -8  124.11    5.95
  -3  -8  -8  122.59    6.08
  -3  -8  -8  119.21    5.86
  -3  -8  -9  257.93   10.73
  -3   8  -9  265.23   10.83
  -3  -8  -9  261.58   10.80
  -3  -8  -9  247.08   10.70
  -3  -8 -10  224.57    9.36
  -3   8 -10  211.93    9.13
  -3  -8 -10  197.23    9.19
  -3  -8 -10  215.35    9.22
  -3   8 -11   64.80    4.00
  -3  -8 -11   59.40    4.01
  -3  -8 -11   51.29    4.15
  -3  -8 -12   46.03    3.54
  -3   8 -12   37.48    3.31
  -3  -8 -12   38.51    3.76
  -3  -8 -13  118.01    5.62
  -3   8 -13  120.48    5.95
  -3  -8 -13  127.17    6.06
  -3  -8 -13  114.18    6.54
  -3  -8 -14   -0.10    3.43
  -3   8 -14    1.96    2.59
  -3  -8 -14   -0.08    2.32
  -3  -8 -14   -0.82    2.06
  -3   8 -15   70.58    4.30
  -3  -8 -15   73.23    4.13
  -3  -8 -15   66.18    4.11
  -3  -8 -15   71.21    5.30
  -3  -8 -16  102.30    5.33
  -3   8 -16  104.25    5.35
  -3  -8 -16  111.14    6.43
  -3  -8 -17   42.26    4.65
  -3   8 -17   38.58    3.16
  -3  -8 -17   40.01    3.18
  -3   8 -18   89.47    4.72
  -3  -8 -18   95.65    4.89
  -3  -8 -18   96.98    6.02
  -3  -8 -19  193.85    8.44
  -3  -8 -19  209.74    9.34
  -3  -8 -20   61.38    3.75
  -3  -8 -20   70.03    4.72
  -3  -8 -21   13.60    3.09
  -3  -8 -21   11.01    2.04
  -3  -8 -22    2.93    2.59
  -3  -8 -22    4.39    1.64
  -3  -8 -23   40.83    2.53
  -3  -8 -23   56.40    3.31
  -3  -8 -24   30.02    1.72
   3  -9 -24    1.87    1.97
   3  -9 -24    3.47    1.72
   3  -9 -23   15.54    2.67
   3  -9 -23   19.32    2.54
   3  -9 -22   63.62    3.98
   3  -9 -22   48.91    2.95
   3  -9 -22   72.08    4.18
   3  -9 -22   50.07    3.05
   3   9 -21   75.99    3.77
   3  -9 -21   61.09    3.71
   3  -9 -21   59.79    3.54
   3  -9 -21   70.88    4.71
   3  -9 -20   44.13    3.48
   3   9 -20   49.95    3.32
   3  -9 -20   51.84    4.39
   3  -9 -20   46.64    3.18
   3   9 -19   51.20    3.70
   3  -9 -19   55.15    4.75
   3  -9 -19   53.05    3.53
   3  -9 -18   29.93    4.51
   3  -9 -18   39.72    4.80
   3  -9 -18   41.99    3.20
   3   9 -18   39.16    3.55
   3   9 -17   63.80    4.30
   3  -9 -17   63.08    5.10
   3  -9 -17   54.46    3.78
   3  -9 -17   59.25    5.21
   3  -9 -16    6.91    2.38
   3   9 -16    3.76    3.14
   3  -9 -16    6.74    3.98
   3   9 -15   16.57    3.37
   3  -9 -15   14.16    4.34
   3   9 -14    4.27    3.12
   3  -9 -14    4.04    3.70
   3   9 -13  499.97   20.00
   3  -9 -13  517.98   20.20
   3  -9 -12   10.02    3.56
   3  -9 -11  167.29    7.95
   3   9 -10   48.65    4.06
  -3  -9  10   51.32    3.19
   3  -9 -10   55.21    4.14
   3   9  -9   21.64    3.08
   3  -9  -9   23.96    3.21
  -3  -9   9   18.87    2.30
   3   9  -8    6.64    2.41
  -3  -9   8    5.40    2.03
   3  -9  -8    5.55    2.68
   3   9  -7    2.88    2.35
   3  -9  -7    2.09    2.41
  -3  -9   7    3.67    1.94
  -3   9   7    2.85    1.41
   3   9  -6   33.58    2.95
   3  -9  -6   37.06    2.99
  -3   9   6   41.93    2.61
  -3  -9   6   41.00    3.05
   3   9  -5   55.54    3.55
  -3   9   5   58.14    3.27
   3  -9  -5   52.70    3.45
  -3  -9   5   57.53    3.63
   3   9  -4   36.55    2.88
   3  -9  -4   37.46    2.73
  -3  -9   4   36.90    3.16
  -3   9   4   38.11    2.64
  -3  -9   3    4.47    2.51
   3   9  -3    5.45    1.91
  -3   9   3    8.96    1.95
   3   9  -2   81.73    4.15
  -3   9   2   79.33    4.19
  -3  -9   2   79.57    4.50
   3   9  -1  257.94   10.31
  -3   9   1  250.76   10.41
  -3  -9   1  261.93   10.75
  -3   9   0  278.61   11.40
   3   9   0  290.52   11.21
  -3  -9   0  273.18   11.63
  -3   9  -1  153.21    6.97
   3   9   1  155.13    6.64
  -3  -9  -1  169.21    7.42
  -3   9  -2   73.75    4.17
  -3   9  -3   19.93    2.70
  -3  -9  -4  186.32    8.07
  -3   9  -4  167.11    7.75
  -3   9  -5    4.46    2.59
  -3  -9  -5    5.58    2.77
  -3  -9  -6   14.31    2.94
  -3  -9  -7  116.41    6.01
  -3  -9  -7  114.51    5.47
  -3   9  -8  214.37    8.88
  -3  -9  -8  211.52    9.06
  -3  -9  -8  186.14    8.50
  -3   9  -9   52.31    4.01
  -3  -9  -9   49.80    3.63
  -3  -9  -9   59.19    4.19
  -3   9 -10  693.57   26.62
  -3  -9 -10  709.83   26.68
  -3  -9 -10  678.55   26.51
  -3   9 -11  135.02    6.97
  -3  -9 -11  138.48    6.84
  -3  -9 -11  155.62    7.04
  -3   9 -12  199.75    8.77
  -3  -9 -12  194.94    8.73
  -3  -9 -12  190.70    8.84
  -3  -9 -13   33.02    3.76
  -3   9 -13   35.13    3.54
  -3  -9 -13   40.33    3.52
  -3  -9 -14  111.89    6.31
  -3   9 -14  121.23    5.95
  -3  -9 -14  110.03    5.80
  -3  -9 -15  135.19    6.53
  -3   9 -15  152.42    6.71
  -3  -9 -15  132.61    6.96
  -3   9 -16  110.83    5.52
  -3  -9 -16  103.61    5.25
  -3  -9 -16  112.12    6.10
  -3  -9 -17  128.82    6.55
  -3   9 -17  126.92    6.00
  -3   9 -18   87.66    4.51
  -3  -9 -18   90.15    5.26
  -3   9 -19  113.06    5.26
  -3  -9 -19  123.67    6.01
  -3  -9 -20   65.45    4.20
  -3  -9 -21  149.95    6.62
  -3  -9 -22   11.20    2.03
  -3  -9 -23  102.59    4.55
  -3  -9 -24   40.20    2.11
   3 -10 -24   16.22    1.46
   3 -10 -23    3.90    1.50
   3 -10 -22    7.00    1.98
   3 -10 -21    7.55    2.32
   3 -10 -21    4.22    1.58
   3  10 -20   21.23    2.35
   3 -10 -20   24.15    3.04
   3 -10 -20   20.84    2.93
   3 -10 -20   18.91    2.45
   3 -10 -19   19.55    3.09
   3  10 -19   19.11    2.63
   3 -10 -19   17.05    3.30
   3 -10 -19   21.12    2.81
   3  10 -18  300.23   12.11
   3 -10 -18  317.63   12.49
   3 -10 -18  293.59   12.45
   3 -10 -18  285.24   12.27
   3 -10 -17  208.41    9.78
   3  10 -17  223.65    9.55
   3 -10 -17  228.69    9.95
   3  10 -16  465.31   17.68
   3 -10 -16  456.43   17.90
   3 -10 -16  417.09   17.81
   3 -10 -15  537.35   20.12
   3  10 -15  508.63   19.93
   3 -10 -15  478.63   20.05
   3  10 -14  216.21    9.45
   3 -10 -14  214.33    9.48
   3 -10 -14  195.62    9.32
   3 -10 -13  611.21   22.69
   3 -10 -13  548.78   22.58
   3 -10 -12   11.95    3.52
   3  10 -11  394.58   15.70
   3 -10 -11  383.15   15.75
   3  10 -10   23.27    3.50
   3 -10 -10   23.05    3.33
  -3 -10  10   21.69    2.40
   3  10  -9  729.63   27.40
   3 -10  -9  703.91   27.38
  -3 -10   9  714.60   27.06
   3  10  -8    7.09    2.95
   3 -10  -8    6.41    2.79
  -3 -10   8    7.68    2.35
  -3 -10   7  653.05   24.52
   3  10  -7  629.18   24.63
   3 -10  -7  642.91   24.56
   3  10  -6  147.55    7.05
   3 -10  -6  148.29    6.85
  -3  10   6  154.94    6.55
  -3 -10   6  153.66    7.00
   3 -10  -5  263.77   10.85
  -3  10   5  257.99   10.72
  -3 -10   5  272.54   11.11
   3  10  -5  279.78   11.08
   3  10  -4  119.50    5.82
  -3  10   4  123.66    5.58
  -3 -10   4  116.01    6.02
   3  10  -3   14.10    2.40
  -3  10   3   11.57    2.16
  -3 -10   3   10.44    2.85
   3  10  -2   14.37    2.16
  -3  10   2   10.94    2.25
  -3 -10   2   13.12    3.21
   3  10  -1   13.76    2.08
  -3  10   1   14.84    2.54
  -3 -10   1   11.92    3.21
   3  10   0   85.59    4.27
  -3  10   0   88.72    4.70
  -3 -10   0   82.64    5.23
   3  10   1    2.58    1.55
  -3 -10  -1    2.60    3.07
  -3  10  -1    3.05    2.41
   3 -10   1    1.71    2.12
  -3  10  -2   11.91    2.64
  -3 -10  -2    9.64    3.29
   3 -10   2    9.97    2.12
  -3  10  -3  113.49    5.83
  -3  10  -4    1.76    2.48
  -3  10  -5  104.17    5.51
  -3 -10  -5   99.06    5.90
  -3 -10  -6   75.93    4.80
  -3  10  -6   53.83    4.25
  -3 -10  -7    5.07    3.41
  -3 -10  -8  194.88    8.95
  -3  10  -9  189.71    8.37
  -3 -10  -9  191.50    8.52
  -3 -10  -9  167.63    7.74
  -3 -10 -10    3.47    2.17
  -3  10 -10    4.29    3.25
  -3 -10 -10    8.88    3.25
  -3  10 -11  128.17    6.55
  -3 -10 -11  136.14    6.71
  -3 -10 -11  123.43    6.13
  -3 -10 -12   57.63    4.38
  -3  10 -12   57.75    4.33
  -3 -10 -12   55.89    3.91
  -3  10 -13    6.58    2.80
  -3 -10 -13    6.10    2.93
  -3 -10 -13    6.05    2.60
  -3 -10 -14    4.42    2.71
  -3  10 -14    1.82    2.52
  -3 -10 -14    3.60    2.62
  -3  10 -15   45.46    3.48
  -3 -10 -15   50.69    3.45
  -3 -10 -15   47.62    3.76
  -3  10 -16   12.75    2.44
  -3 -10 -16   16.13    2.88
  -3 -10 -16   12.99    2.24
  -3  10 -17   15.89    2.44
  -3 -10 -17   17.00    2.74
  -3  10 -18    5.85    1.88
  -3  10 -19    4.20    1.41
  -3 -10 -19    5.62    2.02
  -3 -10 -20    2.62    1.75
  -3 -10 -21    3.33    1.40
  -3 -10 -22   -1.21    1.07
   3 -11 -21   54.64    2.87
   3 -11 -21   63.73    3.18
   3 -11 -20   38.72    2.47
   3 -11 -20   37.95    2.62
   3 -11 -19    3.10    1.93
   3  11 -19    2.66    1.79
   3 -11 -19    2.75    2.16
   3 -11 -19    5.07    1.97
   3 -11 -18    5.82    2.11
   3 -11 -18    7.65    2.59
   3 -11 -18    7.78    2.49
   3  11 -18    9.64    2.21
   3  11 -17  112.17    5.45
   3 -11 -17   99.55    5.31
   3 -11 -17  118.43    5.73
   3 -11 -17  109.41    5.70
   3  11 -16    2.37    2.69
   3 -11 -16   -0.21    3.10
   3 -11 -16    4.99    3.26
   3 -11 -16    3.95    2.41
   3 -11 -15    2.98    2.39
   3  11 -15    2.44    2.80
   3 -11 -15   -0.07    3.17
   3 -11 -15   -0.88    3.49
   3 -11 -14    2.76    2.36
   3 -11 -14   -0.83    3.25
   3 -11 -14   -1.59    3.81
   3 -11 -13   27.27    3.64
   3 -11 -13   26.50    2.92
   3 -11 -12   26.21    2.86
   3  11 -12   29.53    3.76
   3 -11 -12   36.35    3.59
   3  11 -11   16.63    3.43
   3 -11 -11   13.78    3.28
   3  11 -10   15.82    3.44
   3 -11 -10   14.04    3.05
   3  11  -9   80.83    4.87
   3 -11  -9   72.74    4.50
  -3 -11   9   75.52    4.13
   3 -11  -8   54.91    3.74
   3  11  -8   49.23    4.03
  -3 -11   8   54.60    3.49
   3  11  -7  338.42   13.62
   3 -11  -7  330.31   13.35
  -3 -11   7  336.73   13.41
   3  11  -6   22.00    2.96
  -3 -11   6   28.66    3.10
   3  11  -5   60.69    3.85
  -3  11   5   52.99    3.29
  -3 -11   5   52.58    3.93
   3  11  -4  141.16    6.50
  -3 -11   4  146.09    6.93
  -3  11   4  132.99    6.22
  -3  11   3   22.18    2.50
   3  11  -3   19.88    2.57
  -3 -11   3   24.46    3.51
   3 -11  -3   15.35    3.60
   3  11  -2   37.75    3.01
  -3  11   2   38.14    3.10
   3 -11  -2   37.15    3.84
   3  11  -1   32.15    2.67
  -3 -11   1   31.77    3.90
   3 -11  -1   24.79    3.38
  -3  11   1   27.90    2.85
  -3  11   0    1.05    2.21
   3  11   0    1.90    1.71
  -3 -11   0    1.97    3.49
   3 -11   0    1.69    2.57
   3 -11   1  392.72   16.17
  -3  11  -1  414.41   16.26
  -3 -11  -1  428.83   16.65
  -3  11  -2    4.96    2.74
  -3 -11  -2    2.56    3.70
   3 -11   2    4.50    2.16
  -3  11  -3  478.74   18.82
  -3  11  -4    3.60    2.83
  -3  11  -5  240.47   10.06
  -3 -11  -5  217.16   10.28
  -3 -11  -6    1.38    3.75
  -3  11  -6    3.26    3.21
  -3  11  -7  531.12   22.82
  -3 -11  -7  671.16   23.32
  -3 -11  -8   20.47    3.89
  -3 -11  -9   87.15    5.58
  -3  11 -10    5.69    3.30
  -3 -11 -10    5.13    3.35
  -3  11 -11  195.31    8.62
  -3 -11 -11  190.37    8.76
  -3 -11 -12    9.26    2.87
  -3 -11 -12    9.21    2.03
  -3  11 -12    8.76    2.97
  -3  11 -13   49.94    3.73
  -3 -11 -13   45.82    3.65
  -3 -11 -13   46.87    3.12
  -3 -11 -14   86.73    4.59
  -3 -11 -14   82.49    4.28
  -3  11 -14   83.46    4.62
  -3  11 -15    0.32    2.20
  -3 -11 -15    2.41    1.84
  -3 -11 -15    3.18    2.02
  -3 -11 -16   42.18    2.70
  -3  11 -16   45.14    3.04
  -3 -11 -16   42.15    2.82
  -3  11 -17   36.70    2.54
  -3 -11 -17   31.74    2.34
  -3 -11 -18   13.12    1.66
  -3  11 -18    9.89    1.56
  -3 -11 -19    7.17    1.33
  -3  11 -19    6.65    1.06
  -3 -11 -20    0.83    0.92
   3 -12 -19    1.13    1.48
   3 -12 -19    3.05    1.21
   3 -12 -18   41.80    2.61
   3  12 -18   36.14    2.51
   3 -12 -18   36.83    2.56
   3  12 -17    7.27    1.98
   3 -12 -17    6.58    1.94
   3 -12 -17    4.83    2.08
   3  12 -16   28.80    2.67
   3 -12 -16   30.37    2.72
   3 -12 -16   27.57    3.03
   3 -12 -15   30.21    2.80
   3 -12 -15   22.53    3.24
   3 -12 -14   60.80    3.83
   3 -12 -14   55.24    4.24
   3 -12 -13   62.36    3.95
   3  12 -13   70.23    4.25
   3 -12 -13   59.23    4.86
   3  12 -12   25.08    3.15
   3 -12 -12   27.68    2.95
   3 -12 -11   33.01    3.08
   3  12 -11   34.65    3.48
   3  12 -10   11.59    2.91
   3 -12 -10    8.68    2.37
   3 -12 -10    2.19    3.64
   3  12  -9   93.95    5.07
  -3 -12   9   84.16    4.25
   3 -12  -9   83.30    4.48
   3 -12  -9   90.50    5.95
   3 -12  -8   17.59    4.16
  -3 -12   8   16.76    2.42
   3  12  -8   18.25    3.00
   3 -12  -7   44.25    4.80
   3  12  -7   49.37    3.59
  -3 -12   7   44.80    3.38
  -3 -12   6   17.14    2.58
   3  12  -6   16.48    2.83
   3 -12  -6   11.87    3.82
   3  12  -5  105.24    5.37
  -3 -12   5  103.00    5.49
   3 -12  -5  105.68    6.10
  -3  12   4   10.99    2.01
   3  12  -4   11.69    2.48
  -3 -12   4   13.81    3.03
   3 -12  -4   13.58    3.43
  -3 -12   3   62.39    4.38
  -3  12   3   60.80    3.67
   3 -12  -3   59.39    4.69
   3  12  -3   64.29    3.82
   3  12  -2   23.22    2.57
  -3  12   2   24.89    2.64
  -3 -12   2   21.84    3.56
   3 -12  -2   17.99    3.49
   3  12  -1    3.88    1.86
   3 -12  -1    7.61    2.81
  -3  12   1    6.60    2.37
  -3 -12   1    4.49    3.30
  -3  12   0   38.27    3.28
   3 -12   0   37.09    3.41
  -3 -12   0   44.96    4.27
  -3  12  -1   10.44    2.81
  -3 -12  -1   14.06    3.89
   3 -12   1   11.25    2.43
  -3 -12  -2   25.84    4.26
  -3  12  -2   28.25    3.18
  -3  12  -3  141.43    6.58
  -3 -12  -3  125.95    7.22
  -3  12  -4   55.52    4.10
  -3  12  -5  449.94   17.77
  -3  12  -6   12.26    3.19
  -3 -12  -6    8.61    3.95
  -3  12  -7   22.94    3.37
  -3 -12  -7   21.06    4.04
  -3  12  -8  103.45    6.01
  -3 -12  -8  135.41    6.45
  -3 -12  -9   53.75    4.31
  -3 -12 -10  327.66   13.35
  -3  12 -11   18.89    2.93
  -3 -12 -11   18.14    2.97
  -3  12 -12   33.73    3.13
  -3 -12 -12   29.07    3.21
  -3  12 -13   17.66    2.59
  -3 -12 -13   20.81    2.58
  -3 -12 -14   17.45    2.19
  -3  12 -14   16.05    2.34
  -3  12 -15   69.89    3.50
  -3 -12 -15   56.90    3.18
  -3  12 -16    6.68    1.59
  -3 -12 -16    5.76    1.13
  -3  12 -17   25.80    1.76
   3 -13 -18   16.88    1.30
   3 -13 -17  205.79    8.14
   3 -13 -16   53.44    3.02
   3 -13 -15   10.84    2.22
   3 -13 -14   16.32    2.62
   3  13 -14   16.64    2.13
   3 -13 -14   16.30    1.80
   3 -13 -13   68.65    3.51
   3  13 -13   76.80    3.88
   3  13 -12   41.14    3.03
   3  13 -11   77.09    4.15
   3 -13 -11   74.63    4.70
   3  13 -10   -0.37    2.24
   3 -13 -10   -0.16    3.12
   3  13  -9   31.09    3.02
   3 -13  -9   30.74    3.68
   3  13  -8    8.21    2.34
   3 -13  -8    9.07    3.25
   3  13  -7   14.89    2.42
  -3 -13   7   12.31    2.07
   3 -13  -7   15.36    3.39
   3  13  -6    1.76    2.17
  -3 -13   6    1.55    1.95
   3 -13  -6   -3.12    3.27
   3  13  -5    5.30    2.11
  -3 -13   5    6.89    2.42
   3 -13  -5    5.77    2.90
   3  13  -4   10.98    2.19
  -3 -13   4   14.52    2.78
   3 -13  -4   13.96    3.06
   3 -13  -3   -1.28    2.91
   3  13  -3    1.31    1.77
  -3 -13   3    2.31    2.58
  -3  13   3    0.68    1.62
  -3 -13   2    4.81    2.96
   3  13  -2    0.96    1.64
  -3  13   2    0.06    1.82
   3 -13  -2    2.21    2.56
  -3  13   1    7.31    1.98
   3 -13  -1   10.64    2.41
  -3 -13   1   10.68    3.10
  -3 -13   0   22.06    3.40
   3 -13   0   22.89    2.51
  -3  13   0   19.16    2.51
  -3  13  -1   21.74    2.71
  -3 -13  -1   23.64    3.51
   3 -13   1   19.35    2.28
  -3  13  -2   75.84    4.28
  -3 -13  -2   82.66    5.07
  -3  13  -3   19.23    2.65
  -3 -13  -3   23.44    3.57
  -3  13  -4   67.64    4.09
  -3 -13  -4   70.25    4.72
  -3  13  -5    8.32    2.59
  -3  13  -6   52.85    3.67
  -3  13  -7   79.32    4.58
  -3 -13  -7   84.78    5.04
  -3  13  -8   37.39    3.12
  -3 -13  -8   33.96    3.60
  -3  13  -9   30.24    3.07
  -3 -13  -9   36.66    3.41
  -3 -13 -10   -2.17    2.51
  -3  13 -11    6.08    2.20
  -3 -13 -11    9.41    2.29
  -3 -13 -12   90.62    4.40
  -3  13 -12   88.63    4.40
  -3  13 -13  102.05    4.58
  -3 -13 -13   93.70    4.42
  -3  13 -14   34.66    2.23
  -3 -13 -14   31.86    2.04
  -3 -13 -15   54.67    2.69
  -3  13 -15   76.75    3.07
  -3  13 -16   18.22    1.31
   3 -14 -15    5.10    1.08
   3  14 -13   39.21    2.23
   3 -14 -12   15.00    2.08
   3  14 -12   19.54    1.77
   3  14 -11    3.31    1.42
   3 -14 -11    5.85    2.02
   3  14 -10   85.03    4.06
   3 -14 -10   90.56    4.48
   3  14  -9    4.30    1.63
   3 -14  -9    8.84    2.26
   3  14  -8  196.56    8.16
   3 -14  -8  209.61    8.56
   3  14  -7   21.70    2.11
   3 -14  -7   28.37    2.79
   3  14  -6  140.35    6.13
  -3 -14   6  143.48    6.08
   3 -14  -6  160.60    6.68
   3  14  -5   11.28    1.65
  -3 -14   5   14.20    1.88
   3 -14  -5   11.71    2.35
  -3 -14   4  365.17   13.30
   3 -14  -4  350.70   13.45
  -3 -14   3    7.12    2.20
   3 -14  -3   11.77    2.15
   3 -14  -2  106.55    5.01
  -3  14   1    2.55    1.37
  -3 -14   1    2.77    2.30
   3 -14  -1    1.67    1.70
  -3  14   0   71.18    3.63
  -3 -14   0   78.65    4.33
  -3 -14  -1  116.61    5.40
  -3  14  -1  100.91    4.80
  -3  14  -2   12.68    2.06
  -3 -14  -2   13.59    2.71
  -3  14  -3    1.75    1.83
  -3 -14  -3    1.92    2.52
  -3  14  -4    2.66    1.79
  -3 -14  -4    1.51    2.48
  -3  14  -5  109.60    5.06
  -3  14  -6    3.77    1.80
  -3  14  -7   12.88    1.97
  -3 -14  -7   13.94    2.41
  -3  14  -8   12.15    1.88
  -3 -14  -8    6.16    2.17
  -3  14  -9   28.81    2.27
  -3 -14  -9   34.20    2.61
  -3 -14 -10    3.90    1.72
  -3  14 -10    3.67    1.58
  -3 -14 -11   89.59    4.03
  -3 -14 -12   11.36    1.27
  -3  14 -12   10.10    1.38
  -3  14 -13   71.83    3.18
   3 -15 -11    1.03    0.88
   3 -15 -10    7.33    1.22
   3 -15  -9   11.00    1.36
   3 -15  -8   -0.64    1.29
   3 -15  -7   24.06    1.89
   3 -15  -6    2.53    1.37
   3 -15  -5   40.10    2.30
  -3 -15   4   46.30    2.35
   3 -15  -4   49.13    2.51
  -3 -15   3   36.35    2.04
   3 -15  -3   28.48    1.88
  -3 -15   2  159.85    6.54
  -3 -15   1  226.09    8.93
  -3 -15   0   12.16    1.77
  -3  15  -1   54.75    2.65
  -3 -15  -1   70.75    3.29
  -3  15  -2   20.32    1.48
  -3 -15  -2   23.68    2.11
  -3 -15  -3  294.83   10.56
  -3  15  -3  251.28   10.21
  -3  15  -4   26.54    1.74
  -3 -15  -4   26.14    2.18
  -3  15  -5  219.89    8.88
  -3 -15  -5  244.84    9.13
  -3  15  -6   98.17    4.20
  -3  15  -7   36.16    1.98
  -3  15  -8   34.80    1.93
  -3 -15  -8   38.87    2.10
  -3 -15  -9   52.59    2.45
  -3  15  -9   50.33    2.38
   4   0 -29    0.29    1.88
   4   0 -28  313.05   12.79
   4   0 -27   -1.66    3.02
   4   0 -26   91.78    6.07
   4   0 -25   -4.36    4.11
   4   0 -24   33.14    5.04
   4   0 -23   -1.89    2.91
   4   0 -23    0.87    4.39
   4   0 -22   11.16    4.37
   4   0 -21    0.30    4.11
   4   0 -20  152.12    8.50
   4   0 -19    1.26    3.89
   4   0 -18   22.81    4.25
   4   0 -17    3.02    3.30
  -4   0  17   -0.24    1.56
   4   0 -16   34.03    3.04
  -4   0  16   40.81    2.58
  -4   0  15    1.03    1.34
   4   0 -15   -1.15    1.93
  -4   0  14   82.16    3.88
   4   0 -14   74.27    4.17
  -4   0  14   76.38    3.60
   4   0 -14   84.60    3.89
  -4   0  13    0.29    0.90
   4   0 -13    1.14    1.67
  -4   0  13   -0.14    1.20
   4   0 -13   -0.11    0.91
  -4   0  13   -0.12    0.87
  -4   0  12   19.91    1.61
   4   0 -12   18.96    1.54
   4   0 -12   17.95    1.87
  -4   0  12   17.88    1.51
   4   0 -11    0.29    1.23
  -4   0  11    0.28    0.81
   4   0 -11    0.10    0.81
  -4   0  11   -0.63    1.02
   4   0 -10   33.09    1.94
  -4   0  10   33.96    1.89
  -4   0  10   29.96    1.88
  -4   0   9    0.70    0.67
  -4   0   8 1548.77   56.71
  -4   0   7    0.41    0.64
  -4   0   6   32.98    1.64
  -4   0   5    0.85    0.50
  -4   0   4   98.55    3.90
  -4   0   3    0.60    0.76
  -4   0   3   -0.03    0.45
  -4   0   2  525.69   18.91
  -4   0   2  506.30   19.11
   4   0  -2  504.76   19.10
  -4   0   1    1.05    0.77
   4   0  -1    0.07    0.68
  -4   0   1    0.45    0.33
  -4   0   0  102.61    3.98
  -4   0   0  109.77    4.27
  -4   0   0  107.50    3.95
   4   0   0  104.72    4.24
  -4   0  -1    0.57    0.77
   4   0   1    0.53    0.62
  -4   0  -2  102.73    4.12
   4   0   2  102.21    4.10
   4   0   3    0.04    0.57
  -4   0  -3    0.14    0.76
  -4   0  -4  314.76   11.79
   4   0   4  314.71   11.75
   4   0   5    0.28    0.62
  -4   0  -5    0.81    0.71
  -4   0  -6 6956.35  249.35
   4   0   6 6782.04  249.30
   4   0   7    1.60    0.35
  -4   0  -7    2.18    0.74
   4   0   7    0.87    0.59
  -4   0  -7    1.86    1.06
   4   0   8 4747.23  170.72
   4   0   8 4679.30  170.65
  -4   0  -8 4674.33  171.11
  -4   0  -8 4653.97  171.18
  -4   0  -9    1.66    1.20
   4   0   9    0.81    0.51
   4   0   9    0.81    0.44
  -4   0  -9    1.13    1.32
  -4   0 -10  556.27   20.72
  -4   0 -10  539.62   20.82
  -4   0 -11    1.51    1.33
  -4   0 -11   -0.12    1.56
  -4   0 -12  810.93   31.57
  -4   0 -12  866.33   31.46
  -4   0 -13    0.62    1.78
  -4   0 -13    0.29    2.12
  -4   0 -14   35.40    3.20
  -4   0 -14   39.96    2.92
  -4   0 -15    0.76    1.88
  -4   0 -15    0.50    2.67
  -4   0 -16  525.40   20.40
  -4   0 -16  515.21   20.07
  -4   0 -17    0.44    2.23
  -4   0 -17    0.64    3.22
  -4   0 -18  631.56   24.44
  -4   0 -18  621.03   23.97
  -4   0 -19    3.95    2.43
  -4   0 -19   -1.27    3.19
  -4   0 -20   31.22    3.00
  -4   0 -20   33.17    4.22
  -4   0 -21   -0.10    3.51
  -4   0 -21    3.80    2.25
  -4   0 -22    0.51    2.11
  -4   0 -22    5.15    3.49
  -4   0 -23    1.77    3.00
  -4   0 -24   29.25    3.54
  -4   0 -25    5.67    2.59
  -4   0 -26   19.54    2.66
  -4   0 -27   -1.51    1.75
  -4   0 -28   28.35    1.87
   4  -1 -30   27.74    2.09
   4  -1 -29   20.95    2.48
   4   1 -28   26.45    2.51
   4  -1 -28   22.12    3.35
   4  -1 -27   30.07    4.06
   4   1 -27   37.44    3.40
   4  -1 -26  293.54   13.05
   4   1 -26  315.43   12.66
   4  -1 -26  285.76   12.16
   4  -1 -25  100.40    7.06
   4   1 -25  106.19    6.18
   4  -1 -25   99.63    5.74
   4  -1 -24   72.35    5.23
   4  -1 -24   64.52    6.41
   4   1 -24   73.30    5.49
   4  -1 -23    2.78    4.88
   4   1 -23    0.77    3.64
   4  -1 -22  212.77   11.81
   4   1 -22  263.73   11.49
   4   1 -21   36.43    4.70
   4  -1 -21   37.05    3.51
   4  -1 -21   33.86    5.67
   4   1 -20  129.43    7.33
   4  -1 -20  122.73    6.28
   4  -1 -20  114.24    7.85
   4  -1 -19    7.89    4.38
   4  -1 -19   11.78    2.92
   4   1 -18    9.90    3.52
   4  -1 -18    9.98    4.13
   4   1 -17  228.78    9.99
   4  -1 -17  196.00   10.13
  -4  -1  16  172.23    7.30
   4  -1 -16  172.77    8.00
  -4   1  16  183.45    7.51
  -4   1  15   57.94    3.17
  -4  -1  15   53.90    2.94
   4  -1 -15   50.52    3.59
  -4   1  14  173.44    7.03
   4  -1 -14  161.38    7.32
  -4  -1  14  166.01    6.89
  -4   1  14  161.55    6.69
   4  -1 -14  172.66    7.01
  -4   1  13   70.73    3.41
   4  -1 -13   72.39    3.44
   4   1 -13   63.24    3.57
  -4  -1  13   67.75    3.36
  -4   1  13   69.95    3.22
   4   1 -13   67.89    3.42
   4  -1 -13   74.21    3.86
  -4   1  13   67.80    3.49
  -4   1  12    6.05    1.07
  -4   1  12    6.59    1.03
  -4  -1  12    5.53    1.23
   4  -1 -12    4.70    1.66
   4   1 -12    6.27    1.49
  -4  -1  12    5.99    1.07
  -4   1  12    6.90    1.34
   4  -1 -12    6.25    1.10
   4   1 -12    5.58    1.09
  -4  -1  11  287.59   10.93
  -4  -1  11  268.56   10.78
   4  -1 -11  279.93   10.83
   4  -1 -11  265.35   10.96
  -4   1  11  293.42   10.92
  -4   1  11  282.83   10.73
  -4   1  11  289.26   10.91
   4   1 -11  279.12   10.95
  -4  -1  11  272.48   10.79
  -4   1  10  128.00    5.43
   4  -1 -10  133.92    5.59
  -4   1  10  128.95    5.48
   4  -1 -10  130.35    5.41
  -4  -1  10  141.00    5.51
  -4   1  10  132.70    5.36
  -4  -1  10  129.63    5.41
   4   1 -10  132.72    5.53
  -4  -1  10  128.35    5.41
   4  -1  -9  210.98    8.40
  -4   1   9  216.50    8.40
   4   1  -9  221.60    8.59
  -4  -1   9  225.73    8.51
  -4   1   9  219.25    8.45
  -4   1   9  205.11    8.46
  -4  -1   9  217.86    8.45
   4  -1  -8 2123.20   77.53
  -4   1   8 2144.14   77.57
  -4   1   8 2106.86   77.54
   4   1  -8 2181.06   77.69
  -4  -1   8 2124.01   77.59
  -4  -1   8 2071.02   77.58
  -4   1   7  147.89    5.94
   4   1  -7  147.77    6.04
   4  -1  -7  150.50    5.97
  -4  -1   7  152.23    5.93
  -4   1   7  153.48    5.90
   4  -1  -7  142.81    5.84
  -4  -1   7  152.03    5.99
   4  -1  -6 1161.71   44.12
   4  -1  -6 1194.34   44.03
  -4   1   6 1258.78   44.07
  -4   1   6 1214.40   44.13
  -4  -1   6 1158.05   44.13
  -4  -1   6 1223.53   44.08
   4  -1  -5    9.12    0.98
  -4   1   5    8.66    0.78
  -4  -1   5    7.72    0.83
  -4   1   5    9.54    1.06
  -4   1   4 1747.41   60.49
  -4  -1   4 1709.70   60.52
   4  -1  -4 1669.23   60.62
  -4   1   3   18.09    0.95
  -4  -1   3   17.59    1.01
  -4   1   2  724.20   27.46
  -4   1   2  739.05   27.21
  -4  -1   2  766.40   27.29
  -4  -1   1  438.27   15.89
  -4   1   1  436.46   16.09
  -4   1   1  425.91   15.79
   4  -1  -1  436.77   16.09
  -4  -1   0  246.92    9.49
  -4   1   0  258.11    9.66
  -4  -1   0  263.75    9.62
   4  -1   0  252.53    9.63
  -4   1  -1   14.63    1.08
  -4  -1  -1   13.42    0.84
   4   1   2   20.97    1.19
  -4  -1  -2   19.43    0.97
  -4   1  -2   21.52    1.31
  -4  -1  -2   19.82    1.22
   4   1   3   21.06    1.21
  -4   1  -3   23.05    1.34
  -4  -1  -3   20.76    1.27
  -4  -1  -4  594.96   21.92
  -4   1  -4  592.75   22.14
  -4  -1  -4  595.72   22.06
   4   1   4  612.46   22.04
   4   1   5   62.67    2.57
  -4  -1  -5   61.67    2.62
  -4  -1  -5   61.99    2.47
  -4   1  -5   60.55    2.74
  -4  -1  -6  292.66   10.80
  -4   1  -6  281.94   10.92
  -4  -1  -6  290.06   10.73
   4   1   7  278.04   10.11
  -4   1  -7  268.36   10.27
  -4   1  -7  255.01   10.48
  -4  -1  -7  278.54   10.11
  -4  -1  -7  266.23   10.10
  -4  -1  -7  265.73   10.53
  -4  -1  -8  406.21   13.67
  -4  -1  -8  417.39   13.60
   4   1   8  418.63   13.69
   4  -1   8  381.55   13.47
  -4   1  -8  405.75   14.15
  -4   1  -8  391.02   14.00
  -4  -1  -8  413.43   14.20
   4   1   9  599.68   20.89
  -4  -1  -9  598.80   20.88
   4  -1   9  523.77   20.69
  -4   1  -9  583.09   21.20
  -4   1  -9  561.79   21.31
  -4  -1  -9  586.20   21.38
  -4   1 -10   15.73    1.45
   4   1  10   12.71    0.93
  -4  -1 -10   12.18    0.90
  -4  -1 -10   11.55    1.69
  -4   1 -10   12.71    1.70
  -4   1 -11  278.65   10.86
  -4   1 -11  282.98   11.05
  -4  -1 -11  268.92   11.08
  -4   1 -12   56.68    3.09
  -4   1 -12   62.56    3.44
  -4  -1 -12   55.29    3.34
  -4  -1 -13  425.94   17.19
  -4   1 -13  438.91   17.06
  -4   1 -13  442.80   16.82
  -4  -1 -13  439.92   17.07
  -4   1 -14  446.76   17.32
  -4  -1 -14  432.76   17.48
  -4   1 -14  443.05   17.04
  -4  -1 -14  445.25   17.33
  -4   1 -15  248.13    9.79
  -4  -1 -15  236.04   10.35
  -4   1 -15  231.60   10.19
  -4  -1 -15  238.23   10.14
  -4  -1 -16  126.11    6.59
  -4   1 -16  129.58    6.46
  -4   1 -16  128.70    5.87
  -4  -1 -16  125.98    6.24
  -4  -1 -17  148.17    7.46
  -4   1 -17  135.06    7.07
  -4   1 -17  147.25    6.50
  -4  -1 -17  145.57    6.93
  -4  -1 -18   13.05    2.86
  -4   1 -18   17.94    2.36
  -4  -1 -18   16.88    3.89
  -4   1 -18   13.95    3.33
  -4   1 -19   54.31    3.34
  -4   1 -19   53.32    4.45
  -4  -1 -19   51.60    4.77
  -4  -1 -19   53.83    4.21
  -4   1 -20   96.85    4.94
  -4  -1 -20  105.57    6.22
  -4  -1 -20  105.36    5.57
  -4   1 -20   99.35    5.85
  -4  -1 -21    9.07    2.85
  -4  -1 -21    4.78    4.21
  -4   1 -21    2.76    3.31
  -4  -1 -22  129.09    7.07
  -4  -1 -22  117.88    6.06
  -4   1 -22  131.99    6.52
  -4  -1 -23    2.50    2.31
  -4   1 -23    7.03    2.75
  -4  -1 -23    8.16    3.71
  -4   1 -24   11.20    2.63
  -4  -1 -24   11.18    3.40
  -4   1 -25   40.17    3.38
  -4  -1 -25   53.06    3.86
  -4   1 -26    9.12    2.08
  -4  -1 -26   10.80    2.77
  -4  -1 -27   60.20    3.47
  -4   1 -27   55.70    2.94
  -4  -1 -28    0.17    1.40
   4  -2 -30    3.96    1.60
   4  -2 -29   31.04    2.93
   4  -2 -28    6.47    3.09
   4  -2 -27   21.01    3.82
   4  -2 -27   19.83    2.68
   4   2 -27   24.89    2.31
   4  -2 -26    0.19    2.89
   4  -2 -26   -0.62    4.06
   4   2 -26    4.28    2.35
   4  -2 -25   40.41    5.20
   4  -2 -25   36.92    4.29
   4   2 -25   35.60    3.60
   4   2 -24    6.60    3.07
   4  -2 -24   -1.48    5.07
   4  -2 -24    1.55    3.54
   4   2 -23   -0.85    3.19
   4  -2 -23    3.05    2.77
   4  -2 -23    0.77    5.15
   4  -2 -22  206.63    9.59
   4   2 -22  234.59   10.18
   4  -2 -22  210.18   11.30
   4  -2 -21   55.60    6.37
   4  -2 -21   54.74    4.31
   4   2 -21   63.70    4.86
   4  -2 -20  102.14    6.14
   4   2 -20  117.21    6.36
   4  -2 -20  116.43    7.53
   4  -2 -19  587.46   23.59
   4  -2 -19  560.32   24.46
   4  -2 -18  248.45   12.40
   4   2 -18  287.09   11.87
   4  -2 -17  296.76   14.09
   4   2 -17  348.70   13.68
   4   2 -16  640.38   24.22
   4  -2 -16  603.93   23.96
   4  -2 -15    6.14    2.63
  -4  -2  15   11.64    1.52
  -4  -2  14  950.65   36.42
   4  -2 -14 1009.84   36.64
   4  -2 -14  976.64   36.84
  -4   2  14 1003.64   36.65
   4   2 -13  114.60    4.94
   4  -2 -13  104.63    5.31
  -4   2  13  110.07    5.04
  -4   2  13  112.69    4.69
  -4  -2  13  113.75    4.86
   4   2 -13  109.37    5.00
  -4  -2  13  111.47    4.82
  -4  -2  12 1930.67   68.68
  -4  -2  12 1817.64   68.40
  -4   2  12 1900.09   68.61
   4   2 -12 1914.70   68.49
  -4   2  12 1830.88   68.31
  -4  -2  12 1874.39   68.46
   4  -2 -12 1877.34   68.70
   4   2 -12 1829.55   68.62
   4  -2 -12 1833.75   68.51
  -4   2  12 1894.45   68.58
   4  -2 -11  348.31   13.73
  -4   2  11  362.51   13.81
   4   2 -11  358.64   13.75
  -4  -2  11  354.13   13.69
   4  -2 -11  341.94   13.91
  -4   2  11  354.61   13.86
  -4   2  11  361.95   13.61
   4   2 -11  363.79   13.90
  -4  -2  11  377.04   13.90
  -4  -2  11  370.49   13.75
   4   2 -10 2053.26   74.61
   4  -2 -10 1990.29   74.70
  -4   2  10 1933.10   74.69
  -4  -2  10 2004.21   74.59
  -4   2  10 2058.85   74.49
   4  -2 -10 2070.12   74.61
  -4   2  10 2061.24   74.63
   4   2 -10 2059.85   74.75
  -4  -2  10 2112.11   74.71
  -4  -2  10 2031.28   74.55
   4  -2  -9  183.59    7.77
   4  -2  -9  195.05    7.64
   4   2  -9  197.96    7.69
  -4   2   9  193.97    7.58
   4  -2  -9  186.43    7.61
   4   2  -9  201.04    7.81
  -4   2   9  187.02    7.77
  -4  -2   9  199.32    7.70
  -4   2   9  195.74    7.65
  -4  -2   9  198.59    7.72
   4   2  -8 6265.24  226.54
   4  -2  -8 6342.98  226.40
   4  -2  -8 5978.94  226.47
  -4  -2   8 6273.45  226.43
  -4   2   8 6067.74  226.47
  -4   2   8 6099.32  226.35
   4  -2  -8 6224.31  226.36
  -4  -2   8 6407.98  226.43
  -4   2   8 6355.20  226.40
  -4  -2   7 1950.00   68.73
   4  -2  -7 1815.70   68.63
  -4   2   7 1898.40   68.68
  -4   2   7 1961.16   68.68
   4  -2  -7 1806.94   68.69
  -4  -2   7 1854.03   68.74
   4  -2  -6 1087.08   39.02
  -4   2   6 1066.38   39.11
  -4  -2   6  966.45   39.04
  -4   2   6 1126.62   39.06
   4  -2  -6 1076.79   39.11
   4  -2  -5 1100.25   40.14
   4   2  -5 1099.83   40.36
  -4   2   5 1088.07   40.26
  -4  -2   5 1108.29   40.22
  -4   2   5 1112.78   40.17
   4  -2  -5 1064.95   40.26
   4   2  -4   84.29    3.70
   4  -2  -4   89.56    3.50
  -4   2   4   80.05    3.67
  -4  -2   4   88.51    3.71
  -4   2   4   87.79    3.51
   4  -2  -4   90.25    3.74
  -4  -2   4   89.89    3.59
  -4  -2   3  503.93   17.82
   4   2  -3  518.00   17.85
   4  -2  -3  458.27   17.57
  -4   2   3  464.49   17.59
   4   2  -2  842.08   30.96
  -4   2   2  832.75   30.70
   4  -2  -2  836.78   30.69
  -4  -2   2  864.40   30.95
  -4   2   1  333.82   11.99
   4   2  -1  325.16   12.26
  -4   2   1  317.12   12.28
   4  -2  -1  322.96   11.95
  -4  -2   1  324.49   12.26
  -4  -2   0  163.07    6.31
   4   2   0  159.61    6.31
  -4   2   0  165.75    6.40
  -4  -2   0  163.50    6.31
  -4   2  -1   11.54    1.10
   4   2   1   14.39    0.93
  -4  -2  -1   13.34    1.00
   4  -2   1   13.87    1.10
   4   2   2   31.59    1.46
  -4   2  -2   29.53    1.69
  -4  -2  -2   27.25    1.52
   4  -2   2   30.33    1.64
  -4   2  -3  165.30    6.32
  -4  -2  -3  159.62    6.18
   4  -2   3  160.63    6.28
   4   2   3  158.44    6.10
  -4  -2  -3  157.78    6.18
  -4   2  -4  882.57   33.16
  -4  -2  -4  914.77   33.02
   4  -2   4  907.36   33.15
   4   2   4  909.67   32.96
  -4  -2  -4  883.80   33.05
  -4  -2  -5   62.01    2.70
  -4   2  -5   66.02    2.92
  -4  -2  -5   66.39    2.68
   4  -2   5   65.22    2.88
   4   2   5   61.66    2.54
   4  -2   6    5.71    0.98
  -4   2  -6    6.78    1.03
  -4  -2  -6    5.06    0.70
   4   2   6    4.48    0.41
  -4  -2  -6    3.77    0.69
  -4  -2  -7  141.33    5.22
  -4   2  -7  134.85    5.53
  -4  -2  -7  134.87    5.39
   4  -2   7  145.81    5.53
  -4  -2  -7  132.88    5.77
  -4   2  -7  128.52    5.62
  -4  -2  -8    9.79    1.48
   4   2   8   12.37    0.88
   4  -2   8   12.17    1.09
  -4  -2  -8   12.12    1.59
  -4  -2  -8   12.03    0.88
  -4   2  -8   11.71    1.33
  -4  -2  -9    8.58    0.86
   4  -2   9    9.92    1.04
  -4   2  -9    9.26    1.15
  -4  -2  -9    7.43    1.66
   4   2   9    9.09    0.87
  -4   2  -9    9.48    1.42
  -4  -2  -9    9.61    1.63
  -4   2 -10   82.06    3.78
   4   2  10   84.84    3.58
   4  -2  10   90.36    3.63
  -4   2 -10   82.90    4.00
  -4  -2 -10   83.32    3.59
  -4  -2 -10   78.39    4.16
  -4  -2 -10   82.41    4.19
  -4  -2 -11    2.43    1.79
  -4   2 -11    3.41    1.12
  -4   2 -11    2.72    1.53
  -4  -2 -11    3.98    2.01
  -4   2 -12  101.21    4.44
  -4  -2 -12   98.19    5.07
  -4   2 -12   95.80    4.80
  -4  -2 -12   99.79    5.06
  -4   2 -13    6.05    1.40
  -4  -2 -13    6.35    2.33
  -4   2 -13    5.11    1.98
  -4   2 -14    2.09    1.30
  -4  -2 -14    0.80    2.50
  -4   2 -14    2.53    1.96
  -4  -2 -15    6.81    2.67
  -4   2 -15   10.23    2.45
  -4   2 -15    8.44    1.68
  -4  -2 -16    0.27    2.84
  -4   2 -16    2.45    2.48
  -4   2 -17  151.02    7.05
  -4  -2 -17  148.13    7.42
  -4  -2 -18  163.27    8.14
  -4   2 -18  179.17    7.85
  -4   2 -19   11.04    2.97
  -4  -2 -19   11.70    3.50
  -4  -2 -20  326.54   14.71
  -4   2 -20  351.81   14.03
  -4  -2 -20  348.08   14.28
  -4  -2 -21  113.74    6.26
  -4  -2 -21  121.66    7.20
  -4   2 -21  117.31    6.04
  -4  -2 -22   97.47    6.11
  -4   2 -22   85.58    4.88
  -4  -2 -22   82.77    5.06
  -4  -2 -23   56.64    4.83
  -4  -2 -23   56.11    3.82
  -4   2 -24   66.53    3.93
  -4  -2 -24   63.96    4.16
  -4  -2 -25   32.55    2.81
  -4   2 -25   40.99    2.80
  -4   2 -26   55.40    2.78
  -4  -2 -26   60.81    3.89
  -4  -2 -27    9.03    2.34
  -4  -2 -28   26.82    2.05
   4  -3 -30    4.17    1.37
   4  -3 -29   43.85    3.11
   4  -3 -28  430.87   15.59
   4  -3 -28  358.23   14.95
   4  -3 -27   32.89    3.39
   4  -3 -27   42.56    4.12
   4  -3 -26  260.15   11.49
   4  -3 -26  240.58   11.02
   4  -3 -25   -0.90    4.33
   4  -3 -25    0.12    3.61
   4  -3 -25    1.98    2.34
   4  -3 -24   86.26    5.07
   4  -3 -24   95.68    7.00
   4  -3 -24   84.94    6.29
   4   3 -23   12.26    2.61
   4  -3 -23   12.13    3.25
   4  -3 -22  428.54   18.34
   4   3 -22  481.96   18.18
   4   3 -21    3.05    2.55
   4  -3 -21    3.03    3.44
   4  -3 -20  380.11   16.43
   4   3 -20  419.45   16.22
   4  -3 -19  211.52    9.84
   4   3 -19  211.84    9.39
   4   3 -18   73.78    4.56
   4   3 -17  127.15    6.22
   4   3 -16   16.98    2.49
   4   3 -16   12.78    1.96
   4   3 -15   58.95    3.71
   4   3 -15   62.15    3.35
   4  -3 -15   55.46    4.13
  -4  -3  14   39.76    2.49
   4  -3 -14   37.47    3.39
   4  -3 -13  135.51    6.34
  -4  -3  13  133.79    5.72
   4   3 -13  141.55    5.89
   4   3 -12   35.25    2.25
  -4   3  12   33.77    2.11
  -4   3  12   32.18    2.44
  -4   3  12   33.27    1.90
   4  -3 -12   31.18    2.01
  -4  -3  12   32.18    2.06
   4  -3 -12   29.76    2.72
  -4  -3  12   32.83    2.06
   4   3 -11  147.69    6.23
   4  -3 -11  147.21    6.51
  -4   3  11  145.35    6.39
   4  -3 -11  145.81    6.20
  -4   3  11  156.03    6.07
  -4   3  11  149.04    6.25
  -4  -3  11  148.42    6.13
  -4  -3  11  156.68    6.34
  -4  -3  11  147.70    6.21
   4  -3 -10   72.87    3.24
  -4   3  10   69.29    3.51
  -4  -3  10   71.15    3.31
   4   3 -10   69.01    3.31
   4  -3 -10   68.54    3.61
   4  -3 -10   61.42    3.17
  -4  -3  10   68.06    3.21
  -4   3  10   67.61    3.11
  -4   3  10   72.35    3.26
   4   3 -10   67.92    3.38
  -4  -3  10   66.25    3.26
  -4   3   9  190.70    7.70
   4  -3  -9  185.50    7.65
  -4   3   9  192.90    7.86
   4  -3  -9  187.11    7.85
  -4  -3   9  196.18    7.78
  -4   3   9  192.73    7.60
  -4  -3   9  194.48    7.67
   4   3  -9  201.49    7.88
   4   3  -9  198.82    7.74
  -4  -3   9  194.43    7.75
   4  -3  -9  196.63    7.66
   4  -3  -8  144.42    5.87
   4   3  -8  143.90    5.97
  -4   3   8  138.49    6.07
  -4   3   8  145.59    5.87
  -4  -3   8  154.18    6.01
  -4  -3   8  140.48    5.90
  -4   3   8  152.44    5.91
   4  -3  -8  141.28    5.89
  -4  -3   8  153.78    6.02
  -4   3   7  309.81   11.75
  -4   3   7  310.40   11.76
  -4  -3   7  321.67   11.85
   4  -3  -7  300.88   11.77
   4  -3  -7  303.58   11.73
  -4   3   6  121.81    4.94
  -4   3   6  113.81    4.85
   4  -3  -6  118.39    4.85
   4   3  -6  127.40    5.10
   4  -3  -6  120.35    4.95
  -4  -3   6  124.30    4.96
  -4   3   5  977.32   35.90
  -4   3   5  996.06   35.82
   4   3  -5  954.44   36.00
   4  -3  -5  961.19   35.79
  -4  -3   5  984.31   35.96
  -4   3   4  103.68    4.41
  -4   3   4  104.34    4.22
   4  -3  -4  106.75    4.22
   4   3  -4  108.38    4.47
  -4  -3   4  106.99    4.44
  -4   3   3   19.70    1.41
  -4   3   3   15.96    1.03
   4   3  -3   19.40    1.29
   4  -3  -3   16.70    1.00
  -4  -3   3   18.48    1.37
   4  -3  -2  133.59    5.49
  -4   3   2  152.91    5.56
   4  -3  -2  141.27    5.77
   4   3  -2  149.86    5.79
  -4  -3   2  150.80    5.78
  -4  -3   1   99.45    4.20
   4   3  -1  102.18    4.22
   4  -3  -1  104.54    3.95
  -4  -3   1  102.01    4.21
  -4   3   0  268.89   10.22
  -4  -3   0  264.69   10.18
   4  -3   0  264.64    9.83
   4  -3   0  269.12   10.21
   4   3   0  268.04   10.12
  -4  -3   0  269.53   10.14
  -4   3  -1  312.50   11.20
  -4  -3  -1  279.08   11.15
   4  -3   1  309.70   11.20
   4   3   1  297.13   11.05
   4  -3   1  290.07   10.72
  -4  -3  -1  290.13   11.06
  -4  -3  -2  614.76   22.86
  -4   3  -2  630.84   23.00
   4  -3   2  647.19   23.00
  -4  -3  -2  569.09   22.97
   4   3   2  631.75   22.83
  -4   3  -3  197.69    7.87
  -4  -3  -3  195.07    7.86
   4  -3   3  205.54    7.87
   4   3   3  205.56    7.65
  -4   3  -4 1951.99   71.64
   4  -3   4 1973.07   71.62
  -4  -3  -4 1990.03   71.43
  -4  -3  -4 1903.37   71.63
  -4   3  -5  164.49    6.69
   4  -3   5  169.28    6.67
  -4  -3  -5  172.12    6.43
  -4  -3  -5  162.16    6.64
  -4  -3  -5  167.46    6.84
  -4  -3  -6  949.93   36.03
  -4   3  -6  970.27   36.07
  -4  -3  -6  994.73   35.75
   4  -3   6 1006.22   36.05
  -4  -3  -6  952.08   36.17
  -4  -3  -6  969.07   36.26
  -4  -3  -7   31.29    1.82
  -4   3  -7   35.35    1.94
  -4  -3  -7   33.34    1.41
   4  -3   7   36.06    1.96
  -4   3  -7   32.89    1.94
  -4  -3  -7   31.23    2.24
  -4  -3  -7   29.36    2.15
  -4  -3  -8   49.62    2.76
  -4   3  -8   45.14    2.44
  -4  -3  -8   46.13    2.29
   4  -3   8   44.41    2.36
  -4   3  -8   46.95    2.44
  -4   3  -9  172.74    7.18
   4   3   9  175.23    7.00
  -4  -3  -9  174.43    7.07
   4  -3   9  188.30    7.11
  -4  -3  -9  179.33    7.49
  -4   3  -9  175.50    7.17
   4  -3  10   13.04    1.27
  -4   3 -10   10.67    1.56
   4   3  10   12.80    1.09
  -4   3 -10   11.43    1.32
  -4  -3 -10   10.75    1.96
  -4  -3 -11   26.69    2.81
  -4   3 -11   34.84    2.26
  -4  -3 -11   30.36    2.74
  -4  -3 -12   10.39    2.50
  -4  -3 -12    9.24    2.43
  -4   3 -12   10.56    1.80
  -4  -3 -13    2.62    2.47
  -4  -3 -13    3.98    2.51
  -4   3 -13    3.62    1.84
  -4  -3 -14   21.85    3.30
  -4  -3 -14   21.82    3.15
  -4   3 -14   20.50    2.38
  -4  -3 -15    7.46    3.10
  -4  -3 -15    4.40    3.16
  -4   3 -15    8.73    2.10
  -4   3 -16   33.02    2.93
  -4  -3 -16   32.19    3.95
  -4  -3 -16   25.03    3.89
  -4   3 -17   36.68    3.15
  -4  -3 -17   30.40    4.16
  -4  -3 -17   33.07    4.28
  -4  -3 -18    3.23    3.59
  -4   3 -18    5.03    2.40
  -4  -3 -18    3.35    4.19
  -4  -3 -19   65.66    5.62
  -4   3 -19   67.75    4.15
  -4  -3 -19   64.96    5.29
  -4  -3 -20   14.41    3.69
  -4   3 -20   17.29    2.72
  -4  -3 -21  135.47    7.09
  -4   3 -21  131.60    6.25
  -4   3 -22   21.32    2.64
  -4  -3 -22   26.09    3.77
  -4   3 -23  285.86   11.91
  -4  -3 -23  329.03   12.58
  -4  -3 -24   15.06    2.62
  -4   3 -24    9.47    1.84
  -4  -3 -25  127.82    5.99
  -4  -3 -26    4.55    1.75
  -4  -3 -27   17.33    2.20
  -4  -3 -28   -0.27    1.24
   4  -4 -28   46.21    3.04
   4  -4 -27   30.82    3.25
   4  -4 -26  162.81    7.21
   4  -4 -26  180.28    8.27
   4  -4 -25  162.77    7.38
   4  -4 -25  156.34    8.31
   4  -4 -24  107.04    5.85
   4  -4 -24  105.49    6.75
   4  -4 -23  339.71   14.17
   4  -4 -22    0.40    3.80
   4  -4 -22   -0.81    5.13
   4  -4 -21  322.28   13.44
   4  -4 -21  302.09   14.27
   4  -4 -20   -0.27    4.57
   4  -4 -20    1.57    3.29
   4  -4 -19    2.91    4.27
   4  -4 -19    5.42    3.58
   4  -4 -18   42.47    4.95
   4  -4 -18   44.44    4.48
   4   4 -17  108.15    5.20
   4  -4 -17   97.66    6.48
   4  -4 -16   52.92    4.74
   4   4 -16   55.64    3.45
   4   4 -15    4.89    1.97
   4   4 -14    2.68    1.81
   4  -4 -14    3.66    2.71
  -4  -4  14    3.04    1.28
   4   4 -13  108.51    5.13
  -4  -4  13  113.44    4.88
   4  -4 -13  112.23    5.68
  -4  -4  12    2.06    1.27
   4  -4 -12    1.58    2.28
   4   4 -12    1.56    1.52
   4  -4 -11    1.66    1.02
  -4   4  11    0.61    0.94
   4  -4 -11   -1.40    2.13
   4  -4 -11    0.44    0.88
   4   4 -11    2.87    1.43
  -4   4  11    0.58    0.94
  -4  -4  11    0.18    1.19
  -4   4  10    0.84    0.93
  -4  -4  10    1.28    1.14
   4  -4 -10    0.91    0.93
  -4  -4  10    0.26    1.05
  -4  -4  10    1.71    0.96
   4   4 -10    1.27    1.32
   4  -4 -10   -0.35    0.88
  -4   4  10    1.27    0.89
  -4  -4   9  512.28   19.20
   4  -4  -9  510.93   19.14
   4   4  -9  503.04   19.16
  -4   4   9  501.69   19.01
  -4  -4   9  500.20   19.22
  -4   4   9  519.14   19.15
  -4  -4   9  504.70   19.09
   4  -4  -9  505.51   19.05
   4  -4  -8   15.74    1.85
  -4   4   8   16.09    1.33
  -4  -4   8   17.33    1.47
   4  -4  -8   15.84    1.33
  -4  -4   8   18.09    1.46
   4  -4  -8   16.70    1.43
  -4   4   8   15.75    1.37
  -4  -4   7   24.28    1.61
   4  -4  -7   24.78    1.92
  -4   4   7   21.20    1.60
  -4   4   7   21.74    1.45
  -4  -4   7   22.53    1.60
   4  -4  -7   22.44    1.58
   4  -4  -7   24.15    1.46
   4  -4  -6  217.19    8.42
  -4   4   6  203.64    8.62
   4   4  -6  216.45    8.54
   4  -4  -6  214.71    8.61
  -4   4   6  223.82    8.48
  -4   4   6  210.95    8.40
  -4  -4   6  237.80    8.64
  -4  -4   6  211.50    8.51
  -4  -4   5  726.23   25.68
   4   4  -5  671.51   25.59
   4  -4  -5  685.14   25.65
  -4   4   5  724.02   25.59
  -4  -4   5  674.20   25.59
  -4   4   5  675.92   25.70
  -4   4   5  651.54   25.45
   4  -4  -5  711.67   25.50
  -4  -4   4  127.09    4.97
  -4  -4   4  114.09    4.89
  -4   4   4  115.09    4.87
  -4   4   4  113.16    4.69
   4  -4  -4  118.73    4.71
  -4  -4   3  359.84   13.11
  -4   4   3  352.51   13.08
  -4   4   3  342.88   12.89
   4  -4  -3  342.70   12.87
   4  -4  -3  347.51   13.09
  -4  -4   3  320.72   13.06
  -4  -4   2   37.13    1.99
  -4   4   2   34.47    1.73
  -4   4   2   34.29    1.99
   4  -4  -2   39.94    1.72
   4  -4  -2   35.49    2.03
  -4  -4   2   32.00    1.86
  -4  -4   1   19.39    1.41
  -4  -4   1   21.80    1.47
   4  -4  -1   20.48    1.10
  -4  -4   0  182.62    7.04
  -4  -4   0  191.51    6.95
  -4   4  -1   54.22    2.58
  -4  -4  -1   49.15    2.49
   4  -4   1   49.91    2.54
   4  -4   1   48.63    2.04
  -4  -4  -1   48.13    2.33
   4  -4   2  434.52   16.06
  -4   4  -2  440.92   16.51
   4  -4   2  450.93   16.52
  -4  -4  -2  416.72   16.55
  -4  -4  -2  444.58   16.33
  -4   4  -2  439.86   16.52
  -4   4  -3  929.17   32.60
  -4  -4  -3  850.62   32.63
   4  -4   3  980.49   32.64
  -4  -4  -3  856.69   32.54
  -4  -4  -3  912.53   32.36
  -4   4  -3  925.51   32.62
   4  -4   3  859.26   32.07
   4  -4   3  859.35   32.08
  -4   4  -4  346.04   12.74
  -4  -4  -4  340.50   12.81
   4  -4   4  363.76   12.78
   4  -4   4  326.53   12.17
  -4  -4  -4  349.97   12.73
   4  -4   4  316.63   12.17
  -4   4  -4  357.19   12.77
  -4  -4  -4  348.54   12.81
   4  -4   5  905.12   36.21
   4  -4   5 1138.62   36.86
  -4  -4  -5 1105.09   36.48
   4  -4   5  957.31   36.22
  -4  -4  -5 1065.40   36.79
  -4  -4  -5 1107.67   36.96
  -4   4  -5 1122.30   36.89
  -4  -4  -5 1075.85   36.95
  -4  -4  -5 1076.02   36.81
  -4  -4  -6 1577.17   58.15
  -4  -4  -6 1596.86   58.22
   4  -4   6 1622.65   58.12
  -4  -4  -6 1579.95   57.71
  -4  -4  -6 1545.10   58.07
  -4   4  -6 1599.09   58.16
  -4  -4  -6 1563.59   58.27
   4  -4   7 1563.30   54.49
  -4   4  -7 1432.74   54.30
  -4  -4  -7 1473.55   54.56
  -4  -4  -7 1455.02   54.42
  -4   4  -7 1527.96   54.54
  -4  -4  -7 1487.75   54.57
  -4  -4  -7 1448.68   54.68
  -4  -4  -8  117.27    5.16
  -4  -4  -8  117.43    5.07
  -4   4  -8  117.38    4.98
   4  -4   8  123.07    5.16
  -4  -4  -8  125.30    5.36
  -4   4  -8  122.06    5.21
  -4  -4  -8  119.08    5.51
  -4   4  -9  937.31   35.15
  -4  -4  -9  925.92   35.35
   4  -4   9  976.13   35.27
  -4  -4  -9  949.40   35.47
  -4   4  -9  976.35   35.34
  -4  -4  -9  938.86   35.61
  -4   4 -10  329.07   12.84
  -4  -4 -10  327.32   13.21
   4  -4  10  343.24   12.94
  -4  -4 -10  328.90   13.40
  -4   4 -10  338.05   13.00
  -4   4 -11  458.54   17.35
  -4  -4 -11  453.50   17.68
  -4   4 -11  448.51   17.24
  -4   4 -12  300.12   11.85
  -4   4 -12  300.01   11.87
  -4  -4 -12  309.98   12.34
  -4  -4 -13   27.63    3.11
  -4   4 -13   21.04    1.98
  -4   4 -13   20.95    2.20
  -4   4 -14    8.71    1.81
  -4  -4 -14    8.96    2.84
  -4   4 -15  220.09    9.10
  -4  -4 -15  222.38    9.81
  -4  -4 -15  216.15   10.05
  -4  -4 -16   24.68    4.11
  -4   4 -16   31.72    2.66
  -4  -4 -16   34.12    3.96
  -4   4 -17  330.56   13.48
  -4  -4 -17  366.10   14.35
  -4  -4 -17  335.71   14.48
  -4  -4 -18    1.13    3.83
  -4  -4 -18    2.98    3.94
  -4   4 -18    0.71    2.06
  -4  -4 -19   20.67    4.42
  -4   4 -19   20.25    2.47
  -4  -4 -19   27.65    4.39
  -4  -4 -20   22.09    4.26
  -4   4 -20   21.68    2.43
  -4  -4 -20   24.39    4.30
  -4  -4 -21  278.89   11.84
  -4  -4 -21  255.91   11.66
  -4  -4 -22   12.04    3.59
  -4  -4 -22    9.00    3.67
  -4  -4 -23    8.95    3.22
  -4  -4 -23    8.57    3.20
  -4  -4 -24   15.30    2.89
  -4  -4 -24   15.01    3.26
  -4  -4 -25   10.68    2.49
  -4  -4 -25   22.07    2.74
  -4  -4 -26   18.35    2.08
  -4  -4 -26   23.46    2.62
  -4  -4 -27    8.78    1.70
   4  -5 -29    9.29    1.43
   4  -5 -28    1.25    1.60
   4  -5 -28    1.60    1.87
   4  -5 -27  273.14   11.16
   4  -5 -27  267.07   11.16
   4  -5 -26   10.70    3.15
   4  -5 -26    9.33    2.23
   4  -5 -26   12.17    3.22
   4  -5 -25   80.22    5.55
   4  -5 -25   83.60    4.70
   4  -5 -25   81.78    5.64
   4  -5 -24   35.09    4.68
   4  -5 -24   28.92    4.51
   4  -5 -24   40.80    3.89
   4  -5 -23  209.29    9.45
   4  -5 -23  211.76    9.96
   4  -5 -23  190.86   10.08
   4  -5 -22   28.81    4.11
   4  -5 -22   40.45    5.11
   4  -5 -21  234.62   10.92
   4  -5 -21  249.19   11.52
   4  -5 -20   32.39    4.96
   4  -5 -20   29.79    4.47
   4  -5 -19    7.56    4.24
   4  -5 -19   10.06    3.60
   4  -5 -18   51.12    5.10
   4   5 -18   42.13    3.32
   4  -5 -18   39.52    4.71
   4  -5 -17    4.40    3.77
   4   5 -17    8.13    2.35
   4  -5 -17    5.45    3.64
   4  -5 -16   34.38    4.32
   4   5 -16   40.93    3.06
   4  -5 -15   41.89    4.29
   4   5 -15   49.56    3.29
   4   5 -14    8.11    2.09
  -4  -5  14    6.68    1.55
   4   5 -13    3.84    2.00
  -4  -5  13    4.81    1.42
  -4  -5  12   23.41    1.98
   4   5 -12   20.88    2.34
   4   5 -11  264.73   10.72
  -4  -5  11  268.63   10.52
  -4   5  10   16.82    1.44
   4  -5 -10   16.44    2.48
   4   5 -10   15.11    1.90
  -4  -5  10   16.94    1.77
   4  -5 -10   15.56    1.44
   4  -5  -9  214.45    8.68
  -4   5   9  203.60    8.20
   4  -5  -9  207.42    8.25
  -4  -5   9  212.16    8.34
  -4   5   9  203.32    8.32
   4  -5  -9  204.48    8.34
  -4  -5   8  394.06   15.32
  -4   5   8  407.39   15.14
  -4  -5   8  403.58   15.23
  -4   5   8  388.73   15.19
   4  -5  -8  399.85   15.18
   4  -5  -8  411.05   15.47
   4  -5  -8  385.84   15.22
  -4   5   7   21.75    1.66
   4   5  -7   20.89    1.86
   4  -5  -7   22.83    2.10
   4  -5  -7   22.49    1.54
  -4   5   7   21.08    1.49
  -4  -5   7   20.59    1.77
   4  -5  -6  390.61   14.69
   4   5  -6  372.26   14.57
  -4   5   6  380.73   14.52
  -4   5   6  387.74   14.48
   4  -5  -6  381.03   14.49
  -4  -5   6  374.80   14.56
  -4   5   5   84.76    3.79
   4   5  -5   84.14    3.82
  -4   5   5   88.28    3.66
   4  -5  -5   83.18    3.66
  -4  -5   5   80.20    3.84
   4  -5  -5   81.07    3.91
  -4  -5   4   55.55    2.84
  -4   5   4   61.64    2.92
   4  -5  -4   58.14    3.01
   4   5  -4   57.50    2.87
  -4   5   4   61.51    2.73
   4  -5  -4   59.08    2.70
   4  -5  -4   60.20    2.97
  -4  -5   4   58.43    2.98
  -4  -5   3  385.42   14.58
  -4   5   3  382.72   14.39
  -4   5   3  393.46   14.58
   4   5  -3  371.54   14.51
   4  -5  -3  396.31   14.58
   4  -5  -3  375.17   14.37
   4  -5  -3  387.53   14.59
  -4  -5   3  376.10   14.58
  -4  -5   3  377.43   14.60
  -4  -5   2   34.63    2.01
  -4   5   2   35.53    2.10
   4   5  -2   33.67    1.95
  -4  -5   2   34.54    1.97
   4  -5  -2   33.46    1.75
   4  -5  -2   35.09    2.13
  -4   5   2   35.70    2.09
  -4   5   1  147.71    6.18
  -4   5   1  149.08    6.19
  -4  -5   1  156.70    6.14
   4  -5  -1  148.25    5.88
  -4  -5   1  146.02    6.19
   4  -5  -1  155.20    6.23
  -4  -5   0  128.79    5.12
  -4   5   0  122.74    5.22
  -4  -5   0  119.04    5.21
  -4  -5   0  124.80    5.26
   4  -5   0  120.62    4.84
  -4  -5  -1  109.77    4.45
  -4  -5  -1  105.37    4.66
  -4  -5  -1  108.75    4.67
   4  -5   1  102.16    4.18
  -4   5  -2   13.35    1.50
   4  -5   2   17.85    1.62
  -4  -5  -2   15.78    1.50
  -4   5  -2   16.98    1.59
   4  -5   2   16.87    0.99
  -4  -5  -2   16.98    1.62
  -4  -5  -2   17.30    1.44
  -4  -5  -2   16.40    1.29
  -4   5  -3   27.07    1.95
  -4  -5  -3   27.80    1.93
   4  -5   3   29.43    2.01
  -4  -5  -3   28.49    1.98
  -4   5  -3   27.37    1.98
   4  -5   3   28.77    1.38
  -4  -5  -3   33.43    1.74
  -4  -5  -3   27.83    1.89
   4  -5   4   58.32    2.98
  -4  -5  -4   58.53    2.61
  -4  -5  -4   52.04    2.95
  -4  -5  -4   56.43    2.98
  -4   5  -4   62.66    3.03
  -4  -5  -4   55.56    3.00
  -4  -5  -5  255.24   10.03
   4  -5   5  268.38   10.18
  -4   5  -5  258.89   10.20
  -4  -5  -5  261.14   10.18
  -4  -5  -5  241.79   10.27
  -4  -5  -5  258.27   10.25
  -4  -5  -6   50.81    2.77
   4  -5   6   51.11    2.79
  -4  -5  -6   51.05    3.03
  -4   5  -6   53.99    2.92
  -4  -5  -6   49.99    2.82
  -4  -5  -6   52.01    2.92
  -4  -5  -7   14.41    2.01
   4  -5   7   15.91    1.60
  -4  -5  -7   13.82    1.61
  -4  -5  -7   15.21    1.65
  -4  -5  -7   15.11    1.57
  -4   5  -7   15.91    1.63
  -4   5  -8   16.19    1.75
  -4  -5  -8   14.62    1.56
  -4  -5  -8   15.29    2.24
  -4  -5  -8   15.90    1.73
  -4  -5  -8   17.06    1.85
  -4  -5  -9    3.72    2.10
  -4  -5  -9    3.39    1.42
  -4  -5  -9    4.15    1.68
  -4   5  -9    2.39    1.54
  -4  -5 -10    3.62    2.32
  -4  -5 -10    5.67    1.50
  -4   5 -10    3.42    1.51
  -4  -5 -10    5.06    1.82
  -4  -5 -11   13.05    2.84
  -4  -5 -11   12.69    2.32
  -4   5 -11   14.77    1.93
  -4  -5 -12    4.20    2.83
  -4  -5 -12    6.14    2.26
  -4   5 -12    8.01    1.81
  -4  -5 -13    2.03    3.26
  -4  -5 -13   -0.24    2.56
  -4   5 -13    1.84    1.78
  -4  -5 -14  101.86    5.31
  -4   5 -14   91.26    4.60
  -4  -5 -15   19.43    3.40
  -4  -5 -16   13.56    3.33
  -4  -5 -17    5.05    3.50
  -4  -5 -18  123.62    6.72
  -4  -5 -18  112.06    7.15
  -4  -5 -19    2.77    4.15
  -4  -5 -19    1.73    3.79
  -4  -5 -20  734.19   28.09
  -4  -5 -20  719.13   28.30
  -4  -5 -21   21.90    4.19
  -4  -5 -21   19.99    3.74
  -4  -5 -22  688.64   26.47
  -4  -5 -22  689.02   26.65
  -4  -5 -23   53.12    4.06
  -4  -5 -23   57.99    4.34
  -4  -5 -24   66.72    4.05
  -4  -5 -24   62.82    4.11
  -4  -5 -25   11.78    2.35
  -4  -5 -25    8.65    2.36
  -4  -5 -26   98.57    4.42
  -4  -5 -26   91.11    4.36
  -4  -5 -27   -0.03    1.06
   4  -6 -28   25.38    1.89
   4  -6 -28   24.20    1.94
   4  -6 -27    7.35    1.93
   4  -6 -27    2.37    1.97
   4  -6 -27    5.71    1.26
   4  -6 -26   -0.38    2.59
   4  -6 -26   -0.15    1.86
   4  -6 -26   -0.48    2.26
   4  -6 -25   23.55    2.87
   4  -6 -25   21.43    3.51
   4  -6 -25   24.35    3.22
   4  -6 -24   69.09    4.99
   4  -6 -24   78.32    4.75
   4  -6 -24   76.34    5.49
   4  -6 -23  173.35    8.32
   4  -6 -23  190.73    8.76
   4  -6 -23  170.84    9.02
   4  -6 -22  127.13    6.78
   4  -6 -22  116.40    6.93
   4  -6 -21  109.53    6.60
   4  -6 -21  110.87    6.78
   4  -6 -20   14.85    4.10
   4  -6 -20   12.84    4.32
   4   6 -19  224.32    9.71
   4  -6 -19  228.20   10.63
   4  -6 -19  237.90   10.69
   4  -6 -18   29.83    4.32
   4  -6 -18   23.88    4.06
   4   6 -18   32.58    3.12
   4   6 -17  147.03    6.89
   4  -6 -17  140.71    7.80
   4  -6 -17  153.52    7.75
   4   6 -16   69.53    4.43
   4  -6 -16   73.27    5.25
   4  -6 -16   71.61    5.02
   4  -6 -15   27.22    3.68
   4   6 -15   21.08    2.93
   4  -6 -14   41.84    3.75
   4   6 -14   45.31    3.44
   4   6 -13  247.05   10.54
  -4  -6  13  259.24   10.18
   4   6 -12    7.64    2.24
  -4  -6  12    9.97    1.75
   4   6 -11 1971.07   71.67
   4  -6 -11 1933.06   71.87
  -4  -6  11 1934.35   71.46
   4  -6 -10  382.85   15.08
  -4  -6  10  374.46   14.59
   4  -6  -9  690.99   26.30
  -4  -6   9  688.54   25.97
  -4   6   9  695.78   25.85
  -4   6   8  223.34    8.55
  -4   6   8  217.12    8.53
   4   6  -8  221.21    8.78
  -4   6   8  203.35    8.56
   4  -6  -8  204.82    8.53
  -4  -6   8  216.62    8.65
   4  -6  -8  206.59    8.61
   4  -6  -8  218.79    8.97
  -4   6   7 1198.57   43.88
   4  -6  -7 1249.58   44.18
   4   6  -7 1206.02   44.03
  -4   6   7 1100.84   43.85
  -4  -6   7 1212.31   43.97
   4  -6  -7 1180.11   43.95
  -4   6   7 1199.12   43.89
  -4   6   6  150.92    6.38
   4  -6  -6  164.26    6.70
  -4   6   6  139.76    6.24
   4   6  -6  159.13    6.48
   4  -6  -6  156.92    6.37
  -4   6   6  156.05    6.39
  -4  -6   6  155.35    6.52
  -4   6   5  426.77   16.54
  -4  -6   5  415.11   16.61
  -4   6   5  420.76   16.44
   4  -6  -5  455.84   16.71
   4   6  -5  436.88   16.59
   4  -6  -5  427.80   16.48
   4  -6  -5  437.26   16.57
  -4  -6   5  452.04   16.66
  -4   6   5  446.21   16.57
   4  -6  -4   14.61    1.51
   4  -6  -4   14.42    1.25
   4  -6  -4   15.81    1.88
  -4  -6   4   11.22    1.31
   4   6  -4   13.03    1.43
  -4   6   4   14.33    1.45
  -4   6   4   14.09    1.48
  -4  -6   4   14.90    1.80
   4  -6  -3  184.49    7.24
   4   6  -3  174.43    7.13
   4  -6  -3  170.64    6.99
  -4  -6   3  168.82    7.20
  -4   6   3  173.91    7.19
   4  -6  -3  176.44    7.21
  -4  -6   3  178.57    7.31
  -4   6   3  177.37    7.19
   4  -6  -2   20.67    1.36
   4   6  -2   19.16    1.61
  -4  -6   2   17.35    1.55
   4  -6  -2   18.72    1.72
   4  -6  -2   19.99    1.75
  -4   6   2   16.40    1.63
  -4  -6   2   20.22    1.91
  -4   6   2   21.64    1.81
  -4   6   1  821.33   30.55
   4  -6  -1  838.77   30.43
   4   6  -1  782.54   30.38
  -4   6   1  841.36   30.56
  -4  -6   1  795.95   30.58
   4  -6  -1  840.24   30.58
   4  -6  -1  799.21   30.27
  -4  -6   1  850.51   30.49
  -4   6   0    4.98    1.32
  -4  -6   0    5.43    1.16
   4   6   0    5.87    1.06
  -4  -6   0    6.70    1.16
  -4   6   0    5.10    1.21
   4  -6   0    5.66    1.40
   4  -6   0    5.78    0.82
  -4  -6  -1  312.93   11.67
   4   6   1  289.59   11.56
  -4  -6  -1  306.77   11.94
  -4  -6  -1  294.80   11.59
  -4   6  -1  306.77   11.84
  -4  -6  -1  311.55   11.91
  -4  -6  -2  248.32    9.96
  -4  -6  -2  247.66   10.01
  -4  -6  -2  239.88    9.71
  -4  -6  -2  256.96    9.68
  -4  -6  -3   83.63    4.07
  -4  -6  -3   82.59    4.02
  -4  -6  -3   82.13    3.81
  -4  -6  -3   78.42    3.58
  -4  -6  -4   26.20    2.29
  -4  -6  -4   24.65    2.00
  -4   6  -4   28.03    2.22
  -4  -6  -4   26.95    2.06
  -4  -6  -5   18.36    1.75
  -4  -6  -5   19.70    1.97
  -4  -6  -5   16.63    1.97
  -4   6  -5   19.86    2.01
  -4  -6  -6   17.40    2.01
  -4  -6  -6   10.73    1.44
  -4  -6  -6    9.25    1.86
  -4   6  -6   14.56    1.89
  -4  -6  -7    1.25    1.81
  -4   6  -7    2.12    1.55
  -4  -6  -7    3.26    1.38
  -4  -6  -7    0.91    1.67
  -4  -6  -8    3.87    2.04
  -4  -6  -8    5.01    1.80
  -4  -6  -8    5.51    1.57
  -4   6  -8    6.41    1.76
  -4   6  -9   81.85    4.27
  -4  -6  -9   83.20    4.14
  -4  -6  -9   80.55    4.16
  -4  -6  -9   77.04    4.53
  -4  -6 -10   -0.16    2.48
  -4  -6 -10    2.72    1.82
  -4   6 -10    6.13    2.04
  -4  -6 -10    2.95    1.90
  -4  -6 -11   64.67    3.78
  -4  -6 -11   63.57    3.59
  -4   6 -11   66.28    3.85
  -4  -6 -11   61.93    4.45
  -4  -6 -12    0.54    2.93
  -4  -6 -12    3.00    2.07
  -4   6 -12    2.73    2.00
  -4  -6 -12    4.30    1.72
  -4  -6 -13   65.18    4.27
  -4   6 -13   76.09    4.06
  -4  -6 -13   68.56    5.01
  -4  -6 -14   18.49    3.82
  -4  -6 -14   20.62    2.93
  -4   6 -14   15.45    2.37
  -4  -6 -15   27.16    4.44
  -4  -6 -15   27.27    3.41
  -4   6 -15   25.01    2.58
  -4   6 -16   34.55    2.76
  -4  -6 -16   35.34    3.75
  -4  -6 -16   37.01    4.66
  -4  -6 -17   12.38    3.08
  -4  -6 -18   71.78    4.84
  -4  -6 -19  176.40    8.24
  -4  -6 -20    1.14    2.94
  -4  -6 -21   33.79    4.36
  -4  -6 -21   24.78    3.27
  -4  -6 -22   66.25    4.20
  -4  -6 -22   68.23    4.85
  -4  -6 -23  313.64   12.75
  -4  -6 -23  332.02   13.09
  -4  -6 -24    6.55    2.41
  -4  -6 -24    2.91    2.02
  -4  -6 -25  163.92    6.89
  -4  -6 -25  173.82    7.10
  -4  -6 -26  114.89    4.70
  -4  -6 -26  112.61    4.80
   4  -7 -27   79.31    3.75
   4  -7 -27   91.18    4.05
   4  -7 -26   71.84    3.45
   4  -7 -26   63.23    3.46
   4  -7 -26   68.86    3.92
   4  -7 -25  144.27    6.24
   4  -7 -25  133.61    6.24
   4  -7 -25  140.13    6.63
   4  -7 -24  108.49    5.47
   4  -7 -24  110.17    5.57
   4  -7 -23   53.94    4.29
   4  -7 -23   56.39    4.15
   4  -7 -22  116.53    6.28
   4  -7 -22  106.66    6.07
   4  -7 -21  182.08    8.53
   4  -7 -21  172.81    8.45
   4  -7 -20  317.15   13.47
   4  -7 -20  318.41   13.48
   4   7 -19  180.50    8.05
   4  -7 -19  180.12    8.96
   4  -7 -19  172.19    8.56
   4   7 -18   11.93    3.00
   4  -7 -18   17.65    4.36
   4  -7 -18   17.90    3.73
   4   7 -17  496.43   18.93
   4  -7 -17  462.07   19.28
   4  -7 -16    2.85    3.23
   4   7 -16    5.77    2.75
   4   7 -15  153.94    7.38
   4  -7 -15  159.09    7.74
   4  -7 -14    4.36    2.90
   4   7 -14    0.57    2.74
   4  -7 -14    0.64    3.52
   4   7 -13   91.58    4.96
  -4  -7  13   83.55    4.24
   4  -7 -13   87.58    5.00
   4  -7 -12   38.38    3.23
   4   7 -12   36.19    3.38
  -4  -7  12   37.03    2.67
  -4  -7  11   13.20    1.93
   4  -7 -11   15.63    2.42
  -4  -7  10    1.44    1.73
   4  -7  -9  212.86    9.11
   4   7  -9  210.65    8.82
  -4  -7   9  199.10    8.56
  -4   7   9  211.28    8.39
   4   7  -8   81.91    4.29
  -4  -7   8   74.08    4.10
   4  -7  -8   88.41    4.70
  -4   7   8   82.74    3.87
   4  -7  -7  510.83   19.66
   4   7  -7  509.66   19.49
  -4  -7   7  494.72   19.43
  -4   7   7  516.07   19.30
   4  -7  -6   21.16    2.50
   4   7  -6   19.67    2.14
  -4  -7   6   21.97    2.19
  -4   7   6   20.28    1.88
   4  -7  -5  202.43    8.45
   4   7  -5  191.02    8.23
  -4  -7   5  202.10    8.35
  -4   7   5  208.28    8.24
  -4   7   4   19.97    1.94
   4  -7  -4   20.63    2.26
   4   7  -4   17.87    1.89
  -4  -7   4   17.77    2.18
   4  -7  -3  308.70   12.18
   4   7  -3  308.20   12.13
  -4  -7   3  308.99   12.31
  -4   7   3  313.66   12.20
   4  -7  -2   16.29    1.89
   4   7  -2   14.12    1.69
  -4  -7   2   17.32    2.16
  -4   7   2   16.26    1.88
   4   7  -1   82.93    3.93
  -4  -7   1   76.62    4.25
  -4  -7   0  113.09    4.90
   4   7   0  108.20    4.84
  -4   7   0  114.67    5.14
   4   7   1   46.94    2.52
  -4   7  -1   48.64    2.94
  -4  -7  -1   45.75    3.20
  -4   7  -2  352.80   13.60
  -4  -7  -2  336.83   13.63
  -4  -7  -3   80.74    4.34
  -4  -7  -3   83.55    3.89
  -4  -7  -4   50.45    3.35
  -4  -7  -4   52.22    2.95
  -4   7  -5  502.04   19.28
  -4  -7  -5  497.64   19.31
  -4  -7  -5  501.17   19.14
  -4   7  -6    4.65    1.97
  -4  -7  -6    4.11    1.89
  -4  -7  -6    3.73    2.15
  -4   7  -7   35.70    2.77
  -4  -7  -7   32.07    2.93
  -4  -7  -7   32.09    2.82
  -4   7  -8   64.16    3.87
  -4  -7  -8   58.28    3.73
  -4  -7  -8   63.30    3.88
  -4  -7  -9   10.73    2.56
  -4  -7  -9   17.25    1.87
  -4   7  -9    9.28    2.33
  -4  -7  -9   11.37    2.25
  -4  -7 -10  110.14    5.16
  -4   7 -10  114.65    5.57
  -4  -7 -10  108.96    5.46
  -4  -7 -10  108.17    5.78
  -4  -7 -11   70.06    4.08
  -4   7 -11   69.39    4.13
  -4  -7 -11   71.07    3.83
  -4  -7 -11   69.72    4.66
  -4  -7 -12   -0.36    3.30
  -4  -7 -12    1.51    2.15
  -4  -7 -12    1.78    2.19
  -4   7 -12    1.99    2.29
  -4   7 -13   88.09    4.72
  -4  -7 -13   88.86    4.63
  -4  -7 -13   86.22    4.59
  -4  -7 -13   81.39    5.39
  -4  -7 -14    7.23    3.62
  -4   7 -14   10.83    2.53
  -4  -7 -14   12.81    2.53
  -4  -7 -15   29.24    4.27
  -4  -7 -15   32.54    3.20
  -4   7 -15   31.42    2.90
  -4   7 -16  128.31    6.18
  -4  -7 -16  132.59    6.43
  -4  -7 -16  143.40    7.43
  -4   7 -17   31.75    2.73
  -4  -7 -17   37.88    3.45
  -4  -7 -18   44.03    3.65
  -4  -7 -18   52.21    5.01
  -4  -7 -19   27.18    4.39
  -4  -7 -19   26.03    3.11
  -4  -7 -20    3.57    2.50
  -4  -7 -21   66.51    3.93
  -4  -7 -22    0.81    2.03
  -4  -7 -23   20.42    2.10
  -4  -7 -24   64.06    3.16
  -4  -7 -24   67.31    3.62
  -4  -7 -25   16.70    1.71
   4  -8 -26    2.48    1.16
   4  -8 -25   48.31    2.80
   4  -8 -25   43.02    2.50
   4  -8 -24    6.65    2.28
   4  -8 -24    2.08    1.68
   4  -8 -23   91.99    4.95
   4  -8 -23   89.16    4.64
   4  -8 -23   94.54    5.34
   4  -8 -22   -1.09    3.46
   4  -8 -22   -0.92    3.05
   4  -8 -22    1.78    2.30
   4  -8 -21  108.36    5.87
   4  -8 -21  101.71    5.50
   4  -8 -21   94.44    6.28
   4  -8 -20  141.48    7.54
   4  -8 -20  135.75    7.87
   4  -8 -20  155.70    7.13
   4   8 -19   79.41    4.61
   4  -8 -19   80.85    4.95
   4  -8 -18  124.25    6.54
   4   8 -18  131.46    6.47
   4   8 -17  394.77   15.50
   4  -8 -17  373.68   15.59
   4   8 -16   17.84    3.44
   4  -8 -16   19.16    3.20
   4  -8 -16   20.34    4.37
   4   8 -15    3.50    3.02
   4  -8 -15    6.67    4.07
   4  -8 -15    1.84    2.77
   4   8 -14  493.56   18.38
   4  -8 -14  466.83   18.69
   4  -8 -14  431.92   18.24
   4  -8 -13    4.74    2.47
   4   8 -13    2.69    2.97
   4  -8 -13    2.94    3.32
   4  -8 -12   45.02    4.31
  -4  -8  12   50.24    3.13
   4  -8 -12   49.98    3.54
   4  -8 -11  128.01    6.85
  -4  -8  11  132.65    6.06
   4  -8 -11  138.96    6.32
   4   8 -10   25.40    3.28
  -4  -8  10   24.35    2.49
   4   8  -9   43.25    3.34
  -4  -8   9   40.24    2.95
   4   8  -8  103.65    5.08
  -4   8   8   97.48    4.51
  -4  -8   8   90.45    4.81
   4   8  -7    0.63    1.94
  -4  -8   7    1.88    1.87
  -4   8   7    0.63    1.52
   4   8  -6    5.42    2.05
  -4  -8   6    2.65    2.08
  -4   8   6    2.53    1.66
   4   8  -5   88.53    4.62
  -4   8   5   94.19    4.45
  -4  -8   5   87.42    4.66
   4   8  -4   60.12    3.46
  -4   8   4   59.10    3.41
  -4  -8   4   56.64    3.60
   4   8  -3  188.97    7.98
  -4  -8   3  197.83    8.30
  -4   8   3  188.36    8.04
   4   8  -2  255.76   10.51
  -4  -8   2  269.04   10.86
  -4   8   2  268.31   10.65
   4   8  -1   48.05    2.78
  -4  -8   1   42.75    3.35
  -4   8   1   42.42    3.00
  -4   8   0  199.27    8.11
   4   8   0  184.52    7.82
  -4   8  -1  894.87   32.17
   4   8   1  828.01   31.79
  -4   8  -2   15.14    2.49
  -4  -8  -2   16.45    2.86
  -4   8  -3  718.41   27.30
  -4  -8  -3  722.77   27.41
  -4  -8  -4   98.00    4.97
  -4  -8  -4   85.86    4.23
  -4  -8  -5  271.92   10.95
  -4  -8  -5  253.98   10.49
  -4   8  -6   49.83    3.65
  -4  -8  -6   50.59    3.79
  -4  -8  -6   53.03    3.30
  -4   8  -7 1206.32   44.57
  -4  -8  -7 1226.04   44.57
  -4  -8  -7 1152.55   44.35
  -4  -8  -8   -0.44    2.12
  -4   8  -8    3.13    2.53
  -4  -8  -8    1.04    2.56
  -4   8  -9  473.33   18.94
  -4  -8  -9  493.57   18.97
  -4  -8  -9  486.93   18.94
  -4   8 -10   55.04    3.88
  -4  -8 -10   53.72    3.92
  -4  -8 -10   55.21    3.87
  -4   8 -11  339.69   13.67
  -4  -8 -11  348.72   13.66
  -4  -8 -11  318.96   13.70
  -4   8 -12   62.89    3.99
  -4  -8 -12   49.49    3.81
  -4  -8 -12   60.98    4.38
  -4   8 -13  202.04    8.80
  -4  -8 -13  201.69    8.38
  -4  -8 -13  193.48    8.58
  -4  -8 -13  197.47    9.13
  -4  -8 -14    0.43    2.14
  -4  -8 -14    0.92    3.46
  -4   8 -14   -1.58    2.57
  -4  -8 -14    5.91    2.14
  -4   8 -15  143.83    6.70
  -4  -8 -15  137.96    6.40
  -4  -8 -15  146.72    7.48
  -4  -8 -16    4.73    3.69
  -4   8 -16    4.33    2.26
  -4  -8 -16    6.21    2.14
  -4   8 -17  207.10    8.74
  -4  -8 -17  200.70    8.69
  -4  -8 -17  220.70    9.59
  -4  -8 -18   -2.46    3.35
  -4   8 -18    1.20    1.87
  -4  -8 -18    3.83    2.09
  -4  -8 -19   28.83    3.52
  -4  -8 -19   20.76    2.39
  -4  -8 -20   42.07    2.90
  -4  -8 -20   57.77    3.99
  -4  -8 -21   24.70    2.81
  -4  -8 -21   15.20    1.98
  -4  -8 -22    6.47    2.21
  -4  -8 -22    3.62    1.28
  -4  -8 -23   -1.74    1.85
   4  -9 -25   32.13    1.88
   4  -9 -25   27.16    1.92
   4  -9 -24    2.84    1.75
   4  -9 -24    2.58    1.65
   4  -9 -23   28.61    2.76
   4  -9 -23   30.40    2.70
   4  -9 -22   -0.06    2.56
   4  -9 -22    3.46    2.51
   4  -9 -22   -1.13    1.64
   4  -9 -22    1.72    1.43
   4  -9 -21   10.99    3.08
   4  -9 -21    6.48    2.10
   4  -9 -21    9.97    1.84
   4  -9 -20    5.66    3.26
   4  -9 -20    9.41    2.09
   4  -9 -19   15.09    3.72
   4   9 -19   19.93    2.80
   4  -9 -19   15.63    2.42
   4  -9 -18   18.52    2.64
   4   9 -18   22.37    3.13
   4  -9 -18   23.26    4.14
   4  -9 -18   19.08    3.98
   4  -9 -17   17.52    2.66
   4   9 -17   25.62    3.35
   4  -9 -17   24.56    4.14
   4   9 -16  100.37    5.67
   4  -9 -16   97.63    6.13
   4  -9 -16   89.97    4.95
   4   9 -15   53.38    4.36
   4  -9 -15   48.48    4.86
   4   9 -14   14.49    3.55
   4  -9 -14   11.44    4.14
   4  -9 -13    0.73    3.51
  -4  -9  12   22.26    2.36
   4  -9 -12   22.00    3.83
   4   9 -11   16.05    3.49
   4  -9 -11   18.82    3.58
  -4  -9  11   21.30    2.48
  -4  -9  10   64.55    3.94
   4   9 -10   68.50    4.51
   4  -9 -10   70.38    4.80
  -4  -9   9   25.59    2.72
   4   9  -9   26.96    3.22
   4  -9  -9   26.32    3.49
  -4   9   8   49.50    2.98
  -4  -9   8   51.44    3.60
   4   9  -8   50.62    3.75
   4  -9  -8   46.63    4.01
   4   9  -7   21.30    2.97
   4  -9  -7   19.19    2.89
  -4  -9   7   20.41    2.75
  -4   9   7   19.41    2.18
  -4   9   6   42.73    2.92
   4   9  -6   42.40    3.25
   4  -9  -6   40.67    3.21
  -4  -9   6   44.22    3.44
   4   9  -5  346.65   13.86
   4  -9  -5  356.67   13.81
  -4   9   5  344.44   13.69
  -4  -9   5  341.26   13.91
   4   9  -4   45.28    3.11
   4  -9  -4   36.13    2.97
  -4   9   4   44.15    3.12
  -4  -9   4   45.48    3.46
  -4   9   3  437.27   17.00
   4   9  -3  436.67   16.99
  -4  -9   3  438.16   17.27
   4   9  -2    2.05    1.72
  -4  -9   2    1.36    2.63
  -4   9   2    1.68    1.98
   4   9  -1   20.83    2.19
  -4  -9   1   13.99    2.91
  -4   9   1   19.58    2.66
  -4   9   0   66.22    3.87
   4   9   0   60.69    3.42
  -4  -9   0   63.19    4.40
  -4   9  -1  182.72    7.99
  -4   9  -2   16.05    2.81
  -4  -9  -3   21.75    3.29
  -4   9  -3   21.18    3.05
  -4  -9  -4    1.26    3.07
  -4   9  -4    3.02    2.86
  -4  -9  -5  212.11    9.40
  -4  -9  -6   51.14    4.21
  -4  -9  -6   49.62    3.11
  -4  -9  -7    3.22    2.12
  -4   9  -7    1.07    2.75
  -4  -9  -7   -1.89    2.99
  -4  -9  -8  234.72   10.08
  -4   9  -8  238.08   10.44
  -4  -9  -8  258.32   10.56
  -4  -9  -9   12.80    2.64
  -4   9  -9   12.36    3.01
  -4  -9  -9    8.69    3.08
  -4   9 -10  114.37    5.87
  -4  -9 -10  116.08    5.85
  -4  -9 -10   99.07    5.40
  -4  -9 -11    5.84    2.60
  -4   9 -11    2.25    2.99
  -4  -9 -11    6.14    2.87
  -4   9 -12   42.26    3.66
  -4  -9 -12   44.45    3.61
  -4  -9 -12   44.80    3.78
  -4   9 -13  155.16    7.20
  -4  -9 -13  143.49    6.90
  -4  -9 -13  151.10    7.23
  -4   9 -14    5.80    2.68
  -4  -9 -14   12.75    3.10
  -4  -9 -14   10.26    2.49
  -4  -9 -15  287.74   11.42
  -4   9 -15  277.74   11.17
  -4  -9 -15  251.84   10.87
  -4  -9 -16   11.81    3.12
  -4   9 -16   10.23    2.35
  -4   9 -17  255.32   10.79
  -4  -9 -17  286.08   11.25
  -4  -9 -18   21.18    2.98
  -4   9 -18   14.02    2.01
  -4  -9 -19  130.19    6.14
  -4  -9 -20   16.24    2.41
  -4  -9 -21   90.91    4.44
  -4  -9 -22   30.28    2.12
  -4  -9 -23   18.70    1.43
   4 -10 -24   12.06    1.20
   4 -10 -23   12.91    1.57
   4 -10 -22    2.69    1.69
   4 -10 -22    2.15    1.14
   4 -10 -21    7.28    2.19
   4 -10 -21    7.36    1.72
   4 -10 -20   75.18    4.26
   4 -10 -20   65.25    3.83
   4 -10 -20   70.48    4.18
   4 -10 -19  117.85    5.91
   4  10 -19  124.97    5.77
   4 -10 -19  131.75    6.11
   4 -10 -19  112.68    6.01
   4 -10 -18    5.00    2.88
   4  10 -18    6.23    2.57
   4 -10 -18    4.05    3.27
   4 -10 -17   14.31    3.25
   4  10 -17   16.83    2.93
   4 -10 -17   23.38    3.59
   4  10 -16  200.97    8.84
   4 -10 -16  207.23    9.09
   4 -10 -16  185.76    9.00
   4  10 -15  677.97   26.31
   4 -10 -15  723.86   26.53
   4 -10 -15  659.76   26.52
   4 -10 -14   81.52    5.34
   4 -10 -13  642.78   24.84
   4  10 -12   19.37    3.72
   4 -10 -12   21.37    3.87
   4  10 -11  674.03   25.78
   4 -10 -11  691.99   25.78
  -4 -10  11  648.75   25.26
  -4 -10  10   30.24    2.82
   4  10 -10   29.44    3.60
   4 -10 -10   26.40    3.50
   4  10  -9  656.31   25.73
   4 -10  -9  699.31   25.77
  -4 -10   9  657.07   25.44
   4 -10  -8  150.12    7.27
   4  10  -8  164.46    7.35
  -4 -10   8  150.92    7.02
   4  10  -7  466.42   18.03
   4 -10  -7  456.78   17.92
  -4  10   7  453.78   17.59
  -4 -10   7  454.33   17.93
  -4 -10   6  223.85    9.69
   4  10  -6  234.00    9.66
  -4  10   6  225.04    9.33
   4 -10  -6  219.89    9.50
   4  10  -5  216.14    9.33
  -4  10   5  220.29    9.09
   4 -10  -5  211.70    9.12
  -4 -10   5  224.29    9.50
   4  10  -4  241.53   10.20
  -4  10   4  244.69   10.12
  -4 -10   4  250.71   10.58
   4  10  -3   85.72    4.77
  -4  10   3   93.71    4.84
  -4 -10   3  102.10    5.42
   4  10  -2   23.95    2.51
  -4 -10   2   23.27    3.51
  -4  10   2   22.83    2.78
   4  10  -1  157.15    7.03
  -4 -10   1  168.32    7.81
  -4  10   1  162.92    7.32
   4  10   0   89.17    4.51
  -4  10   0   90.00    5.03
  -4 -10   0  104.68    5.66
  -4  10  -1   -1.03    2.73
   4 -10   1    2.80    2.22
  -4  10  -2    8.48    2.94
  -4  10  -3  137.39    6.73
  -4 -10  -4   48.64    4.38
  -4  10  -4   50.58    4.01
  -4  10  -5   14.42    3.36
  -4 -10  -5   14.91    3.62
  -4 -10  -6  146.57    7.38
  -4 -10  -7  583.57   22.76
  -4  10  -8  119.06    6.33
  -4 -10  -8  125.94    6.44
  -4 -10  -8  113.74    5.45
  -4  10  -9   70.40    4.77
  -4 -10  -9   70.34    3.94
  -4 -10  -9   70.24    4.92
  -4  10 -10  425.68   17.60
  -4 -10 -10  439.04   17.23
  -4 -10 -10  465.76   17.66
  -4  10 -11   99.27    5.62
  -4 -10 -11  103.04    5.55
  -4 -10 -11  103.99    5.16
  -4 -10 -12   48.16    3.75
  -4  10 -12   50.96    3.90
  -4 -10 -12   44.75    3.39
  -4 -10 -13    2.75    2.35
  -4 -10 -13    5.92    2.61
  -4  10 -13    6.30    2.73
  -4 -10 -14    3.28    2.38
  -4  10 -14    3.01    2.40
  -4 -10 -14    2.49    2.15
  -4  10 -15    2.61    2.21
  -4 -10 -15    1.66    1.81
  -4 -10 -15    6.03    2.29
  -4 -10 -16    6.69    2.37
  -4  10 -16    5.68    2.17
  -4  10 -17   50.30    3.16
  -4 -10 -17   57.37    3.40
  -4  10 -18   21.43    1.91
  -4 -10 -18   25.03    2.29
  -4 -10 -19   60.96    3.31
  -4 -10 -20   68.92    3.37
  -4 -10 -21   31.17    1.84
   4 -11 -22   23.09    1.63
   4 -11 -21   38.98    2.15
   4 -11 -21   35.55    2.17
   4 -11 -20    6.29    1.49
   4 -11 -20    8.11    1.94
   4 -11 -20    8.50    1.69
   4 -11 -19   17.03    2.01
   4 -11 -19   23.00    2.47
   4 -11 -19   19.08    2.31
   4 -11 -18    5.54    1.93
   4  11 -18    4.90    2.07
   4 -11 -18    6.13    2.25
   4 -11 -18    5.12    2.39
   4  11 -17  150.26    6.54
   4 -11 -17  147.90    6.69
   4 -11 -17  148.37    6.83
   4 -11 -17  130.46    6.40
   4 -11 -16   13.60    2.46
   4  11 -16   19.50    2.94
   4 -11 -16   15.92    3.10
   4 -11 -16   12.87    3.26
   4 -11 -15  185.34    7.92
   4 -11 -15  165.20    7.66
   4 -11 -14  137.09    6.38
   4 -11 -14  117.34    6.03
   4 -11 -13    6.02    2.33
   4  11 -13    7.39    3.11
   4 -11 -13   10.52    3.00
   4  11 -12   83.34    4.86
   4 -11 -12   79.28    4.71
   4  11 -11   -0.96    2.95
   4 -11 -11    1.20    2.89
  -4 -11  11   -0.80    1.80
   4  11 -10   -1.29    3.10
   4 -11 -10    5.03    2.76
  -4 -11  10    0.82    2.06
   4  11  -9   81.52    4.86
  -4 -11   9   75.65    4.32
   4 -11  -9   81.07    4.66
   4  11  -8    8.99    2.95
   4 -11  -8    4.97    2.53
  -4 -11   8    6.12    2.64
   4  11  -7   18.51    2.94
   4 -11  -7   16.72    2.45
  -4 -11   7   21.92    2.98
   4  11  -6   85.91    4.88
  -4  11   6   86.31    4.34
  -4 -11   6   86.30    5.05
   4  11  -5   33.04    3.29
  -4  11   5   32.08    2.73
  -4 -11   5   35.46    3.58
  -4  11   4    3.94    2.18
   4  11  -4   -0.73    2.28
  -4 -11   4   -0.67    3.12
   4  11  -3   95.41    4.91
  -4  11   3   94.56    4.96
  -4 -11   3  100.64    5.63
   4  11  -2    4.35    1.99
  -4  11   2    3.67    2.32
  -4 -11   2    3.83    3.32
   4 -11  -2   -3.27    2.85
   4  11  -1   15.81    2.14
  -4  11   1   18.84    2.82
   4 -11  -1   13.94    2.94
  -4 -11   1   22.56    3.70
  -4  11   0   12.50    2.66
  -4 -11   0   13.30    3.78
   4 -11   0    8.88    2.49
  -4 -11  -1   63.53    4.93
  -4  11  -1   58.58    4.15
   4 -11   1   53.53    3.61
  -4  11  -2   19.20    3.30
  -4  11  -3  156.31    7.41
  -4  11  -4    3.83    3.11
  -4 -11  -4    5.04    3.81
  -4  11  -5 1220.03   47.21
  -4 -11  -5 1313.03   47.40
  -4  11  -6    3.10    3.23
  -4 -11  -6    6.37    3.79
  -4 -11  -7   19.67    3.74
  -4 -11  -8   17.31    3.72
  -4  11  -9   69.41    4.88
  -4 -11  -9   82.35    5.09
  -4 -11 -10   12.86    3.30
  -4  11 -10   15.17    3.21
  -4  11 -11    2.86    2.88
  -4 -11 -11    6.04    2.79
  -4 -11 -12   12.38    2.03
  -4  11 -12   17.68    2.83
  -4 -11 -12   16.82    2.77
  -4 -11 -13    9.09    1.99
  -4  11 -13   10.54    2.42
  -4 -11 -13   11.73    2.47
  -4 -11 -14   -0.10    1.76
  -4  11 -14    0.37    2.09
  -4 -11 -14    2.91    1.89
  -4 -11 -15   15.34    1.94
  -4  11 -15   22.06    2.32
  -4 -11 -15   19.37    1.93
  -4 -11 -16    3.44    1.55
  -4  11 -16    5.21    1.71
  -4 -11 -17    0.73    1.30
  -4  11 -17    1.31    1.35
  -4  11 -18    2.60    0.91
  -4 -11 -18    1.83    1.06
   4 -12 -19   18.56    1.59
   4 -12 -19   15.87    1.52
   4 -12 -18   19.23    1.87
   4 -12 -18   16.95    1.95
   4 -12 -17    2.37    1.77
   4 -12 -17    1.38    1.98
   4 -12 -16   26.77    2.39
   4 -12 -16   22.13    2.75
   4 -12 -15   90.33    4.56
   4 -12 -15   96.42    5.13
   4  12 -14   18.53    2.61
   4 -12 -14   21.87    2.56
   4  12 -13    8.88    2.62
   4 -12 -13   10.27    2.40
   4 -12 -12   54.55    3.57
   4  12 -12   56.17    3.84
   4  12 -11   83.52    4.54
   4 -12 -11   72.99    4.21
   4 -12 -11   79.72    5.32
   4  12 -10   49.26    3.58
   4 -12 -10   48.97    3.31
  -4 -12  10   45.99    2.95
   4 -12 -10   49.39    4.54
   4  12  -9   40.14    3.42
   4 -12  -9   41.46    2.98
  -4 -12   9   42.38    2.95
   4 -12  -9   44.75    4.67
   4  12  -8  205.46    8.83
  -4 -12   8  201.87    8.58
   4 -12  -8  202.72    9.50
   4  12  -7   28.10    2.98
  -4 -12   7   30.81    3.04
   4 -12  -7   28.37    3.96
   4  12  -6  107.65    5.48
  -4 -12   6  114.37    5.59
   4 -12  -6  109.65    6.26
   4  12  -5   44.91    3.33
  -4  12   5   39.76    2.78
  -4 -12   5   42.96    3.69
   4 -12  -5   40.02    4.05
   4  12  -4   44.56    3.19
  -4  12   4   43.54    3.06
  -4 -12   4   54.10    3.95
   4 -12  -4   47.00    4.18
   4  12  -3   19.31    2.34
  -4 -12   3   24.24    3.63
  -4  12   3   18.58    2.43
   4 -12  -3   22.10    3.40
  -4  12   2    3.24    2.18
   4  12  -2    6.95    1.87
  -4 -12   2    9.43    3.32
   4 -12  -2    7.14    2.71
  -4  12   1   23.89    2.89
  -4 -12   1   26.41    3.79
   4 -12  -1   20.66    2.89
  -4  12   0  115.13    5.56
  -4 -12   0  118.16    6.19
   4 -12   0  101.27    5.37
  -4 -12  -1  247.32   10.27
  -4  12  -1  213.40    9.64
  -4  12  -2   22.09    3.11
  -4 -12  -2   17.46    4.12
  -4  12  -3   67.00    4.40
  -4  12  -4  101.59    5.57
  -4  12  -5  245.76   10.50
  -4 -12  -5  250.20   10.84
  -4  12  -6  418.26   16.48
  -4 -12  -6  409.54   16.56
  -4 -12  -7  395.03   14.56
  -4  12  -7  324.69   14.29
  -4 -12  -8  177.30    8.10
  -4 -12  -9   24.96    3.29
  -4  12 -10   58.66    3.81
  -4 -12 -10   53.15    3.84
  -4  12 -11  381.67   15.21
  -4 -12 -11  392.07   15.19
  -4  12 -12  368.46   13.91
  -4 -12 -12  339.60   13.77
  -4  12 -13   87.92    4.44
  -4 -12 -13   91.16    4.33
  -4  12 -14   99.85    4.46
  -4 -12 -14   89.07    4.18
  -4  12 -15   15.94    1.78
  -4  12 -16   12.30    1.35
   4 -13 -17    1.33    1.12
   4 -13 -16   25.26    2.04
   4 -13 -15   25.28    1.68
   4 -13 -15   35.16    2.49
   4  13 -14   25.99    2.20
   4  13 -13   35.34    2.57
   4  13 -12   10.54    2.04
   4 -13 -12    9.09    2.58
   4  13 -11    6.57    2.07
   4 -13 -11    7.43    2.80
   4  13 -10    4.96    2.04
   4 -13 -10    3.52    2.80
   4  13  -9    2.26    2.02
   4 -13  -9    1.59    2.83
   4  13  -8    6.08    2.03
   4 -13  -8    7.58    3.03
  -4 -13   8    7.62    1.81
   4  13  -7   11.42    2.21
  -4 -13   7   13.83    2.09
   4 -13  -7   10.93    2.93
   4  13  -6    3.16    1.91
  -4 -13   6    6.11    2.18
   4 -13  -6    7.47    2.78
   4  13  -5  277.97   11.56
  -4 -13   5  304.31   11.82
   4 -13  -5  301.62   12.07
   4  13  -4   78.04    3.94
  -4  13   4   72.48    3.72
  -4 -13   4   88.42    4.53
   4 -13  -4   78.21    4.59
   4  13  -3  159.49    7.06
  -4  13   3  168.12    7.15
   4 -13  -3  176.27    7.62
  -4  13   2   49.76    3.05
  -4 -13   2   52.86    3.85
   4 -13  -2   44.75    3.33
  -4  13   1    5.61    2.09
  -4 -13   1    9.52    3.04
   4 -13  -1    5.92    2.02
  -4  13   0   26.26    2.59
  -4 -13   0   29.16    3.45
  -4  13  -1    4.88    2.26
  -4 -13  -1    6.49    3.11
  -4 -13  -2  137.12    6.39
  -4  13  -2  117.59    5.78
  -4 -13  -3    8.20    3.28
  -4  13  -3    6.52    2.38
  -4  13  -4   73.21    4.19
  -4  13  -5   98.73    5.04
  -4  13  -6    0.76    2.30
  -4 -13  -6    0.55    2.84
  -4  13  -7   46.96    3.40
  -4 -13  -7   49.03    3.72
  -4  13  -8    9.18    2.34
  -4 -13  -8   16.96    2.74
  -4 -13  -9    5.13    2.34
  -4 -13 -10   30.15    2.60
  -4  13 -11   15.73    2.03
  -4 -13 -11   13.80    2.02
  -4  13 -12   12.63    1.78
  -4 -13 -12   10.72    1.64
  -4 -13 -13    5.57    1.20
  -4  13 -13    9.30    1.50
  -4  13 -14   15.77    1.45
  -4  13 -15   37.50    1.90
   4 -14 -13    4.50    1.36
   4 -14 -12   42.01    2.57
   4 -14 -11   23.77    2.21
   4 -14 -10  122.63    5.47
   4 -14  -9   13.10    2.10
   4 -14  -8  100.08    4.82
  -4 -14   7    5.39    1.31
   4 -14  -7    6.34    2.00
   4 -14  -6  273.69   10.75
  -4 -14   6  264.65   10.47
  -4 -14   5    0.93    1.61
   4 -14  -5    4.12    1.83
  -4 -14   4  152.33    6.26
   4 -14  -4  135.67    6.15
  -4 -14   3    3.93    2.00
   4 -14  -3    6.42    1.65
  -4  14   2  231.59    9.65
  -4 -14   2  287.18   10.21
  -4  14   1    2.01    1.32
  -4 -14   1    2.85    2.28
  -4  14   0   29.88    2.16
  -4 -14   0   33.91    2.93
  -4  14  -1   81.07    3.95
  -4 -14  -1   88.28    4.52
  -4  14  -2    4.61    1.71
  -4 -14  -2    7.20    2.36
  -4 -14  -3   32.09    2.88
  -4  14  -3   24.99    2.22
  -4  14  -4    0.77    1.57
  -4  14  -5    3.76    1.70
  -4  14  -6    7.98    1.71
  -4 -14  -6    6.47    2.18
  -4  14  -7   98.41    4.47
  -4 -14  -7   94.54    4.58
  -4  14  -8   69.91    3.52
  -4 -14  -8   73.36    3.64
  -4  14  -9   19.00    1.77
  -4 -14  -9   19.30    1.81
  -4 -14 -10   14.38    1.54
  -4  14 -11   19.31    1.56
  -4 -14 -11   19.79    1.41
  -4  14 -12   16.56    1.25
  -4 -15   4   11.50    1.15
  -4 -15   3   26.45    1.77
  -4 -15   2    3.65    1.23
  -4 -15   1    5.08    1.38
  -4 -15   0   86.77    3.94
  -4  15  -1  106.28    4.83
  -4 -15  -1  170.06    5.42
  -4  15  -2    1.81    0.81
  -4 -15  -2    5.03    1.49
  -4  15  -3   59.95    2.79
  -4 -15  -3   69.49    3.21
  -4  15  -4    6.29    1.01
  -4 -15  -4    7.65    1.45
  -4  15  -5   43.60    2.16
  -4  15  -6    1.58    0.85
  -4  15  -7    6.09    0.90
  -4 -15  -7    6.67    1.05
   5   0 -29    1.67    1.48
   5   0 -28   15.53    2.51
   5   0 -27    0.09    2.87
   5   0 -26   16.80    3.64
   5   0 -25   -2.93    3.79
   5   0 -24   20.71    4.62
   5   0 -23   -1.87    4.67
   5   0 -22   28.26    5.12
   5   0 -21   -1.52    4.72
   5   0 -20    3.02    4.54
   5   0 -19   -2.07    4.22
   5   0 -18   90.71    6.53
  -5   0  18   93.26    4.73
  -5   0  17    0.61    1.93
   5   0 -17   -0.98    2.70
   5   0 -16   62.22    4.10
  -5   0  16   60.88    3.55
  -5   0  15   -0.38    1.81
   5   0 -15   -1.88    2.33
   5   0 -14    2.38    2.24
  -5   0  14    2.64    1.70
   5   0 -13   -0.07    1.88
  -5   0  13    1.30    1.48
   5   0 -12  177.06    7.21
  -5   0  12  167.66    6.98
  -5   0  12  173.73    7.04
  -5   0  12  163.09    6.87
   5   0 -12  161.18    7.05
  -5   0  11   -0.90    1.29
   5   0 -11    2.06    1.63
  -5   0  11    0.61    0.84
   5   0 -11    0.97    0.91
  -5   0  11    0.45    1.06
   5   0 -10  673.66   25.83
  -5   0  10  701.23   25.76
  -5   0  10  701.55   25.80
  -5   0  10  681.48   25.72
   5   0  -9   -1.00    1.35
  -5   0   9    0.08    1.03
  -5   0   9   -0.90    0.75
  -5   0   9    0.98    1.13
  -5   0   8  109.78    4.70
   5   0  -8  106.26    4.70
  -5   0   8  109.65    4.57
  -5   0   8  112.49    4.70
  -5   0   7   -0.55    1.02
   5   0  -7    1.58    1.09
  -5   0   7    0.39    0.63
  -5   0   7    0.12    0.95
  -5   0   6  145.50    5.68
  -5   0   6  141.28    5.87
  -5   0   5    0.22    0.55
  -5   0   4   91.06    3.56
  -5   0   4   83.64    3.83
   5   0  -3    0.62    0.87
  -5   0   3   -0.34    0.96
  -5   0   3    0.16    0.42
   5   0  -2  132.12    5.45
  -5   0   2  136.42    5.14
  -5   0   2  135.18    5.48
   5   0  -1    1.38    0.84
  -5   0   1    0.52    0.30
  -5   0   1    0.51    0.85
  -5   0   0   57.97    2.62
   5   0   0   51.96    2.52
   5   0   1    0.09    0.77
  -5   0  -1   -0.31    0.80
  -5   0  -2  673.34   24.13
   5   0   2  630.97   24.08
   5   0   3    0.20    0.79
  -5   0  -3    0.49    0.89
  -5   0  -4 1656.31   60.09
  -5   0  -4 1626.34   60.19
   5   0   4 1641.78   60.03
  -5   0  -5    0.69    1.02
   5   0   5    0.48    0.72
  -5   0  -5    0.49    0.87
  -5   0  -5    0.48    1.17
  -5   0  -6 1752.02   62.86
  -5   0  -6 1683.95   63.09
  -5   0  -6 1691.67   63.04
   5   0   6 1727.11   62.78
  -5   0  -7    1.82    1.23
   5   0   7    0.79    0.70
  -5   0  -7    0.82    0.83
  -5   0  -7    2.00    1.33
  -5   0  -8 3325.17  121.62
  -5   0  -8 3347.61  121.23
  -5   0  -8 3359.58  121.55
   5   0   8 3299.49  121.15
  -5   0  -9    2.17    1.38
  -5   0  -9    3.89    1.67
  -5   0 -10 3700.17  136.95
  -5   0 -10 3787.05  136.83
  -5   0 -11    3.40    1.74
  -5   0 -11    1.98    2.17
  -5   0 -12  534.71   20.76
  -5   0 -12  540.64   20.57
  -5   0 -13    1.52    1.96
  -5   0 -13    0.53    2.33
  -5   0 -14 1243.94   46.82
  -5   0 -14 1260.92   46.62
  -5   0 -15    3.67    2.18
  -5   0 -15    4.09    3.08
  -5   0 -16 1963.89   70.97
  -5   0 -16 1875.08   70.70
  -5   0 -17    6.06    2.36
  -5   0 -17    2.30    3.16
  -5   0 -18  114.92    6.34
  -5   0 -18  103.07    5.43
  -5   0 -19    1.13    3.49
  -5   0 -19   -2.10    2.52
  -5   0 -20  171.75    8.39
  -5   0 -20  170.10    7.60
  -5   0 -21    1.00    2.16
  -5   0 -21    6.40    3.37
  -5   0 -22   33.86    2.76
  -5   0 -22   46.66    4.04
  -5   0 -23   -3.68    3.20
  -5   0 -24  151.44    7.03
  -5   0 -25   -0.54    2.19
  -5   0 -26    8.38    1.84
  -5   0 -27    0.79    1.19
   5  -1 -29  129.89    5.85
   5   1 -28   57.57    3.21
   5  -1 -28   57.84    4.01
   5   1 -27  157.36    7.06
   5  -1 -27  152.86    7.68
   5   1 -26    5.91    2.94
   5  -1 -26    3.69    3.91
   5   1 -25   66.31    4.94
   5  -1 -25   67.13    5.79
   5  -1 -25   62.03    4.52
   5  -1 -24   27.58    5.17
   5   1 -24   34.09    4.24
   5  -1 -23   77.21    6.72
   5   1 -23   82.45    5.84
   5  -1 -22    2.04    5.15
   5   1 -22   -2.00    4.28
   5  -1 -21   25.62    5.54
   5  -1 -21   22.74    3.30
   5   1 -20   18.13    4.41
   5  -1 -20    8.92    4.72
   5  -1 -20   12.57    3.03
   5  -1 -19  103.89    7.12
   5   1 -19  103.70    6.63
   5   1 -18   18.73    4.21
   5  -1 -18   13.60    4.45
  -5  -1  18   18.55    2.24
   5  -1 -17  354.89   15.26
  -5   1  17  379.76   14.81
  -5  -1  17  382.06   14.71
   5  -1 -16   54.59    3.94
  -5   1  16   43.86    3.24
  -5  -1  16   48.34    3.07
   5  -1 -15  512.78   20.43
  -5  -1  15  530.01   20.08
  -5   1  15  552.68   20.19
   5   1 -15  499.97   20.26
   5  -1 -14    1.78    2.36
  -5  -1  14    4.61    1.52
   5   1 -14    1.18    1.84
  -5   1  14    3.30    1.76
  -5  -1  13  323.11   12.74
   5  -1 -13  323.64   13.02
   5   1 -13  318.30   12.89
  -5   1  13  339.40   12.87
  -5   1  12  371.95   14.40
   5  -1 -12  356.00   14.54
   5   1 -12  373.01   14.54
  -5  -1  12  378.30   14.40
  -5   1  12  375.33   14.28
  -5   1  12  380.76   14.50
  -5   1  11  269.98   10.64
  -5   1  11  270.49   10.51
   5  -1 -11  260.41   10.69
   5   1 -11  265.89   10.64
  -5   1  11  261.03   10.45
  -5  -1  11  260.90   10.53
   5   1 -11  280.50   10.71
  -5  -1  11  276.01   10.57
  -5  -1  10  216.76    8.56
   5  -1 -10  205.94    8.68
  -5   1  10  221.75    8.52
   5   1 -10  209.45    8.61
  -5   1  10  218.91    8.64
   5   1 -10  223.42    8.70
  -5   1  10  209.76    8.50
  -5  -1  10  209.96    8.53
   5   1  -9  100.14    4.34
  -5  -1   9   89.82    4.14
  -5   1   9  100.21    4.17
   5  -1  -9   97.20    4.40
   5   1  -9   94.07    4.33
  -5   1   9   97.78    4.24
  -5   1   9   97.84    4.35
  -5  -1   9   96.63    4.26
  -5   1   8  234.54    9.48
  -5   1   8  244.78    9.37
   5   1  -8  235.42    9.45
  -5  -1   8  242.91    9.46
  -5   1   8  245.99    9.47
   5   1  -8  244.91    9.57
  -5  -1   8  253.96    9.42
   5  -1  -8  230.61    9.50
  -5  -1   7  346.26   12.71
  -5   1   7  335.14   12.66
   5  -1  -7  316.49   12.81
  -5   1   7  348.48   12.82
  -5  -1   7  326.54   12.78
   5  -1  -6 1433.22   52.53
   5  -1  -6 1361.00   52.50
  -5   1   6 1395.52   52.51
  -5   1   6 1478.88   52.53
  -5   1   6 1490.11   52.37
  -5  -1   6 1415.42   52.38
  -5   1   5    3.98    1.08
   5  -1  -5    5.26    1.09
  -5  -1   5    4.34    0.76
  -5   1   5    5.69    0.71
  -5  -1   4  741.63   27.04
  -5   1   4  729.29   26.98
  -5  -1   3    7.20    0.73
  -5   1   3    9.80    0.67
  -5   1   3    7.70    1.12
  -5  -1   2  153.95    5.79
  -5   1   2  147.47    6.07
  -5  -1   2  152.85    6.06
  -5   1   2  149.79    5.67
   5  -1  -2  154.05    6.06
  -5  -1   1   85.81    3.58
  -5   1   1   90.98    3.85
  -5  -1   1   94.69    3.86
  -5  -1   1   88.89    3.51
   5  -1  -1   94.09    3.86
  -5  -1   0  974.60   37.43
  -5   1   0 1060.45   37.70
  -5  -1   0 1042.41   37.36
  -5  -1   0 1017.73   37.65
   5  -1   0 1039.95   37.67
  -5  -1  -1  173.63    6.55
  -5   1  -1  179.26    6.94
  -5  -1  -1  177.43    6.91
  -5  -1  -1  175.96    6.61
   5  -1   1  181.06    6.93
   5  -1   2    6.78    0.96
  -5  -1  -2    7.65    1.00
  -5   1  -2    6.57    1.06
  -5  -1  -2    6.55    0.44
  -5  -1  -2    6.96    0.47
  -5  -1  -3 1038.18   38.49
  -5   1  -3 1080.35   38.93
  -5   1  -3 1040.49   38.99
  -5  -1  -3 1119.30   38.88
  -5  -1  -3 1051.03   39.02
   5  -1   3 1085.54   38.90
  -5  -1  -4   36.96    1.46
  -5  -1  -4   35.72    2.15
  -5   1  -4   38.38    2.06
  -5   1  -4   39.60    2.17
  -5  -1  -4   37.37    1.94
  -5   1  -4   35.15    1.99
   5  -1   4   38.71    1.94
  -5  -1  -4   38.18    2.19
  -5   1  -5  173.01    6.76
  -5  -1  -5  177.97    6.68
  -5  -1  -5  173.60    6.94
  -5   1  -5  174.86    6.90
  -5  -1  -5  177.28    6.94
   5  -1   5  178.76    6.71
  -5   1  -5  174.86    6.81
  -5  -1  -5  163.65    6.26
  -5   1  -6   35.07    1.93
  -5  -1  -6   38.11    1.80
  -5  -1  -6   31.08    1.34
  -5  -1  -6   36.39    2.24
  -5   1  -6   32.56    2.12
  -5   1  -6   34.72    2.04
   5  -1   6   37.97    1.85
  -5  -1  -6   38.52    2.20
  -5   1  -7  246.93    9.53
  -5  -1  -7  254.79    9.40
  -5   1  -7  236.03    9.76
   5  -1   7  248.19    9.46
  -5   1  -7  243.39    9.66
  -5  -1  -7  243.95    9.78
  -5   1  -8  234.43    8.99
  -5   1  -8  227.13    9.18
  -5  -1  -8  241.58    9.34
  -5   1  -8  228.13    9.28
   5  -1   8  228.89    8.89
  -5   1  -9  384.74   15.46
  -5   1  -9  407.21   15.34
  -5  -1  -9  408.76   15.50
  -5   1 -10   36.88    2.61
  -5   1 -10   33.68    2.42
  -5  -1 -10   35.70    2.68
  -5   1 -11    3.89    1.59
  -5  -1 -11    5.91    2.05
  -5   1 -11    6.05    2.00
  -5   1 -12  501.53   19.59
  -5   1 -12  508.57   19.39
  -5  -1 -12  511.80   19.60
  -5   1 -13   20.38    2.32
  -5  -1 -13   28.71    2.83
  -5   1 -13   29.87    2.82
  -5  -1 -13   26.05    3.14
  -5  -1 -14  282.78   11.63
  -5   1 -14  267.84   11.15
  -5   1 -14  283.93   11.48
  -5  -1 -14  276.14   11.46
  -5  -1 -15    9.54    2.64
  -5   1 -15    3.12    2.09
  -5   1 -15    6.12    2.76
  -5  -1 -15    9.10    3.24
  -5   1 -16  199.51    8.78
  -5  -1 -16  194.00    9.03
  -5   1 -16  194.34    8.33
  -5  -1 -16  188.63    8.66
  -5   1 -17   22.50    2.62
  -5  -1 -17   24.26    3.15
  -5   1 -17   26.95    3.53
  -5  -1 -17   26.64    3.79
  -5   1 -18   98.59    5.48
  -5  -1 -18   84.65    5.68
  -5   1 -18   84.07    4.56
  -5  -1 -18   89.83    5.22
  -5   1 -19   19.70    2.48
  -5  -1 -19   23.70    3.27
  -5   1 -19   21.27    3.57
  -5  -1 -19   23.75    3.98
  -5   1 -20   21.96    2.33
  -5   1 -20   29.26    3.58
  -5  -1 -20   29.83    4.38
  -5  -1 -20   25.49    3.32
  -5  -1 -21   -2.56    2.50
  -5   1 -21   -3.63    3.28
  -5  -1 -21    5.21    3.75
  -5  -1 -22   26.01    2.90
  -5   1 -22   26.32    3.37
  -5  -1 -22   35.69    4.01
  -5  -1 -23    3.68    2.08
  -5   1 -23    1.33    2.77
  -5  -1 -23    2.41    3.34
  -5  -1 -24    2.38    1.59
  -5   1 -24    0.86    2.25
  -5  -1 -24   -2.10    3.02
  -5   1 -25   17.28    2.26
  -5  -1 -25   16.30    2.80
  -5   1 -26   -0.08    1.33
  -5  -1 -26   -1.30    2.03
  -5  -1 -27   35.35    2.27
   5  -2 -29   94.73    4.65
   5  -2 -28    3.98    2.64
   5  -2 -27    2.65    3.14
   5  -2 -27    1.13    1.91
   5  -2 -26    5.98    4.08
   5  -2 -26    5.68    2.73
   5   2 -26    1.77    2.13
   5  -2 -25   -0.13    4.06
   5  -2 -25    0.22    3.11
   5   2 -25    1.49    2.54
   5  -2 -24   31.97    5.44
   5   2 -24   32.76    3.68
   5   2 -23   13.55    3.37
   5  -2 -23    3.60    5.25
   5  -2 -23   10.13    2.93
   5   2 -22   37.23    4.26
   5  -2 -22   28.30    5.69
   5  -2 -22   33.11    3.80
   5   2 -21    0.70    3.30
   5  -2 -21    2.81    5.45
   5  -2 -21    4.69    3.22
   5  -2 -20  128.69    7.16
   5   2 -20  151.37    7.53
   5  -2 -20  132.84    8.56
   5  -2 -19   94.99    7.25
   5   2 -19  108.39    6.25
   5   2 -18   29.28    3.96
   5  -2 -18   27.87    4.89
  -5  -2  18   27.61    2.40
   5   2 -17  356.13   14.48
   5  -2 -17  327.83   14.14
  -5  -2  17  340.42   13.44
   5  -2 -16   21.13    3.37
  -5   2  16   20.00    2.46
  -5  -2  16   22.91    2.23
   5  -2 -15   32.89    3.33
  -5   2  15   35.23    2.81
  -5  -2  15   34.91    2.50
  -5  -2  14  200.93    8.21
   5  -2 -14  189.61    8.68
  -5   2  14  204.62    8.51
   5  -2 -13  487.20   19.50
  -5  -2  13  506.37   19.22
  -5   2  13  519.63   19.42
  -5   2  12  727.38   26.57
   5  -2 -12  698.83   26.60
  -5  -2  12  716.41   26.38
  -5   2  12  680.69   26.24
   5  -2 -11  429.42   17.13
   5  -2 -11  443.68   17.39
   5   2 -11  458.59   17.31
  -5  -2  11  462.01   17.31
  -5   2  11  459.43   17.38
  -5   2  11  447.56   17.12
  -5   2  11  459.50   17.23
  -5  -2  11  462.52   17.22
   5   2 -10 1076.37   38.57
   5  -2 -10  973.20   38.26
   5  -2 -10 1017.25   38.50
   5   2 -10 1013.55   38.38
  -5   2  10 1051.62   38.50
  -5   2  10 1033.30   38.30
  -5  -2  10 1041.48   38.36
  -5  -2  10 1071.73   38.45
  -5   2  10 1054.70   38.36
  -5  -2  10 1056.52   38.41
  -5  -2   9  714.39   26.82
  -5   2   9  750.07   26.92
   5  -2  -9  692.37   26.66
   5  -2  -9  694.37   26.90
   5   2  -9  718.25   26.78
  -5   2   9  724.89   26.74
   5   2  -9  730.06   26.96
  -5   2   9  720.84   26.72
  -5  -2   9  712.17   26.78
  -5  -2   9  736.09   26.81
   5  -2  -8  737.86   27.26
   5  -2  -8  728.34   27.11
   5  -2  -8  714.09   27.32
   5   2  -8  715.45   27.20
  -5   2   8  720.89   27.22
  -5  -2   8  741.53   27.29
  -5  -2   8  730.01   27.24
  -5   2   8  757.41   27.17
  -5  -2   8  741.87   27.24
   5  -2  -7  318.45   12.29
  -5  -2   7  341.31   12.25
   5  -2  -7  327.24   12.12
   5  -2  -7  292.61   12.31
   5   2  -7  320.15   12.40
  -5   2   7  312.64   12.25
  -5  -2   7  327.10   12.30
  -5   2   7  318.51   12.15
   5  -2  -6  270.64   10.16
  -5  -2   6  270.57   10.28
  -5   2   6  258.63   10.39
  -5   2   6  266.19   10.36
  -5  -2   6  264.66   10.36
   5   2  -6  272.25   10.47
  -5   2   6  278.43   10.21
   5  -2  -6  259.11   10.36
  -5   2   5  172.75    7.14
   5   2  -5  183.27    7.21
  -5  -2   5  168.53    6.96
  -5   2   5  178.95    7.14
  -5  -2   5  186.42    7.17
  -5   2   5  181.46    6.90
   5  -2  -5  186.55    7.16
   5  -2  -4  250.86    9.75
  -5  -2   4  264.56    9.60
  -5   2   4  237.34    9.73
  -5   2   4  254.98    9.46
   5   2  -4  259.94    9.79
  -5  -2   4  234.08    9.69
  -5   2   4  239.77    9.67
  -5  -2   4  265.89    9.78
   5  -2  -4  255.40    9.75
   5   2  -3   59.54    2.74
  -5   2   3   54.92    2.35
  -5  -2   3   60.63    2.53
  -5  -2   2  114.26    4.38
  -5   2   2  111.66    4.65
  -5   2   2  108.37    4.19
   5   2  -2  111.98    4.59
   5  -2  -2  106.54    4.62
   5  -2  -1  262.65    9.77
   5   2  -1  270.75    9.75
  -5  -2   1  231.76    9.58
  -5   2   1  254.06    9.77
   5   2   0  198.50    7.25
  -5   2   0  190.46    7.31
   5   2   1  231.39    8.53
  -5   2  -1  224.68    8.64
  -5  -2  -1  210.68    8.45
  -5  -2  -1  221.07    8.55
  -5   2  -2    0.83    0.95
  -5  -2  -2    2.30    0.57
  -5  -2  -2    2.42    0.91
  -5  -2  -2    3.26    0.96
   5   2   2    1.44    0.63
  -5   2  -3   87.84    3.82
  -5  -2  -3   85.93    3.87
  -5  -2  -3   84.01    3.89
  -5   2  -3   85.77    3.81
  -5  -2  -3   88.40    3.70
   5   2   3   90.99    3.61
  -5  -2  -3   86.25    3.53
  -5  -2  -4   86.93    3.96
  -5   2  -4   89.63    3.88
  -5  -2  -4   92.56    3.74
   5   2   4   89.21    3.58
  -5   2  -4   89.09    3.92
  -5  -2  -4   86.23    3.96
  -5   2  -4   87.85    3.79
  -5  -2  -4   84.46    3.52
  -5   2  -5   16.18    1.35
  -5   2  -5   18.18    1.49
  -5  -2  -5   18.63    1.03
  -5  -2  -5   19.34    1.29
   5   2   5   18.31    1.04
  -5  -2  -5   16.95    1.62
  -5   2  -5   15.40    1.47
  -5   2  -6   19.44    1.50
  -5  -2  -6   17.77    1.03
  -5  -2  -6   19.10    1.76
  -5   2  -6   18.67    1.66
   5   2   6   16.83    0.97
  -5   2  -6   17.70    1.43
  -5   2  -6   16.34    1.44
  -5   2  -7  235.34    9.16
  -5   2  -7  230.42    9.28
  -5   2  -7  235.52    9.22
  -5   2  -7  231.89    9.12
  -5  -2  -7  236.27    9.41
  -5   2  -8  928.15   35.09
  -5   2  -8  955.86   34.95
  -5   2  -8  955.74   35.01
  -5  -2  -8  932.75   35.21
  -5  -2  -8  946.63   35.24
  -5  -2  -9   23.05    2.29
  -5   2  -9   22.76    1.82
  -5   2  -9   21.99    2.02
  -5  -2  -9   23.04    2.28
  -5  -2 -10  183.75    7.86
  -5   2 -10  181.13    7.67
  -5   2 -10  185.82    7.46
  -5  -2 -10  178.78    7.86
  -5  -2 -11   13.21    2.42
  -5   2 -11   13.04    1.65
  -5   2 -11   15.16    2.16
  -5  -2 -11   12.40    2.45
  -5  -2 -12   35.06    3.24
  -5   2 -12   40.13    2.99
  -5   2 -12   40.38    2.59
  -5  -2 -12   41.39    3.36
  -5   2 -13   12.03    1.88
  -5  -2 -13   14.13    2.76
  -5   2 -13   14.39    2.34
  -5   2 -14   55.35    3.82
  -5   2 -14   55.10    3.18
  -5  -2 -14   53.90    3.99
  -5  -2 -15   29.42    3.45
  -5   2 -15   30.83    3.05
  -5   2 -15   27.74    2.39
  -5   2 -16  462.93   17.97
  -5   2 -16  457.80   17.54
  -5  -2 -16  446.76   18.20
  -5   2 -17   82.46    4.68
  -5  -2 -17   70.93    4.86
  -5   2 -18  486.96   18.81
  -5  -2 -18  467.22   18.99
  -5   2 -19  228.98    9.87
  -5  -2 -19  224.73   10.04
  -5   2 -20   11.02    3.06
  -5  -2 -20   17.87    4.51
  -5  -2 -20   19.09    3.43
  -5  -2 -21   77.78    5.53
  -5  -2 -21   72.25    4.64
  -5   2 -21   62.26    4.33
  -5   2 -22  461.73   17.87
  -5  -2 -22  440.83   18.03
  -5  -2 -22  480.62   18.39
  -5   2 -23   97.00    4.94
  -5  -2 -23   95.19    5.09
  -5   2 -24  252.57   10.01
  -5  -2 -24  269.63   10.78
  -5  -2 -24  236.60   10.06
  -5  -2 -25   23.95    3.01
  -5   2 -25   21.35    1.83
  -5  -2 -25   22.06    1.90
  -5  -2 -26   80.60    4.22
  -5  -2 -27   39.49    2.44
   5  -3 -29    2.47    1.76
   5  -3 -28  127.38    5.53
   5  -3 -28   92.88    4.68
   5  -3 -27    4.95    2.31
   5  -3 -27    0.55    3.20
   5  -3 -26  195.01    9.07
   5  -3 -26  176.55    8.53
   5  -3 -25    2.06    4.15
   5  -3 -25    2.34    3.44
   5  -3 -25    0.86    2.20
   5  -3 -24  623.89   24.42
   5  -3 -24  653.61   25.47
   5   3 -23   21.75    2.84
   5  -3 -23   25.58    3.67
   5  -3 -23   24.36    5.44
   5   3 -22  200.77    8.87
   5  -3 -22  196.82    9.24
   5   3 -21    1.68    2.60
   5  -3 -21    0.10    3.53
   5  -3 -20  340.73   14.79
   5   3 -20  364.48   14.59
   5   3 -19   61.13    4.34
   5   3 -18  402.27   16.32
   5   3 -17  374.68   14.71
  -5  -3  17  354.92   14.03
   5  -3 -17  344.96   14.88
  -5  -3  16   16.95    2.05
   5  -3 -16   18.15    3.49
  -5  -3  15   54.06    3.11
   5  -3 -15   48.53    4.07
   5  -3 -14   51.82    4.11
  -5  -3  14   63.23    3.39
   5  -3 -13  270.30   11.38
  -5  -3  13  275.60   10.93
  -5   3  13  280.12   11.24
  -5  -3  12   83.49    4.06
   5   3 -12   83.84    4.11
   5  -3 -12   74.80    4.45
  -5   3  12   80.58    4.28
   5   3 -11  304.87   11.81
   5  -3 -11  299.79   12.00
  -5  -3  11  304.69   11.73
  -5   3  11  301.39   11.71
  -5   3  11  295.92   11.59
  -5   3  11  306.41   11.98
   5  -3 -11  287.64   11.63
  -5   3  10   89.04    4.03
   5  -3 -10   89.23    4.10
   5   3 -10   91.01    4.22
   5  -3 -10   89.62    4.49
  -5  -3  10   89.16    4.15
  -5   3  10   88.04    4.00
  -5   3  10   98.03    4.42
   5  -3 -10   87.12    3.98
  -5  -3  10   90.17    4.14
   5  -3  -9  102.57    4.49
  -5  -3   9  104.23    4.50
   5   3  -9  106.07    4.56
  -5   3   9  101.41    4.38
  -5   3   9   99.23    4.43
  -5  -3   9   95.44    4.49
   5  -3  -9   92.84    4.30
  -5  -3   9  113.63    4.59
   5   3  -8   81.40    3.69
  -5  -3   8   86.07    3.73
  -5   3   8   79.67    3.68
   5  -3  -8   79.27    3.53
   5   3  -8   83.08    3.84
  -5  -3   8   79.35    3.78
   5  -3  -8   76.17    3.68
  -5   3   8   81.91    3.58
  -5   3   7  707.14   26.14
  -5  -3   7  671.15   26.11
   5  -3  -7  674.94   25.98
  -5  -3   7  713.00   26.18
  -5   3   7  701.04   26.26
   5   3  -7  733.07   26.33
  -5   3   7  721.32   26.04
   5  -3  -7  706.28   26.16
  -5   3   6  695.67   26.23
   5   3  -6  684.16   26.42
   5  -3  -6  715.58   26.49
  -5   3   6  709.63   26.49
  -5   3   6  711.80   26.39
   5  -3  -6  710.87   26.20
  -5  -3   6  701.20   26.40
   5  -3  -6  706.49   26.41
  -5  -3   6  705.06   26.35
   5   3  -6  733.76   26.55
  -5  -3   6  739.03   26.47
  -5  -3   5  932.65   33.81
   5   3  -5  890.61   33.78
   5  -3  -5  913.91   33.82
  -5   3   5  872.19   33.82
  -5   3   5  908.88   33.78
  -5   3   5  917.29   33.55
   5  -3  -5  903.54   33.52
  -5  -3   5  874.48   33.75
   5   3  -5  937.82   33.87
  -5  -3   5  965.75   33.71
   5  -3  -5  925.40   33.79
   5   3  -4  463.58   16.64
   5   3  -4  425.24   16.53
   5  -3  -4  439.99   16.59
  -5   3   4  427.79   16.58
  -5   3   4  442.40   16.57
  -5   3   4  421.31   16.26
   5  -3  -4  428.04   16.24
  -5  -3   4  453.59   16.44
   5  -3  -4  440.86   16.57
  -5  -3   4  466.79   16.60
   5  -3  -3   31.24    1.92
  -5   3   3   29.19    1.41
  -5   3   3   25.68    1.76
   5  -3  -3   29.01    1.36
  -5  -3   3   26.67    1.75
   5   3  -3   30.69    1.77
  -5  -3   3   28.57    1.81
   5  -3  -2   27.53    1.27
  -5   3   2   27.86    1.33
  -5  -3   2   26.46    1.61
   5   3  -2   31.87    1.74
   5  -3  -2   30.92    1.88
  -5   3   2   30.69    1.72
  -5  -3   2   30.08    1.78
  -5  -3   2   27.39    1.75
  -5  -3   1   63.98    3.01
  -5   3   1   67.78    3.18
  -5  -3   1   67.27    3.11
   5   3  -1   70.45    3.06
  -5  -3   1   69.40    3.10
  -5   3   0   54.06    2.75
  -5  -3   0   57.74    2.65
  -5  -3   0   53.32    2.65
   5   3   0   53.68    2.55
  -5   3  -1   21.73    1.64
  -5  -3  -1   18.77    1.39
  -5  -3  -1   19.34    1.43
   5   3   1   21.94    1.31
  -5  -3  -1   20.52    1.53
  -5  -3  -2  239.38    9.13
  -5   3  -2  237.40    9.10
   5   3   2  243.69    8.99
  -5   3  -2  243.55    9.22
  -5  -3  -2  226.98    9.14
   5  -3   2  239.00    9.17
  -5  -3  -2  211.21    9.06
  -5  -3  -2  235.26    9.21
  -5   3  -3  121.34    5.04
  -5  -3  -3  122.42    5.06
  -5   3  -3  123.12    5.15
  -5  -3  -3  122.35    4.97
   5  -3   3  123.23    5.13
  -5  -3  -3  121.97    5.14
  -5  -3  -3  117.30    5.00
   5   3   3  121.87    4.85
  -5  -3  -3  124.06    5.20
  -5   3  -4  172.36    6.97
  -5   3  -4  166.66    6.92
  -5   3  -4  166.32    6.84
  -5  -3  -4  176.85    6.74
   5  -3   4  178.03    6.93
  -5  -3  -4  172.73    6.85
  -5  -3  -4  170.69    6.97
   5   3   4  173.45    6.60
  -5  -3  -4  167.38    6.77
  -5  -3  -4  173.71    7.04
  -5   3  -4  166.98    6.75
  -5   3  -5  175.50    7.31
  -5   3  -5  182.90    7.26
  -5  -3  -5  193.02    7.08
   5  -3   5  184.58    7.29
  -5  -3  -5  178.42    7.38
  -5  -3  -5  181.08    7.20
  -5   3  -5  186.61    7.36
  -5  -3  -5  177.29    7.45
  -5  -3  -5  172.29    7.10
  -5   3  -5  179.88    7.12
  -5   3  -6  231.71    9.06
  -5  -3  -6  225.61    9.03
  -5   3  -6  231.38    9.25
   5  -3   6  245.87    9.22
  -5  -3  -6  238.32    9.39
  -5  -3  -6  231.30    9.12
  -5   3  -6  236.73    9.32
  -5  -3  -6  236.19    9.44
  -5   3  -6  239.06    9.23
   5  -3   7   70.99    3.29
  -5   3  -7   69.97    3.39
  -5  -3  -7   69.03    3.56
  -5   3  -7   70.43    3.42
  -5   3  -7   65.64    3.12
  -5  -3  -7   71.26    3.69
  -5   3  -8   97.14    4.52
   5  -3   8   98.21    4.37
  -5  -3  -8   99.18    4.75
  -5   3  -8  103.66    4.55
  -5   3  -8  102.59    4.30
  -5   3  -9  152.25    6.49
  -5   3  -9  153.96    6.45
  -5  -3  -9  163.29    6.80
  -5   3  -9  149.27    6.21
  -5  -3 -10  121.61    5.94
  -5   3 -10  125.95    5.50
  -5   3 -10  130.84    5.67
  -5   3 -10  126.73    5.30
  -5  -3 -11    2.86    2.55
  -5  -3 -11    0.44    2.18
  -5   3 -11    0.34    1.79
  -5   3 -12  468.34   17.77
  -5  -3 -12  448.53   18.06
  -5  -3 -12  460.06   18.16
  -5  -3 -13   16.80    3.16
  -5   3 -13   14.32    2.30
  -5  -3 -13   15.82    2.94
  -5  -3 -14   28.43    3.64
  -5   3 -14   25.97    2.89
  -5  -3 -14   26.48    3.53
  -5  -3 -15   26.84    3.70
  -5   3 -15   25.78    2.81
  -5  -3 -15   29.00    3.82
  -5   3 -16   33.75    3.23
  -5  -3 -16   39.56    4.33
  -5  -3 -16   43.49    4.29
  -5  -3 -17    6.26    3.51
  -5   3 -17    5.78    2.43
  -5  -3 -17    8.52    3.82
  -5  -3 -18   95.03    6.22
  -5   3 -18   98.40    5.24
  -5  -3 -18  101.13    6.18
  -5  -3 -19    5.30    3.71
  -5   3 -19    3.20    2.62
  -5  -3 -19    5.81    4.15
  -5   3 -20  197.58    8.80
  -5  -3 -20  222.11    9.45
  -5   3 -21   14.48    2.47
  -5  -3 -21   18.80    3.34
  -5  -3 -22  157.47    7.51
  -5   3 -22  158.32    6.86
  -5   3 -23   54.65    3.00
  -5  -3 -23   48.74    3.84
  -5  -3 -24   -1.85    2.26
  -5  -3 -25   36.44    2.49
  -5  -3 -26    4.88    1.13
  -5  -3 -27   11.90    1.46
   5  -4 -29    2.03    1.43
   5  -4 -28   75.61    3.80
   5  -4 -27   51.21    3.52
   5  -4 -26   49.15    3.18
   5  -4 -26   56.33    4.19
   5  -4 -25   66.21    4.07
   5  -4 -25   64.11    5.02
   5  -4 -24   -0.57    2.90
   5  -4 -23   24.55    3.63
   5  -4 -22    4.22    3.62
   5  -4 -22    3.05    5.07
   5  -4 -21   10.64    3.94
   5  -4 -21   11.41    5.34
   5  -4 -20  273.44   12.17
   5  -4 -20  277.76   12.87
   5  -4 -19    0.67    4.35
   5  -4 -19    4.50    3.83
   5  -4 -18   75.68    6.14
   5  -4 -17   68.62    5.46
   5  -4 -16   11.17    3.78
  -5  -4  16   16.25    2.07
   5   4 -15  178.00    7.82
   5  -4 -15  174.90    8.38
  -5  -4  15  183.42    7.61
   5   4 -14  102.32    5.15
   5  -4 -14  110.49    5.89
  -5  -4  14  107.00    4.97
   5   4 -13    3.59    2.09
   5  -4 -13    2.67    2.83
  -5  -4  13    1.55    1.63
   5   4 -12    2.38    1.80
   5  -4 -12    2.28    2.56
  -5  -4  12    4.58    1.75
  -5  -4  11  268.97   10.59
   5   4 -11  263.62   10.72
   5   4 -10   56.19    3.20
  -5   4  10   56.02    2.90
   5  -4 -10   53.89    2.83
  -5   4  10   56.78    2.90
  -5  -4  10   59.85    3.14
  -5   4  10   56.48    3.45
   5  -4 -10   57.99    2.93
  -5   4   9  103.89    4.59
   5  -4  -9  100.69    4.54
  -5   4   9  107.31    4.60
  -5  -4   9  108.47    4.79
   5  -4  -9  107.01    4.67
   5  -4  -8   53.06    3.25
   5  -4  -8   50.22    2.60
  -5   4   8   52.93    2.78
  -5   4   8   51.75    2.65
  -5  -4   8   55.38    2.82
  -5   4   8   52.18    3.10
  -5  -4   8   56.99    2.94
   5  -4  -8   57.94    2.84
   5   4  -7  213.06    8.66
   5  -4  -7  210.18    8.42
   5  -4  -7  223.63    8.82
  -5   4   7  221.62    8.82
  -5  -4   7  223.98    8.68
  -5   4   7  223.53    8.59
  -5   4   7  211.67    8.43
   5  -4  -7  211.52    8.60
  -5  -4   7  205.65    8.57
  -5  -4   7  219.12    8.67
   5  -4  -6   50.01    2.63
   5  -4  -6   45.72    2.31
   5   4  -6   49.70    2.67
  -5   4   6   49.63    2.87
   5  -4  -6   51.20    2.90
  -5  -4   6   47.39    2.70
  -5   4   6   48.10    2.60
  -5   4   6   50.92    2.38
   5   4  -6   51.82    2.67
  -5  -4   6   49.94    2.67
  -5  -4   6   50.58    2.56
   5  -4  -5   33.75    1.75
   5   4  -5   31.78    2.13
   5  -4  -5   34.70    2.36
   5  -4  -5   35.22    2.10
  -5   4   5   36.87    2.15
  -5   4   5   34.71    2.31
  -5   4   5   34.11    1.77
  -5  -4   5   34.55    2.20
   5   4  -5   34.52    2.07
  -5  -4   5   37.65    2.16
  -5  -4   4    3.60    1.13
   5   4  -4    3.23    1.12
   5   4  -4    3.40    0.96
   5  -4  -4    4.13    1.43
  -5   4   4    3.92    1.25
  -5   4   4    4.01    0.69
   5  -4  -4    3.13    0.61
  -5   4   4    4.10    1.23
   5  -4  -3   18.81    1.08
   5   4  -3   18.17    1.50
  -5  -4   3   18.78    1.41
  -5   4   3   18.88    1.15
   5  -4  -3   20.41    1.72
  -5   4   3   19.77    1.62
  -5   4   3   18.79    1.57
  -5  -4   3   21.50    1.61
   5   4  -3   16.73    1.39
   5  -4  -2   68.19    2.92
   5   4  -2   75.55    3.34
  -5  -4   2   70.61    3.30
   5  -4  -2   75.39    3.46
  -5   4   2   72.72    3.41
  -5  -4   2   76.73    3.47
   5   4  -2   75.37    3.36
  -5  -4   2   77.97    3.38
  -5  -4   1 1532.99   54.53
   5  -4  -1 1373.45   54.00
   5  -4  -1 1599.61   54.49
  -5  -4   1 1463.27   54.49
  -5   4   1 1524.69   54.50
   5   4  -1 1541.46   54.45
  -5  -4   1 1509.39   54.39
  -5  -4   1 1586.56   54.48
  -5   4   0  456.08   15.60
   5  -4   0  458.00   15.48
  -5   4   0  455.22   15.39
  -5  -4   0  444.16   15.56
   5  -4   0  467.62   15.62
  -5   4   0  450.82   15.39
  -5  -4   0  432.80   15.46
  -5  -4   0  450.53   15.57
  -5  -4   0  458.95   15.47
  -5   4  -1  380.08   14.36
  -5  -4  -1  366.81   14.36
   5  -4   1  382.62   14.37
  -5   4  -1  374.82   14.17
  -5  -4  -1  380.42   14.22
  -5  -4  -1  376.10   14.33
  -5   4  -1  377.05   14.15
  -5  -4  -1  363.66   14.29
  -5   4  -2 1582.31   56.00
  -5   4  -2 1548.51   55.96
  -5  -4  -2 1548.29   55.83
   5  -4   2 1596.52   55.97
  -5  -4  -2 1355.85   55.90
  -5   4  -2 1528.82   55.76
  -5  -4  -2 1537.27   55.92
  -5   4  -2 1505.92   55.70
  -5  -4  -2 1506.71   55.91
  -5   4  -3  801.29   29.88
  -5  -4  -3  749.25   30.05
   5  -4   3  819.30   30.06
  -5  -4  -3  804.20   29.98
  -5   4  -3  834.99   30.09
  -5   4  -3  854.66   30.14
  -5  -4  -3  818.36   30.03
  -5   4  -3  806.38   29.81
  -5  -4  -3  789.57   30.06
  -5  -4  -4 1567.44   56.98
  -5   4  -4 1537.95   57.02
  -5   4  -4 1557.12   56.84
  -5  -4  -4 1554.06   56.97
   5  -4   4 1580.61   57.02
  -5  -4  -4 1581.84   56.77
  -5  -4  -4 1458.59   57.00
  -5   4  -4 1542.67   56.74
  -5   4  -4 1554.72   57.07
  -5  -4  -4 1555.13   57.08
  -5   4  -5 1093.43   39.34
  -5   4  -5 1078.23   39.29
  -5  -4  -5 1080.04   39.29
  -5  -4  -5 1069.74   39.22
   5  -4   5 1096.95   39.27
  -5  -4  -5 1000.42   39.25
  -5   4  -5 1028.52   39.08
  -5  -4  -5 1053.07   39.37
  -5  -4  -6 1104.25   41.02
   5  -4   6 1134.40   41.10
  -5   4  -6 1079.65   40.92
  -5  -4  -6 1127.49   41.27
  -5   4  -6 1106.84   41.15
  -5  -4  -6 1123.37   41.14
  -5   4  -7  975.51   36.60
  -5  -4  -7  966.86   36.65
   5  -4   7 1006.28   36.75
  -5  -4  -7  989.26   36.85
  -5   4  -7 1026.41   36.85
  -5  -4  -7  988.36   36.96
  -5   4  -8  491.46   18.47
  -5  -4  -8  485.74   18.71
  -5  -4  -8  481.36   18.45
  -5   4  -8  500.88   18.68
  -5  -4  -8  483.25   18.87
  -5   4  -9  151.87    6.45
  -5   4  -9  159.11    6.70
  -5  -4  -9  156.97    6.86
  -5  -4  -9  154.31    7.02
  -5   4 -10   64.52    3.36
  -5   4 -10   66.74    3.54
  -5  -4 -10   68.94    3.92
  -5  -4 -10   60.95    4.07
  -5   4 -11  122.25    5.56
  -5   4 -11  121.60    5.49
  -5  -4 -11  127.55    6.05
  -5  -4 -12  137.00    6.45
  -5   4 -12  128.79    5.83
  -5   4 -12  130.33    5.82
  -5   4 -13  260.47   10.70
  -5  -4 -13  272.92   11.21
  -5  -4 -14   88.55    5.31
  -5   4 -14   92.42    4.68
  -5   4 -15   33.56    2.98
  -5  -4 -15   42.26    4.28
  -5  -4 -15   41.14    4.10
  -5  -4 -16    4.98    3.82
  -5   4 -16    1.09    2.16
  -5  -4 -16    4.12    3.58
  -5  -4 -17    5.53    4.00
  -5   4 -17    8.95    2.25
  -5  -4 -17    7.99    3.54
  -5   4 -18   64.23    3.86
  -5  -4 -18   72.44    5.24
  -5  -4 -18   70.86    5.49
  -5   4 -19  200.30    8.64
  -5  -4 -19  223.21    9.72
  -5  -4 -19  209.21    9.74
  -5  -4 -20   79.87    5.52
  -5   4 -20   74.34    3.97
  -5  -4 -20   80.84    5.49
  -5  -4 -21   97.25    5.76
  -5  -4 -21   90.72    5.60
  -5  -4 -22   11.44    3.09
  -5  -4 -22   13.20    3.37
  -5  -4 -23   13.64    2.98
  -5  -4 -23   15.19    3.22
  -5  -4 -24   -0.72    2.24
  -5  -4 -24    1.16    2.57
  -5  -4 -25   31.38    2.41
  -5  -4 -25   35.91    2.89
  -5  -4 -26    7.21    1.54
   5  -5 -28   10.21    1.60
   5  -5 -28   11.95    1.77
   5  -5 -27   98.70    4.91
   5  -5 -27   90.37    4.74
   5  -5 -26    1.05    2.71
   5  -5 -26    0.30    1.73
   5  -5 -26    2.22    2.77
   5  -5 -25  184.19    8.09
   5  -5 -25  186.88    8.64
   5  -5 -25  191.51    8.86
   5  -5 -24    5.54    3.74
   5  -5 -24    6.18    3.85
   5  -5 -24    2.29    2.94
   5  -5 -23  329.33   14.03
   5  -5 -23  321.29   13.42
   5  -5 -22   99.49    6.72
   5  -5 -22   95.62    5.90
   5  -5 -21  101.62    6.30
   5  -5 -21  106.39    6.99
   5  -5 -20   47.39    5.45
   5  -5 -20   43.65    4.71
   5  -5 -19  308.25   13.34
   5  -5 -19  306.95   13.64
   5  -5 -18    4.05    3.77
   5  -5 -18    3.89    3.91
   5  -5 -17    3.57    3.97
   5  -5 -16   36.86    4.57
   5   5 -16   41.16    3.49
  -5  -5  16   40.63    2.84
   5   5 -15   20.48    2.81
   5  -5 -15   20.55    4.13
  -5  -5  15   21.66    2.21
   5   5 -14   14.82    2.63
   5  -5 -14   15.34    3.64
  -5  -5  14   15.50    2.08
   5   5 -13    2.70    2.13
  -5  -5  13    2.37    1.71
  -5  -5  12  238.76    9.56
   5   5 -12  228.51    9.74
   5   5 -11    8.54    2.15
  -5  -5  11   10.46    1.93
   5  -5 -10  573.86   22.13
  -5  -5  10  577.71   21.85
   5  -5  -9    4.49    2.35
  -5  -5   9    4.64    1.72
   5   5  -8 1237.82   45.06
   5  -5  -8 1296.85   45.22
  -5  -5   8 1275.58   45.04
  -5   5   8 1133.45   44.81
   5  -5  -8 1188.22   44.84
  -5  -5   7  405.30   15.31
   5   5  -7  402.35   15.31
   5  -5  -7  410.40   15.45
  -5   5   7  388.76   15.06
   5  -5  -7  385.18   15.06
   5   5  -6 2266.31   80.89
   5  -5  -6 2339.78   81.00
  -5   5   6 2229.82   80.84
  -5   5   6 2108.29   80.63
   5  -5  -6 2224.60   80.86
  -5  -5   6 2220.63   80.89
   5  -5  -6 2137.86   80.64
   5   5  -5  809.69   29.61
   5  -5  -5  831.25   29.70
  -5   5   5  750.26   29.32
  -5   5   5  810.22   29.61
  -5  -5   5  822.66   29.65
   5  -5  -5  771.28   29.33
  -5  -5   5  799.01   29.63
   5   5  -4 1207.04   45.27
  -5  -5   4 1159.65   45.27
   5  -5  -4 1304.77   45.38
  -5   5   4 1254.17   45.33
  -5  -5   4 1260.52   45.34
   5  -5  -4 1194.48   45.00
  -5  -5   4 1241.66   45.32
   5   5  -3   69.90    3.33
  -5   5   3   67.02    3.38
   5  -5  -3   72.39    3.53
  -5  -5   3   62.63    3.24
  -5  -5   3   72.66    3.37
   5   5  -2  328.63   13.35
  -5   5   2  356.04   13.51
   5  -5  -2  376.43   13.50
  -5  -5   2  344.39   13.46
   5  -5  -2  356.99   13.52
  -5  -5   2  337.87   13.22
  -5  -5   2  353.97   13.43
  -5   5   1   45.82    2.63
   5   5  -1   42.33    2.36
   5  -5  -1   46.45    2.56
  -5  -5   1   43.11    2.43
   5  -5  -1   42.22    2.54
  -5  -5   1   45.79    2.64
  -5  -5   1   41.10    2.28
  -5  -5   1   45.85    2.39
   5   5   0  175.20    7.53
   5  -5   0  206.41    7.69
  -5  -5   0  188.11    7.76
  -5  -5   0  199.51    7.65
  -5  -5   0  194.09    7.81
  -5  -5   0  183.33    7.57
  -5   5  -1   94.58    4.43
   5  -5   1  103.40    4.33
  -5  -5  -1   89.94    4.44
   5  -5   1   99.80    4.49
  -5  -5  -1  101.81    4.52
  -5  -5  -1  101.91    4.28
  -5  -5  -1   95.12    4.33
   5  -5   2  418.40   15.94
  -5   5  -2  424.12   15.62
  -5  -5  -2  392.54   15.96
  -5  -5  -2  418.54   15.92
  -5  -5  -2  420.04   15.69
  -5   5  -2  434.11   15.98
  -5  -5  -2  399.87   15.68
  -5  -5  -2  410.39   15.85
  -5  -5  -3   26.16    1.84
  -5   5  -3   24.66    1.64
  -5  -5  -3   25.57    2.03
  -5   5  -3   23.80    2.07
  -5  -5  -3   24.79    1.90
  -5  -5  -3   25.63    2.04
  -5  -5  -4  205.88    8.03
  -5  -5  -4  204.24    8.15
  -5   5  -4  209.93    8.24
  -5  -5  -4  203.31    8.19
  -5  -5  -5   99.85    4.59
  -5  -5  -5  105.63    4.57
  -5   5  -5  100.34    4.68
  -5  -5  -5   90.91    4.57
  -5  -5  -5   99.20    4.70
  -5  -5  -6    4.35    1.83
  -5  -5  -6    2.95    1.50
  -5  -5  -6    2.98    1.55
  -5   5  -6    2.27    1.54
  -5   5  -7   54.79    3.29
  -5  -5  -7   63.80    3.29
  -5  -5  -7   51.86    3.07
  -5  -5  -7   56.80    3.58
  -5  -5  -8   19.78    1.96
  -5  -5  -8   21.47    2.61
  -5   5  -8   26.69    2.32
  -5  -5  -8   22.44    2.35
  -5   5  -9  173.71    7.35
  -5  -5  -9  166.78    7.34
  -5  -5  -9  173.83    7.10
  -5  -5  -9  156.83    7.53
  -5  -5 -10    4.31    2.62
  -5   5 -10   -0.94    1.87
  -5  -5 -10    1.83    1.50
  -5  -5 -10    1.37    1.97
  -5   5 -11   59.40    3.53
  -5  -5 -11   61.45    3.89
  -5  -5 -11   57.30    4.23
  -5   5 -12   54.86    3.40
  -5  -5 -12   47.71    3.74
  -5  -5 -12   48.67    4.13
  -5  -5 -13   42.19    4.13
  -5  -5 -13   42.29    3.60
  -5   5 -13   39.81    2.97
  -5   5 -14   80.59    4.24
  -5  -5 -14   84.41    4.98
  -5  -5 -15   25.99    3.59
  -5  -5 -16  100.66    5.80
  -5  -5 -17   45.63    4.36
  -5  -5 -18   61.42    4.72
  -5  -5 -18   53.92    5.33
  -5  -5 -19   19.49    4.26
  -5  -5 -19   23.47    3.77
  -5  -5 -20   75.79    5.06
  -5  -5 -20   72.30    5.23
  -5  -5 -21  100.96    5.60
  -5  -5 -21   99.60    5.73
  -5  -5 -22   51.52    4.03
  -5  -5 -22   62.08    4.32
  -5  -5 -23    3.16    2.68
  -5  -5 -23    6.43    2.43
  -5  -5 -24    8.95    2.17
  -5  -5 -24   10.20    2.31
  -5  -5 -25    1.26    1.46
  -5  -5 -25    0.94    1.51
  -5  -5 -26   11.38    1.25
   5  -6 -28   12.87    1.34
   5  -6 -27    2.75    1.69
   5  -6 -27    1.87    1.56
   5  -6 -26    1.84    2.46
   5  -6 -26    0.40    1.58
   5  -6 -26    0.31    2.13
   5  -6 -25   77.23    4.20
   5  -6 -25   74.42    4.45
   5  -6 -25   76.78    4.82
   5  -6 -24    8.30    3.13
   5  -6 -24   16.49    3.64
   5  -6 -24   15.71    2.90
   5  -6 -23  157.38    7.60
   5  -6 -23  165.89    7.94
   5  -6 -22   91.29    5.72
   5  -6 -22   89.91    5.75
   5  -6 -21  186.32    8.71
   5  -6 -21  166.31    8.72
   5  -6 -20    3.15    4.03
   5  -6 -20    2.97    4.00
   5  -6 -19   80.95    5.76
   5  -6 -19   85.32    5.81
   5  -6 -18  108.86    6.56
   5  -6 -18  105.67    6.56
   5  -6 -17   13.87    4.02
   5   6 -17   12.08    2.92
   5  -6 -17    9.60    4.04
   5  -6 -16  160.54    8.16
   5   6 -16  162.74    7.50
   5  -6 -15   22.08    3.70
   5   6 -15   20.69    3.08
  -5  -6  15   19.19    2.26
   5   6 -14  177.60    7.96
  -5  -6  14  173.23    7.49
   5   6 -13  492.39   19.11
  -5  -6  13  486.22   18.79
   5  -6 -12   78.42    5.20
   5   6 -12   82.04    4.64
  -5  -6  12   81.54    4.25
   5  -6 -11  101.68    5.72
  -5  -6  11  104.49    5.01
  -5   6  11  104.36    4.70
   5  -6 -10  314.73   12.85
  -5  -6  10  315.41   12.43
  -5   6  10  308.98   12.23
   5  -6  -9  387.48   15.52
   5   6  -9  372.45   15.23
  -5  -6   9  390.80   15.14
  -5   6   9  399.90   15.01
   5  -6  -8  203.66    8.83
   5   6  -8  209.86    8.58
  -5  -6   8  196.06    8.49
  -5   6   8  208.10    8.36
  -5   6   7   11.72    1.65
   5  -6  -7   10.30    2.53
   5   6  -7   11.96    1.91
  -5  -6   7   13.09    2.14
   5   6  -6   67.80    3.66
   5  -6  -6   72.98    3.97
  -5  -6   6   70.23    3.76
  -5   6   6   68.26    3.57
   5   6  -5   29.47    2.37
   5  -6  -5   32.46    2.65
  -5  -6   5   33.24    2.59
  -5   6   5   32.54    2.27
  -5  -6   4  282.25   11.24
   5   6  -4  275.97   11.08
   5  -6  -4  288.48   11.24
  -5   6   4  279.02   11.14
   5   6  -3  107.96    4.91
   5  -6  -3  118.39    5.14
  -5  -6   3  109.75    5.18
  -5   6   3  112.57    5.10
   5   6  -2  440.70   17.48
   5  -6  -2  476.35   17.60
  -5   6   2  467.88   17.67
   5   6  -1  115.14    5.05
   5  -6  -1  125.96    5.18
  -5  -6   1  109.52    5.16
  -5  -6   1  114.39    5.38
  -5   6   1  122.27    5.35
  -5  -6   1  114.90    5.06
   5   6   0  536.63   20.86
   5  -6   0  584.64   20.92
  -5  -6   0  565.30   21.15
  -5  -6   0  528.82   21.11
  -5  -6   0  554.34   20.81
  -5   6   0  581.39   21.16
  -5  -6   0  540.98   20.90
   5   6   1  798.19   30.40
  -5  -6  -1  803.78   30.74
  -5  -6  -1  824.89   30.46
  -5  -6  -1  857.72   30.74
  -5  -6  -2   33.06    2.23
  -5  -6  -2   31.02    2.26
  -5  -6  -2   35.19    2.65
  -5  -6  -3  141.17    6.34
  -5   6  -3  147.64    6.40
  -5  -6  -3  141.62    6.13
  -5  -6  -4    3.23    1.89
  -5  -6  -4    3.26    1.64
  -5   6  -4    2.22    1.90
  -5  -6  -5  113.04    5.37
  -5   6  -5  125.16    5.53
  -5  -6  -5  114.84    5.09
  -5  -6  -5  111.45    5.35
  -5  -6  -6   28.05    2.26
  -5  -6  -6   31.75    2.59
  -5   6  -6   29.68    2.66
  -5  -6  -6   32.27    2.69
  -5  -6  -7   63.31    3.54
  -5   6  -7   68.20    3.80
  -5  -6  -7   65.62    3.68
  -5  -6  -7   63.64    3.93
  -5  -6  -8   11.48    2.53
  -5  -6  -8   12.50    2.00
  -5  -6  -8   12.11    2.13
  -5   6  -8   12.90    2.23
  -5   6  -9   42.58    3.19
  -5  -6  -9   46.04    3.01
  -5  -6  -9   41.06    2.91
  -5  -6  -9   42.43    3.62
  -5  -6 -10   25.73    3.28
  -5  -6 -10   22.97    2.32
  -5  -6 -10   25.62    2.65
  -5   6 -10   27.72    2.76
  -5  -6 -11    4.35    3.02
  -5  -6 -11    4.79    1.82
  -5   6 -11    4.93    2.22
  -5  -6 -11    3.18    2.25
  -5  -6 -12    2.72    3.23
  -5   6 -12    2.25    2.16
  -5  -6 -12    2.53    2.46
  -5  -6 -13    7.39    3.61
  -5   6 -13    7.05    2.30
  -5  -6 -13    5.56    2.61
  -5  -6 -14   15.73    3.81
  -5   6 -14   11.86    2.37
  -5  -6 -14   15.54    2.98
  -5  -6 -15   62.97    4.17
  -5   6 -15   57.66    3.62
  -5  -6 -15   58.78    5.17
  -5  -6 -16   66.58    4.45
  -5  -6 -16   66.07    5.39
  -5  -6 -17  144.15    7.03
  -5  -6 -18    7.28    2.91
  -5  -6 -19   69.67    4.47
  -5  -6 -20   46.06    3.72
  -5  -6 -21  167.60    7.59
  -5  -6 -21  175.36    7.99
  -5  -6 -22   50.59    3.46
  -5  -6 -22   56.88    4.02
  -5  -6 -23   49.99    3.20
  -5  -6 -23   58.87    3.55
  -5  -6 -24   10.77    1.98
  -5  -6 -24    8.75    1.56
  -5  -6 -25  112.59    4.72
  -5  -6 -25  120.64    4.89
   5  -7 -27    9.88    1.33
   5  -7 -26  208.99    8.75
   5  -7 -26  230.63    8.92
   5  -7 -26  239.75    9.18
   5  -7 -25   80.39    3.97
   5  -7 -25   75.42    4.01
   5  -7 -25   75.68    4.51
   5  -7 -24  292.95   11.56
   5  -7 -24  280.43   11.63
   5  -7 -23  120.06    5.83
   5  -7 -23  111.22    5.86
   5  -7 -22  346.17   13.90
   5  -7 -22  333.20   13.94
   5  -7 -21   89.04    5.42
   5  -7 -21   81.35    5.22
   5  -7 -20  155.99    7.94
   5  -7 -20  159.80    7.81
   5  -7 -19  337.04   14.09
   5  -7 -19  326.88   13.87
   5  -7 -18  128.39    7.76
   5  -7 -18  142.74    7.31
   5  -7 -17   12.98    3.63
   5   7 -17   15.65    3.14
   5   7 -16   96.49    5.34
   5  -7 -16   77.37    5.35
   5  -7 -15   38.55    4.06
  -5  -7  15   38.43    2.79
   5   7 -15   44.15    3.92
   5  -7 -14   69.30    4.66
   5   7 -14   71.34    4.72
  -5  -7  14   68.97    3.87
  -5  -7  13   32.52    2.75
   5  -7 -13   33.95    3.55
   5   7 -13   25.20    3.27
  -5  -7  12    9.51    2.29
   5  -7 -11  335.90   14.03
  -5  -7  11  338.42   13.40
   5  -7 -10   73.36    5.00
  -5  -7  10   74.57    4.18
   5   7 -10   72.10    4.48
  -5   7  10   76.49    3.78
   5  -7  -9  298.00   12.59
   5   7  -9  305.01   12.30
  -5  -7   9  304.79   12.22
  -5   7   9  304.20   11.98
   5  -7  -8   51.82    4.00
   5   7  -8   57.52    3.60
  -5  -7   8   47.19    3.30
  -5   7   8   53.12    3.10
   5  -7  -7  405.05   15.67
   5   7  -7  393.18   15.48
  -5  -7   7  386.31   15.42
  -5   7   7  395.27   15.31
   5   7  -6   41.25    2.96
   5  -7  -6   33.57    3.23
  -5   7   6   36.34    2.63
  -5  -7   6   38.45    3.05
   5  -7  -5  391.74   14.89
   5   7  -5  359.59   14.68
  -5  -7   5  377.16   14.78
  -5   7   5  377.28   14.64
  -5   7   4    6.25    1.76
   5  -7  -4    6.95    2.27
   5   7  -4    4.33    1.67
  -5  -7   4    5.31    2.15
   5   7  -3  460.30   18.78
   5  -7  -3  520.54   18.96
  -5  -7   3  495.07   18.99
  -5   7   3  498.95   18.92
  -5   7   2    2.14    1.71
   5  -7  -2    1.98    1.67
   5   7  -2    2.30    1.49
   5   7  -1  185.37    7.97
   5  -7  -1  196.30    8.05
  -5   7   1  208.86    8.34
   5   7   0   62.35    3.29
  -5  -7   0   68.04    3.90
  -5   7   0   70.59    3.88
  -5   7  -1    7.42    2.22
  -5  -7  -1    6.73    2.30
  -5  -7  -2  229.28    9.17
  -5  -7  -2  226.92    9.55
  -5  -7  -3   56.99    3.21
  -5  -7  -3   57.37    3.68
  -5  -7  -4   67.21    4.08
  -5   7  -4   71.22    4.23
  -5  -7  -4   74.38    3.80
  -5   7  -5  100.68    5.18
  -5  -7  -5   99.52    5.12
  -5  -7  -5  101.54    4.89
  -5   7  -6   90.94    4.90
  -5  -7  -6   95.87    4.91
  -5  -7  -6   91.85    4.69
  -5   7  -7   51.03    3.64
  -5  -7  -7   45.98    3.40
  -5  -7  -7   48.27    3.40
  -5  -7  -8   45.61    2.88
  -5   7  -8   46.02    3.35
  -5  -7  -8   47.10    3.45
  -5  -7  -8   49.40    3.60
  -5  -7  -9  218.26    9.00
  -5  -7  -9  216.27    9.18
  -5   7  -9  219.85    9.37
  -5  -7  -9  216.08    9.44
  -5  -7 -10    5.95    2.80
  -5  -7 -10    2.40    2.09
  -5  -7 -10    4.39    2.12
  -5   7 -10    3.10    2.42
  -5  -7 -11  255.20   10.51
  -5   7 -11  261.57   10.71
  -5  -7 -11  252.91   10.50
  -5  -7 -11  253.35   10.99
  -5  -7 -12   29.16    3.69
  -5  -7 -12   30.78    2.72
  -5   7 -12   24.93    3.03
  -5  -7 -12   31.04    2.82
  -5   7 -13  276.25   11.59
  -5  -7 -13  281.69   11.43
  -5  -7 -13  283.10   12.06
  -5  -7 -14  134.37    6.18
  -5   7 -14  126.52    6.13
  -5  -7 -14  117.98    6.94
  -5  -7 -15   35.03    4.29
  -5  -7 -15   36.89    3.21
  -5   7 -15   34.74    3.13
  -5  -7 -16   22.78    4.13
  -5   7 -16   17.02    2.44
  -5  -7 -16   21.16    2.87
  -5  -7 -17  126.03    6.31
  -5  -7 -17  136.86    7.10
  -5  -7 -18    5.08    3.49
  -5  -7 -18    0.20    2.56
  -5  -7 -19   81.82    4.64
  -5  -7 -19   92.76    5.30
  -5  -7 -20   10.67    2.31
  -5  -7 -21    3.04    1.95
  -5  -7 -22   14.00    1.74
  -5  -7 -23    2.00    1.20
  -5  -7 -24   10.96    1.38
   5  -8 -25    2.24    1.40
   5  -8 -25    5.25    1.12
   5  -8 -24   -0.06    2.28
   5  -8 -24    0.97    1.85
   5  -8 -24    0.32    1.52
   5  -8 -23   44.20    3.22
   5  -8 -23   40.93    3.49
   5  -8 -23   45.04    2.91
   5  -8 -22   15.87    2.50
   5  -8 -22   23.97    3.53
   5  -8 -22   15.96    3.10
   5  -8 -21    0.89    2.45
   5  -8 -21    3.26    3.26
   5  -8 -21    0.15    3.19
   5  -8 -20    3.41    2.78
   5  -8 -20    7.22    3.76
   5  -8 -19    7.24    2.88
   5  -8 -18   17.56    3.24
   5   8 -17  117.50    6.22
   5  -8 -17  113.12    6.10
   5   8 -16  264.68   10.76
   5  -8 -16  248.46   10.79
   5   8 -15  304.32   12.50
   5  -8 -15  304.01   12.96
   5  -8 -15  285.20   12.40
   5   8 -14   45.30    4.29
   5  -8 -14   54.99    4.97
  -5  -8  14   49.18    3.17
   5  -8 -14   52.20    4.04
   5  -8 -13   23.36    3.10
   5  -8 -13   24.60    4.24
  -5  -8  13   21.41    2.44
  -5  -8  12    3.61    2.19
   5  -8 -12    2.86    2.42
   5  -8 -11   11.22    2.55
   5   8 -11    3.42    2.88
  -5  -8  11    6.87    2.36
   5  -8 -10  175.61    7.81
  -5  -8  10  186.10    7.84
   5   8 -10  185.12    8.10
  -5   8  10  166.43    7.36
   5   8  -9  110.99    5.72
  -5  -8   9  109.56    5.58
  -5   8   9  112.84    5.18
   5   8  -8    7.09    2.64
  -5  -8   8    2.76    2.28
  -5   8   8    5.42    1.84
   5  -8  -7   62.80    4.44
   5   8  -7   66.85    4.15
  -5  -8   7   68.12    4.12
  -5   8   7   65.90    3.74
   5  -8  -6    0.75    2.64
   5   8  -6    0.07    2.08
  -5  -8   6    1.55    2.54
  -5   8   6    3.77    1.98
  -5  -8   5  186.03    8.16
   5  -8  -5  183.66    8.16
   5   8  -5  186.14    8.00
  -5   8   5  184.03    7.94
   5  -8  -4    2.72    2.25
   5   8  -4    2.22    1.75
  -5  -8   4    8.03    2.60
  -5   8   4    6.82    2.05
   5  -8  -3   19.00    2.48
   5   8  -3   19.15    2.25
  -5   8   3   18.58    2.45
  -5  -8   3   22.45    2.84
   5   8  -2   13.23    1.93
  -5  -8   2   10.55    2.86
  -5   8   2   11.79    2.26
   5   8  -1  172.69    7.40
  -5   8   1  177.51    7.71
   5   8   0    6.38    1.56
  -5   8   0    9.25    2.42
  -5   8  -1  275.36   11.16
  -5  -8  -1  263.81   11.20
  -5   8  -2  122.21    6.16
  -5  -8  -2  129.28    6.30
  -5  -8  -3  271.76   11.37
  -5  -8  -4   -0.81    1.74
  -5  -8  -4    3.10    2.57
  -5  -8  -5  713.44   27.37
  -5   8  -5  727.91   27.73
  -5  -8  -5  742.39   27.73
  -5   8  -6  179.97    8.24
  -5  -8  -6  171.48    8.12
  -5  -8  -6  187.69    7.82
  -5   8  -7 1067.05   40.18
  -5  -8  -7 1070.57   40.14
  -5  -8  -7 1070.07   39.97
  -5  -8  -8   30.92    3.08
  -5  -8  -8   25.59    3.23
  -5   8  -8   28.30    3.36
  -5   8  -9  439.48   17.23
  -5  -8  -9  426.54   17.10
  -5  -8  -9  433.27   17.12
  -5  -8 -10   30.53    3.36
  -5   8 -10   29.75    3.30
  -5  -8 -10   31.22    3.22
  -5   8 -11  369.60   14.98
  -5  -8 -11  370.83   14.83
  -5  -8 -11  375.17   15.05
  -5  -8 -12   13.22    3.25
  -5   8 -12   11.71    2.84
  -5  -8 -12   12.78    2.45
  -5   8 -13  251.86   10.57
  -5  -8 -13  244.24   10.17
  -5  -8 -13  248.98   10.33
  -5  -8 -13  262.01   10.94
  -5  -8 -14   17.95    3.48
  -5   8 -14   15.21    2.78
  -5  -8 -14    9.88    2.21
  -5   8 -15  127.19    6.12
  -5  -8 -15  125.41    5.87
  -5  -8 -15  138.40    6.74
  -5   8 -16   61.92    3.73
  -5  -8 -16   60.29    3.60
  -5  -8 -16   61.39    4.46
  -5   8 -17   58.04    3.50
  -5  -8 -17   65.28    3.63
  -5  -8 -17   68.49    4.46
  -5  -8 -18    5.28    2.94
  -5  -8 -18   -0.40    1.72
  -5  -8 -19   85.46    4.15
  -5  -8 -19   93.18    4.96
  -5  -8 -20   -4.57    2.53
  -5  -8 -20    3.68    1.42
  -5  -8 -21   20.06    1.60
  -5  -8 -21   20.74    2.38
  -5  -8 -22    2.52    1.69
  -5  -8 -23   11.78    1.41
   5  -9 -24    5.80    1.54
   5  -9 -24   12.85    1.60
   5  -9 -23   34.45    2.55
   5  -9 -23   31.12    2.58
   5  -9 -22   37.32    2.92
   5  -9 -22   30.53    2.37
   5  -9 -22   32.87    2.96
   5  -9 -21   17.52    2.96
   5  -9 -21   11.71    1.86
   5  -9 -20  148.45    6.67
   5  -9 -20  166.48    7.51
   5  -9 -19   -0.26    1.88
   5  -9 -19    0.09    3.22
   5  -9 -18   79.61    5.22
   5  -9 -18   68.36    4.11
   5   9 -17   88.88    4.95
   5  -9 -17   82.47    5.60
   5  -9 -17   72.92    4.42
   5   9 -16   99.09    5.42
   5  -9 -16   93.63    5.90
   5  -9 -16   81.54    4.73
   5   9 -15   20.15    3.58
   5  -9 -15   14.55    3.97
   5  -9 -14  123.68    7.10
  -5  -9  13   27.60    2.55
   5  -9 -13   27.81    4.45
   5   9 -12  200.67    9.07
   5  -9 -12  211.17    9.41
  -5  -9  12  189.12    8.39
   5   9 -11  677.66   26.17
   5  -9 -11  716.56   26.34
  -5  -9  11  654.83   25.80
   5   9 -10    7.84    3.09
   5  -9 -10    9.11    3.36
  -5  -9  10    9.85    2.52
   5   9  -9  346.36   14.06
   5  -9  -9  356.39   14.23
  -5  -9   9  360.10   13.93
  -5   9   9  330.26   13.54
   5   9  -8   11.35    2.93
   5  -9  -8   13.99    3.24
  -5  -9   8   11.65    2.65
  -5   9   8   12.35    2.16
  -5   9   7  363.60   14.30
   5   9  -7  362.18   14.59
  -5  -9   7  362.24   14.55
   5   9  -6  269.61   10.94
  -5   9   6  261.09   10.75
  -5  -9   6  258.76   11.00
  -5   9   5  274.03   11.41
   5   9  -5  281.26   11.48
  -5  -9   5  283.30   11.62
  -5   9   4   42.51    3.20
   5   9  -4   37.71    3.19
   5   9  -3  167.24    7.42
  -5   9   3  170.36    7.65
  -5  -9   3  176.68    8.02
   5   9  -2   58.19    3.54
  -5   9   2   57.11    4.06
   5   9  -1  279.36   11.18
  -5  -9   1  257.84   11.60
  -5   9   1  296.33   11.61
   5   9   0   83.66    4.21
  -5   9   0   90.11    4.94
  -5   9  -1   19.65    2.94
  -5   9  -2  139.14    6.76
  -5  -9  -2  132.45    6.77
  -5  -9  -3   21.27    3.64
  -5   9  -3   17.84    3.23
  -5  -9  -4   80.86    5.09
  -5  -9  -5   52.48    4.13
  -5  -9  -6   72.97    4.61
  -5   9  -6   67.55    4.70
  -5   9  -7  323.14   13.02
  -5  -9  -7  321.19   12.98
  -5  -9  -7  303.00   12.58
  -5   9  -8   37.61    4.01
  -5  -9  -8   40.85    3.79
  -5  -9  -8   39.36    3.16
  -5  -9  -9    5.15    2.43
  -5   9  -9    1.45    2.86
  -5  -9  -9    4.45    2.93
  -5  -9 -10    0.81    2.34
  -5   9 -10    0.34    2.86
  -5  -9 -10    0.32    2.62
  -5   9 -11   45.05    3.98
  -5  -9 -11   43.26    3.60
  -5  -9 -11   51.32    3.76
  -5  -9 -12    4.06    2.80
  -5   9 -12    2.25    2.79
  -5  -9 -12    5.82    2.54
  -5  -9 -13  315.27   12.91
  -5   9 -13  321.01   13.16
  -5  -9 -13  338.76   13.19
  -5  -9 -14    1.25    2.68
  -5   9 -14    0.07    2.38
  -5   9 -15   62.35    3.84
  -5  -9 -15   66.22    4.21
  -5  -9 -16   10.32    2.71
  -5   9 -16    7.36    2.12
  -5   9 -17   51.85    3.03
  -5  -9 -17   56.22    3.79
  -5  -9 -18    9.15    2.46
  -5  -9 -19   53.32    3.28
  -5  -9 -20    0.18    1.59
  -5  -9 -21   19.64    1.72
  -5  -9 -22    1.13    0.91
   5 -10 -23    3.72    1.07
   5 -10 -22    1.75    1.38
   5 -10 -22   -0.10    0.95
   5 -10 -21   32.36    2.61
   5 -10 -21   25.77    2.11
   5 -10 -21   28.88    2.48
   5 -10 -20    8.32    2.28
   5 -10 -20    7.63    2.29
   5 -10 -20    9.22    2.15
   5 -10 -19   20.32    2.82
   5 -10 -19   18.66    2.92
   5 -10 -18   55.66    3.94
   5 -10 -18   44.94    3.73
   5 -10 -17  342.31   13.23
   5 -10 -17  305.87   13.26
   5  10 -16    0.22    2.74
   5 -10 -16    4.48    3.39
   5 -10 -15   86.28    5.22
   5 -10 -14    1.16    3.50
   5  10 -13  264.84   12.00
   5 -10 -13  310.86   12.28
   5  10 -12   14.98    3.51
   5 -10 -12   10.38    3.57
  -5 -10  12   10.78    2.24
   5  10 -11  299.10   12.52
   5 -10 -11  308.77   12.56
  -5 -10  11  292.50   12.07
   5  10 -10   12.54    3.32
   5 -10 -10   10.03    3.16
  -5 -10  10   10.88    2.58
   5  10  -9  211.48    9.52
   5 -10  -9  222.10    9.52
  -5 -10   9  214.75    9.29
   5  10  -8  216.55    9.21
   5 -10  -8  207.08    9.13
  -5 -10   8  202.79    9.05
  -5  10   8  208.32    8.65
   5  10  -7   20.25    2.88
   5 -10  -7   15.78    2.79
  -5 -10   7   19.50    3.02
  -5  10   7   15.55    2.26
   5  10  -6   42.49    3.50
  -5  10   6   45.52    3.27
   5 -10  -6   48.96    3.56
  -5 -10   6   43.62    3.90
   5  10  -5   89.19    4.73
  -5  10   5   85.69    4.57
   5 -10  -5   85.65    4.58
  -5 -10   5   76.25    4.99
   5  10  -4  180.83    8.06
  -5  10   4  190.94    8.14
  -5 -10   4  184.58    8.61
   5  10  -3    1.70    2.09
  -5 -10   3    4.13    3.42
  -5  10   3    4.02    2.43
   5  10  -2  173.90    7.53
  -5  10   2  169.78    7.79
  -5 -10   2  175.48    8.32
   5  10  -1    7.65    1.98
  -5 -10   1    7.65    3.64
  -5  10   1    9.01    2.68
  -5  10   0    4.72    2.87
  -5  10  -1  134.74    6.71
  -5 -10  -2   22.58    4.02
  -5  10  -2   22.60    3.24
  -5 -10  -3   41.75    4.19
  -5  10  -3   31.98    3.79
  -5  10  -4   61.58    4.52
  -5 -10  -4   54.83    4.67
  -5 -10  -5   56.83    4.64
  -5 -10  -6   35.49    4.08
  -5  10  -7  230.82   10.34
  -5 -10  -7  244.14   10.36
  -5  10  -8  258.55   11.26
  -5 -10  -8  255.85   10.54
  -5 -10  -8  275.45   11.30
  -5  10  -9  121.63    6.21
  -5 -10  -9  109.03    5.37
  -5 -10  -9  114.77    6.02
  -5  10 -10   73.93    4.82
  -5 -10 -10   77.71    4.53
  -5 -10 -10   66.61    4.00
  -5 -10 -11   -3.12    2.28
  -5  10 -11   -0.86    2.74
  -5 -10 -11    1.61    2.50
  -5  10 -12  164.75    7.30
  -5 -10 -12  154.90    7.06
  -5 -10 -12  156.02    6.99
  -5 -10 -13   -2.85    2.26
  -5  10 -13    1.33    2.33
  -5 -10 -13    1.70    2.07
  -5  10 -14   50.27    3.40
  -5 -10 -14   47.08    2.91
  -5 -10 -14   46.65    3.32
  -5 -10 -15   19.32    2.48
  -5  10 -15   26.79    2.48
  -5  10 -16   36.14    2.49
  -5 -10 -16   29.29    2.61
  -5  10 -17   60.70    3.17
  -5 -10 -17   70.96    3.52
  -5 -10 -18  119.19    5.14
  -5 -10 -19   70.53    3.31
  -5 -10 -20   34.75    1.84
   5 -11 -21   57.92    2.80
   5 -11 -20    3.76    1.08
   5 -11 -20    4.55    1.57
   5 -11 -20    2.19    1.30
   5 -11 -19   62.33    3.42
   5 -11 -19   52.46    3.09
   5 -11 -18    4.71    1.69
   5 -11 -18    5.78    2.21
   5 -11 -18    1.44    2.18
   5 -11 -17   13.86    2.08
   5 -11 -17   13.56    2.57
   5 -11 -17   12.37    2.75
   5 -11 -16    7.31    2.11
   5 -11 -16   10.76    2.64
   5 -11 -15  184.37    7.62
   5 -11 -15  160.02    7.43
   5  11 -14   87.61    4.86
   5 -11 -14   80.42    4.58
   5  11 -13   84.97    4.79
   5 -11 -13   91.11    4.73
   5  11 -12  150.51    6.82
   5 -11 -12  144.83    6.65
  -5 -11  12  131.70    6.02
   5  11 -11   15.81    3.14
   5 -11 -11   15.83    2.84
  -5 -11  11   16.62    2.32
   5  11 -10  130.19    6.47
  -5 -11  10  133.30    6.15
   5 -11 -10  132.87    6.36
   5  11  -9   78.08    4.62
  -5 -11   9   73.19    4.25
   5 -11  -9   68.83    4.26
   5  11  -8    4.45    2.81
   5 -11  -8    6.88    2.35
  -5 -11   8    7.49    2.74
   5  11  -7   10.85    2.67
   5 -11  -7    7.47    2.21
  -5 -11   7    9.57    2.93
  -5  11   7    8.16    1.90
   5  11  -6   -0.22    2.65
  -5 -11   6    4.16    2.86
  -5  11   6    3.95    1.92
   5  11  -5   31.63    3.11
  -5  11   5   37.37    3.00
  -5 -11   5   31.60    3.84
   5  11  -4   30.62    2.95
  -5 -11   4   25.00    3.68
  -5  11   4   27.67    2.91
   5  11  -3   16.05    2.47
  -5 -11   3   15.42    3.53
  -5  11   3   14.42    2.61
   5  11  -2  284.83   11.80
  -5  11   2  303.25   12.15
  -5 -11   2  304.00   12.52
  -5  11   1  161.83    7.24
  -5 -11   1  170.12    7.76
  -5  11   0   53.73    3.97
  -5 -11   0   58.67    4.76
  -5  11  -1    2.17    2.68
  -5  11  -2    9.28    3.08
  -5  11  -3   38.17    3.86
  -5 -11  -3   28.48    4.22
  -5  11  -4    0.41    3.14
  -5 -11  -4    2.66    3.58
  -5  11  -5   66.79    4.72
  -5 -11  -5   64.91    4.97
  -5 -11  -6   30.32    3.92
  -5 -11  -7   21.61    3.41
  -5  11  -8   14.42    3.24
  -5 -11  -8   19.39    3.21
  -5  11  -9  249.79   10.44
  -5 -11  -9  238.12   10.26
  -5  11 -10   11.41    2.83
  -5 -11 -10   12.09    2.77
  -5  11 -11  262.90   10.81
  -5 -11 -11  260.87   10.71
  -5  11 -12    2.39    2.26
  -5 -11 -12    2.99    2.02
  -5  11 -13  137.14    5.76
  -5 -11 -13  133.12    5.51
  -5  11 -14    5.90    1.85
  -5 -11 -14    6.60    1.42
  -5  11 -15   25.27    2.06
  -5 -11 -15   21.24    1.70
  -5  11 -16   33.56    2.06
  -5 -11 -16   30.20    1.87
  -5 -11 -17   12.33    1.09
   5 -12 -19   66.98    3.04
   5 -12 -18    8.15    1.31
   5 -12 -18    7.66    1.52
   5 -12 -17   28.94    2.14
   5 -12 -17   34.01    2.49
   5 -12 -16    7.60    1.73
   5 -12 -16    7.74    2.21
   5 -12 -15    4.21    1.86
   5 -12 -14    1.55    1.89
   5  12 -13  262.53   10.48
   5 -12 -13  256.05   10.30
   5 -12 -13  254.37   10.87
   5  12 -12    0.75    2.22
   5 -12 -12    1.81    1.95
   5 -12 -12   -3.63    3.13
   5  12 -11   54.75    3.66
   5 -12 -11   51.83    3.25
   5 -12 -11   53.30    4.40
   5  12 -10   53.30    3.65
   5 -12 -10   56.09    3.30
  -5 -12  10   58.19    3.26
   5  12  -9   23.70    2.77
  -5 -12   9   22.21    2.51
   5  12  -8   76.50    4.33
  -5 -12   8   81.47    4.35
   5  12  -7   -0.53    2.20
  -5 -12   7    1.67    2.46
   5 -12  -7   -2.20    3.17
   5  12  -6   18.87    2.54
  -5  12   6   17.08    1.95
  -5 -12   6   24.36    3.00
   5 -12  -6   22.84    3.31
   5  12  -5    1.84    2.08
  -5  12   5    1.30    1.84
  -5 -12   5    1.32    2.85
   5 -12  -5   -1.37    2.98
   5  12  -4   36.69    2.82
  -5 -12   4   36.72    3.64
  -5  12   4   40.15    2.87
   5 -12  -4   33.98    3.49
  -5  12   3   84.05    4.46
  -5 -12   3   92.78    5.27
   5 -12  -3   81.37    4.81
  -5  12   2   88.04    4.54
  -5 -12   2   94.53    5.18
  -5  12   1   92.50    4.74
  -5 -12   1  101.73    5.53
  -5  12   0   34.10    3.20
  -5 -12   0   35.70    4.08
  -5  12  -1   32.51    3.19
  -5 -12  -1   34.46    4.24
  -5  12  -2  208.31    9.04
  -5  12  -3  196.78    8.67
  -5  12  -4  328.28   13.68
  -5 -12  -4  350.68   13.84
  -5 -12  -5   15.69    3.30
  -5  12  -5   16.22    3.01
  -5  12  -6   39.52    3.68
  -5 -12  -6   47.46    3.98
  -5 -12  -7  177.46    8.00
  -5 -12  -8   13.46    2.76
  -5  12  -9  346.83   13.78
  -5 -12  -9  346.19   13.71
  -5 -12 -10   92.53    4.74
  -5  12 -10  101.21    4.90
  -5  12 -11   46.96    3.15
  -5 -12 -11   44.09    2.94
  -5  12 -12   68.53    3.51
  -5 -12 -12   59.05    3.28
  -5  12 -13  101.07    4.24
  -5 -12 -13   79.94    3.84
  -5  12 -14  226.03    8.88
  -5  12 -15    7.71    1.11
   5 -13 -16    1.14    1.16
   5 -13 -14   29.40    2.43
   5 -13 -13   21.12    2.40
   5 -13 -12    1.82    2.08
   5 -13 -11  190.41    8.14
   5 -13 -10    1.17    2.37
  -5 -13   9  217.74    8.87
   5 -13  -9  239.34    9.49
   5 -13  -8    0.20    2.45
  -5 -13   8    2.67    1.74
  -5 -13   7  356.01   13.84
  -5 -13   6  109.06    5.15
   5 -13  -6  104.01    5.33
  -5 -13   5  285.95   10.74
   5 -13  -5  241.62   10.69
  -5  13   4   32.74    2.23
  -5 -13   4   32.40    3.11
   5 -13  -4   26.97    2.72
  -5  13   3  216.26    8.91
  -5 -13   3  242.86    9.44
   5 -13  -3  213.06    9.07
  -5  13   2  188.15    7.47
  -5 -13   2  202.27    7.99
  -5  13   1   81.03    4.21
  -5 -13   1   88.72    4.77
  -5 -13   0    1.76    2.76
  -5  13   0    3.59    2.00
  -5  13  -1    7.72    2.25
  -5 -13  -1    4.85    2.77
  -5  13  -2    7.67    2.15
  -5  13  -3   12.80    2.28
  -5  13  -4   19.77    2.57
  -5 -13  -4   24.41    2.93
  -5  13  -5    7.51    2.29
  -5 -13  -5    5.06    2.60
  -5  13  -6  121.10    5.76
  -5 -13  -6  134.96    5.99
  -5  13  -7  216.04    8.90
  -5 -13  -7  217.54    8.95
  -5 -13  -8    3.20    1.93
  -5 -13  -9    5.87    1.83
  -5  13 -10    3.52    1.63
  -5 -13 -10    3.40    1.48
  -5  13 -11   24.67    1.93
  -5 -13 -11   22.92    1.76
  -5  13 -12    3.21    1.19
  -5 -13 -12    0.47    0.90
  -5  13 -13    4.43    1.02
   5 -14 -13   26.04    1.62
   5 -14 -12   45.52    2.39
   5 -14 -11    7.40    1.42
   5 -14 -10   18.93    1.77
   5 -14  -9   25.92    2.11
   5 -14  -8   51.74    2.84
  -5 -14   7   10.17    1.26
   5 -14  -7    9.13    1.67
  -5 -14   6   48.55    2.57
   5 -14  -6   41.32    2.62
  -5 -14   5    8.30    1.75
   5 -14  -5    8.23    1.49
  -5 -14   4  141.42    6.05
  -5 -14   3    8.55    1.88
  -5 -14   2   29.38    2.46
  -5  14   2   22.13    1.62
  -5  14   1   49.23    2.60
  -5 -14   1   55.00    3.24
  -5  14   0   15.61    1.63
  -5 -14   0   22.68    2.40
  -5  14  -1  220.30    9.17
  -5 -14  -1  254.44    9.51
  -5  14  -2    4.96    1.47
  -5 -14  -2    5.02    2.02
  -5  14  -3   60.71    3.11
  -5  14  -4   18.48    1.88
  -5  14  -5   13.33    1.64
  -5 -14  -5   13.49    1.98
  -5  14  -6    7.96    1.53
  -5 -14  -6    8.45    1.72
  -5  14  -7   71.51    3.35
  -5 -14  -7   70.13    3.41
  -5  14  -8   41.16    2.24
  -5 -14  -8   37.37    2.19
  -5 -14  -9   22.99    1.53
  -5  14 -10    9.01    1.07
  -5 -15   2   42.34    2.17
  -5 -15   1   14.54    1.37
  -5 -15   0    1.05    1.11
  -5 -15  -1    5.77    1.17
  -5 -15  -2   -0.06    1.02
  -5 -15  -3    3.93    1.06
   6   0 -28  257.90   10.32
   6   0 -27   -0.52    2.48
   6   0 -26  120.59    6.37
   6   0 -25    2.97    3.72
   6   0 -24  259.86   11.80
   6   0 -23   -4.35    4.36
   6   0 -22  551.13   22.68
   6   0 -21   -0.15    4.73
   6   0 -20  384.38   16.88
   6   0 -19    1.81    4.35
  -6   0  19    0.71    2.33
  -6   0  18  258.71   10.62
   6   0 -18  248.18   11.03
   6   0 -17   -1.60    3.03
  -6   0  17    1.00    2.42
   6   0 -16  332.56   14.05
  -6   0  16  352.22   13.80
   6   0 -15    1.52    2.70
  -6   0  15    0.80    2.17
  -6   0  14 1043.93   38.41
   6   0 -14 1007.97   38.53
  -6   0  13    0.60    1.96
   6   0 -13    1.59    2.45
   6   0 -12  206.16    8.80
  -6   0  12  208.97    8.67
  -6   0  11    2.07    0.93
  -6   0  11    0.06    1.77
   6   0 -11    0.06    2.00
  -6   0  10   29.11    1.87
   6   0 -10   28.48    2.50
  -6   0  10   29.32    2.39
  -6   0   9    1.33    1.54
  -6   0   9   -0.18    0.83
   6   0  -9   -0.22    1.65
  -6   0   8   15.35    1.24
   6   0  -8   13.45    1.76
  -6   0   8   14.49    1.58
  -6   0   7    1.43    1.17
  -6   0   7    0.29    0.68
   6   0  -7    0.63    1.46
  -6   0   6  459.26   17.46
   6   0  -6  460.18   17.47
  -6   0   6  467.04   17.20
  -6   0   6  451.17   17.40
  -6   0   5   -0.04    1.14
  -6   0   5    1.21    0.62
  -6   0   5    0.61    1.13
  -6   0   5    0.64    1.08
  -6   0   4   16.23    1.03
  -6   0   4   16.67    1.54
  -6   0   4   15.75    1.49
  -6   0   4   16.38    1.53
  -6   0   3   -0.55    1.08
  -6   0   3    1.21    0.45
  -6   0   3    0.52    1.13
  -6   0   3   -0.39    1.12
  -6   0   3    0.36    0.95
  -6   0   2  309.95   11.26
   6   0  -2  336.18   11.81
  -6   0   2  333.69   11.82
  -6   0   2  318.38   11.78
  -6   0   2  311.14   11.72
  -6   0   2  308.60   11.72
   6   0  -1    0.78    0.95
  -6   0   1    1.00    1.06
  -6   0   1   -0.07    0.89
  -6   0   1    1.28    1.18
   6   0   0  423.09   15.61
  -6   0   0  401.47   15.54
  -6   0   0  413.98   15.63
  -6   0  -1    2.66    1.17
   6   0   1    0.39    0.86
  -6   0  -1    0.76    1.05
   6   0   2   20.93    1.50
  -6   0  -2   21.26    1.55
  -6   0  -2   18.03    1.61
  -6   0  -3   -0.09    1.20
   6   0   3    0.44    0.84
  -6   0  -3    0.12    1.02
   6   0   4 1855.71   67.83
  -6   0  -4 1850.38   67.90
  -6   0  -4 1853.67   67.97
   6   0   5    0.35    0.84
  -6   0  -5    0.53    1.03
  -6   0  -5    1.75    1.36
  -6   0  -6  220.52    9.00
   6   0   6  219.46    8.56
  -6   0  -6  222.24    8.68
  -6   0  -6  218.17    8.88
  -6   0  -7   -1.84    1.63
  -6   0  -7    0.06    1.83
  -6   0  -8   20.58    2.14
  -6   0  -8   14.26    2.32
  -6   0  -9    0.47    1.84
  -6   0  -9   -0.26    2.07
  -6   0 -10   10.30    2.11
  -6   0 -10   11.98    2.52
  -6   0 -11   -1.70    2.17
  -6   0 -11   -1.17    2.46
  -6   0 -12  278.26   11.30
  -6   0 -12  263.81   11.08
  -6   0 -13   -1.00    2.37
  -6   0 -13    0.81    2.80
  -6   0 -14  533.18   21.13
  -6   0 -14  544.26   20.91
  -6   0 -15   -0.07    2.63
  -6   0 -15    2.46    3.10
  -6   0 -16   -1.04    2.71
  -6   0 -16    1.81    3.36
  -6   0 -17    0.81    2.59
  -6   0 -17   -4.20    3.64
  -6   0 -18  171.39    8.28
  -6   0 -18  159.94    7.41
  -6   0 -19    0.66    2.34
  -6   0 -19   -2.23    3.72
  -6   0 -20   24.37    2.58
  -6   0 -20   17.82    3.74
  -6   0 -21    0.21    1.85
  -6   0 -21   -1.84    3.24
  -6   0 -22   15.08    3.21
  -6   0 -23    4.69    2.40
  -6   0 -24   75.81    4.09
  -6   0 -25    1.54    1.62
  -6   0 -26   79.52    3.54
   6  -1 -29   77.74    3.66
   6  -1 -28    6.00    2.10
   6   1 -27   85.72    4.50
   6  -1 -27  100.48    5.21
   6   1 -26   24.85    2.98
   6  -1 -26   26.90    3.88
   6  -1 -25   62.33    5.27
   6   1 -25   67.78    4.62
   6  -1 -25   61.90    4.18
   6  -1 -24   63.71    5.77
   6   1 -24   65.73    4.91
   6   1 -23   28.88    4.36
   6  -1 -23   20.57    5.02
   6  -1 -22   53.30    5.93
   6  -1 -22   54.58    3.98
   6   1 -22   65.96    5.49
   6   1 -21   11.24    4.04
   6  -1 -21    7.43    5.24
   6  -1 -21    9.31    2.98
   6  -1 -20   96.39    7.48
  -6  -1  20   99.50    5.12
   6   1 -20  107.11    6.84
   6   1 -19   73.59    5.79
   6  -1 -19   59.43    6.26
  -6  -1  19   67.37    4.05
  -6   1  18   79.52    4.68
  -6  -1  18   88.39    4.56
   6  -1 -17  325.79   13.66
   6   1 -17  314.95   13.38
  -6  -1  17  336.22   13.20
  -6   1  17  328.49   13.32
   6  -1 -16    7.08    3.27
   6   1 -16    9.46    2.76
  -6   1  16   10.01    2.59
  -6  -1  16   10.33    2.34
  -6  -1  15   78.37    4.23
   6  -1 -15   68.12    4.75
   6   1 -15   73.77    4.55
  -6   1  15   80.99    4.40
   6  -1 -14  416.05   17.07
   6   1 -14  426.60   16.98
  -6   1  14  451.49   16.97
  -6  -1  14  432.48   16.84
   6  -1 -13  167.97    7.82
   6   1 -13  180.54    7.76
  -6   1  13  184.26    7.73
  -6  -1  13  172.41    7.57
   6  -1 -12  302.67   12.60
   6   1 -12  311.51   12.54
  -6   1  12  324.94   12.55
  -6  -1  12  314.73   12.45
  -6  -1  11  321.00   12.85
  -6   1  11  349.72   12.96
   6  -1 -11  324.01   13.00
   6   1 -11  323.29   12.92
  -6   1  11  318.53   12.65
   6  -1 -10  342.67   13.87
  -6  -1  10  358.19   13.78
   6   1 -10  351.88   13.82
  -6  -1  10  353.67   13.62
  -6   1  10  364.88   13.86
  -6   1  10  350.61   13.57
  -6  -1   9   73.00    3.65
  -6   1   9   65.45    3.69
   6  -1  -9   69.64    3.84
   6   1  -9   78.16    3.78
  -6  -1   9   75.44    3.40
  -6   1   9   71.68    3.32
   6  -1  -8  489.53   19.23
   6   1  -8  499.48   19.18
  -6   1   8  510.57   19.19
  -6  -1   8  519.76   19.03
  -6  -1   8  508.57   19.20
  -6  -1   8  509.26   19.18
  -6   1   8  500.96   18.95
  -6   1   7  910.34   34.65
   6  -1  -7  919.57   34.69
   6   1  -7  918.23   34.64
  -6   1   7  959.85   34.68
  -6  -1   7  951.49   34.48
  -6  -1   7  930.75   34.60
  -6   1   7  937.96   34.42
  -6   1   6  573.66   21.61
   6  -1  -6  581.31   21.62
  -6  -1   6  591.96   21.39
   6  -1  -6  566.07   21.62
  -6   1   6  592.70   21.67
  -6  -1   6  525.20   21.56
  -6  -1   6  572.26   21.54
  -6   1   6  583.61   21.31
  -6   1   5  653.99   24.38
  -6  -1   5  681.31   24.16
  -6  -1   5  672.75   24.44
  -6  -1   5  661.95   24.37
  -6   1   5  575.73   24.29
  -6  -1   5  656.20   24.33
  -6   1   5  657.31   24.06
   6  -1  -4  348.52   14.22
  -6   1   4  372.79   14.23
  -6   1   4  379.34   14.30
  -6  -1   4  380.68   14.30
  -6  -1   4  392.38   13.98
  -6   1   4  375.26   13.85
  -6  -1   4  361.72   14.22
  -6  -1   4  363.33   14.18
   6  -1  -3   51.03    2.60
  -6  -1   3   47.57    2.54
  -6   1   3   51.05    2.63
  -6  -1   3   48.64    2.63
  -6  -1   3   48.27    2.60
  -6   1   3   50.85    2.55
  -6   1   3   46.20    2.01
  -6  -1   3   53.29    2.20
  -6  -1   3   53.36    2.58
  -6  -1   2  540.92   20.08
  -6  -1   2  476.14   19.78
  -6  -1   2  528.92   20.08
  -6   1   2  538.91   20.08
  -6   1   2  563.40   20.16
  -6  -1   2  555.88   20.14
  -6   1   2  510.08   20.10
  -6  -1   2  529.86   20.12
  -6  -1   2  573.91   19.76
  -6   1   2  538.11   20.08
   6  -1  -2  553.22   20.13
  -6  -1   1  577.45   23.17
  -6   1   1  611.67   23.47
  -6   1   1  651.71   23.59
  -6  -1   1  642.61   23.54
  -6   1   1  633.44   23.56
  -6  -1   1  615.98   23.55
  -6  -1   1  663.53   23.12
  -6  -1   1  625.32   23.49
  -6   1   1  636.06   23.50
  -6  -1   1  638.11   23.52
   6  -1  -1  650.07   23.55
  -6  -1   0   25.92    1.82
  -6   1   0   22.54    1.78
  -6  -1   0   24.74    1.67
  -6   1   0   22.75    1.75
  -6  -1   0   25.57    1.72
  -6  -1   0   25.37    1.14
  -6  -1   0   24.29    1.09
  -6   1   0   26.57    1.66
  -6   1   0   25.40    1.72
  -6  -1   0   23.97    1.77
   6  -1   0   25.61    1.69
  -6  -1  -1 1191.57   43.59
  -6   1  -1 1191.68   43.67
  -6  -1  -1 1228.99   43.66
  -6   1  -1 1163.92   43.70
  -6  -1  -1 1170.23   43.70
  -6   1  -1 1174.04   43.63
  -6  -1  -1 1152.66   43.67
   6  -1   1 1203.82   43.64
  -6  -1  -2  422.02   16.30
  -6   1  -2  441.49   16.43
  -6  -1  -2  439.52   16.37
  -6  -1  -2  432.16   16.48
  -6   1  -2  433.18   16.48
  -6   1  -2  426.41   16.38
   6  -1   2  440.52   16.38
  -6   1  -3  630.30   23.52
  -6   1  -3  637.88   23.45
  -6  -1  -3  625.98   23.54
  -6  -1  -3  626.53   23.39
  -6  -1  -3  610.95   23.33
  -6   1  -3  623.22   23.44
   6  -1   3  640.01   23.40
  -6   1  -4   84.16    3.79
  -6  -1  -4   79.90    3.66
  -6  -1  -4   90.36    4.01
  -6   1  -4   79.86    3.88
  -6   1  -4   81.76    3.80
   6  -1   4   82.75    3.69
  -6   1  -5   53.16    2.79
  -6  -1  -5   62.54    2.76
  -6   1  -5   48.95    2.82
  -6   1  -5   54.29    3.04
  -6  -1  -5   51.71    3.03
   6  -1   5   54.37    2.66
  -6  -1  -5   56.47    3.11
  -6   1  -6  222.33    8.85
  -6   1  -6  220.01    9.05
  -6  -1  -6  222.68    9.11
  -6  -1  -6  230.33    9.09
  -6   1  -6  218.19    8.93
   6  -1   6  227.63    8.76
  -6   1  -7   12.87    1.66
  -6  -1  -7   11.44    1.93
  -6   1  -7   13.63    1.47
  -6   1  -7   14.66    1.98
  -6   1  -8  323.38   12.93
  -6  -1  -8  323.66   12.95
  -6   1  -8  334.36   12.79
  -6   1  -9   64.64    3.73
  -6   1  -9   61.86    3.46
  -6  -1  -9   64.08    3.77
  -6   1 -10  961.07   36.40
  -6   1 -10  994.52   36.26
  -6  -1 -10  959.65   36.42
  -6   1 -11   96.45    4.93
  -6   1 -11   97.96    4.67
  -6  -1 -11   86.62    4.89
  -6   1 -12   28.50    2.61
  -6  -1 -12   23.81    3.13
  -6   1 -12   25.59    3.01
  -6   1 -13  114.80    5.93
  -6   1 -13  115.63    5.44
  -6  -1 -13  107.40    5.78
  -6   1 -14  183.63    8.40
  -6  -1 -14  183.06    8.61
  -6   1 -14  185.54    7.99
  -6  -1 -14  180.84    8.35
  -6  -1 -15  356.26   13.99
  -6   1 -15  338.60   13.33
  -6  -1 -15  321.08   13.65
  -6   1 -15  324.64   13.80
  -6   1 -16   46.84    3.40
  -6  -1 -16   53.36    4.49
  -6   1 -16   46.27    4.24
  -6  -1 -16   43.86    3.95
  -6   1 -17  123.67    6.69
  -6  -1 -17  144.12    7.11
  -6   1 -17  124.18    5.86
  -6  -1 -17  123.40    6.51
  -6   1 -18    7.24    2.25
  -6  -1 -18    2.45    2.78
  -6   1 -18    4.71    3.41
  -6  -1 -18    7.59    3.93
  -6  -1 -19   75.02    5.40
  -6   1 -19   79.47    5.10
  -6   1 -19   81.07    4.06
  -6  -1 -19   73.01    4.76
  -6  -1 -20    5.93    2.68
  -6   1 -20    4.41    3.10
  -6  -1 -20    0.63    3.97
  -6  -1 -21   10.16    2.33
  -6   1 -21   11.39    3.01
  -6  -1 -21   10.75    3.59
  -6  -1 -22    0.48    1.86
  -6   1 -22    2.65    2.55
  -6  -1 -22   -1.87    3.33
  -6  -1 -23   22.88    2.02
  -6   1 -23   27.34    2.67
  -6  -1 -23   23.19    3.14
  -6   1 -24   11.56    1.93
  -6  -1 -24   14.60    2.45
  -6   1 -25   43.80    2.63
  -6  -1 -25   59.05    3.12
  -6  -1 -26   56.56    2.87
   6  -2 -29    0.64    1.37
   6  -2 -28   13.94    2.36
   6  -2 -27    2.69    2.78
   6  -2 -26    3.86    3.25
   6  -2 -26    0.30    2.21
   6   2 -25   15.17    2.47
   6  -2 -25    8.76    4.20
   6  -2 -25   13.81    3.10
   6  -2 -24   58.71    5.52
   6   2 -24   49.62    4.01
   6  -2 -23   58.13    6.29
   6  -2 -23   59.46    4.13
   6   2 -23   59.54    4.50
   6  -2 -22  155.60    7.80
   6   2 -22  170.98    8.22
   6  -2 -22  164.51    9.41
   6   2 -21   48.70    4.65
   6  -2 -21   42.06    5.75
   6  -2 -21   43.42    4.38
   6   2 -20  101.67    6.25
   6  -2 -20  101.14    7.34
   6  -2 -19   51.19    5.71
  -6  -2  19   49.02    3.41
   6   2 -19   52.52    4.75
   6   2 -18  301.43   13.32
   6  -2 -18  290.40   12.99
  -6  -2  18  309.64   12.29
   6  -2 -17   66.69    5.15
  -6  -2  17   79.20    4.34
   6  -2 -16    9.46    3.39
  -6   2  16   13.29    2.63
  -6  -2  16   12.49    2.30
   6  -2 -15  155.28    7.69
  -6   2  15  157.18    7.31
  -6  -2  15  162.05    7.06
   6  -2 -14    1.15    2.72
   6   2 -14    6.65    2.22
  -6   2  14    5.66    2.47
  -6  -2  14    6.12    2.10
   6  -2 -13  434.54   17.82
   6   2 -13  462.75   17.71
  -6  -2  13  461.06   17.59
  -6   2  13  456.85   17.79
   6  -2 -12  104.69    5.48
   6   2 -12  112.76    5.27
  -6  -2  12  105.58    5.17
  -6   2  12  114.79    5.42
   6  -2 -11   95.82    5.02
  -6  -2  11   99.07    4.69
   6   2 -11   95.16    4.72
  -6   2  11   98.36    4.87
   6  -2 -10  137.64    6.24
   6   2 -10  139.61    6.03
  -6  -2  10  134.63    5.97
  -6   2  10  136.76    6.14
  -6   2  10  133.79    5.70
   6  -2  -9  245.02   10.24
   6   2  -9  256.66   10.12
  -6  -2   9  251.53   10.08
  -6  -2   9  255.57    9.99
  -6   2   9  254.06    9.89
   6  -2  -8  132.61    5.93
   6  -2  -8  135.38    6.17
   6   2  -8  142.23    6.00
  -6  -2   8  147.98    6.06
  -6   2   8  140.18    5.72
  -6  -2   8  143.21    5.84
   6  -2  -7   93.05    4.26
  -6   2   7   92.18    4.25
   6   2  -7   93.98    4.32
  -6   2   7   87.91    4.34
  -6  -2   7   95.86    4.36
  -6   2   7   91.89    3.95
  -6  -2   7   99.20    4.10
  -6  -2   7   93.94    4.23
   6  -2  -6  118.82    5.05
  -6   2   6  118.39    5.11
  -6   2   6  113.50    5.03
  -6   2   6  113.14    4.65
  -6  -2   6  113.90    4.96
   6   2  -6  120.58    5.11
  -6  -2   6  114.31    4.80
  -6  -2   5  583.02   20.58
  -6   2   5  561.76   20.81
   6  -2  -5  529.95   20.79
  -6  -2   5  545.15   20.76
  -6   2   5  555.06   20.80
  -6   2   5  533.14   20.39
  -6  -2   5  560.68   20.70
   6   2  -5  556.80   20.85
   6  -2  -5  548.66   20.79
  -6  -2   4  122.86    4.75
   6  -2  -4  118.23    5.14
  -6   2   4  112.60    5.00
  -6   2   4  111.16    4.52
   6   2  -4  118.47    5.03
  -6  -2   4  117.75    5.04
  -6   2   4  119.94    5.03
  -6  -2   4  118.56    4.93
  -6   2   3   15.66    1.50
   6  -2  -3   15.17    1.47
  -6  -2   3   16.59    1.07
  -6  -2   3   14.32    1.50
  -6   2   3   14.54    1.51
   6  -2  -3   16.84    1.77
   6   2  -3   15.59    1.38
  -6   2   3   15.35    1.48
  -6  -2   3   14.85    1.47
  -6  -2   3   15.52    1.46
   6   2  -2  175.94    6.95
  -6  -2   2  168.42    6.74
   6  -2  -2  179.74    7.03
  -6   2   2  172.16    7.00
  -6  -2   2  173.18    6.63
  -6  -2   2  167.13    6.95
  -6   2   2  170.74    6.97
  -6  -2   2  172.36    6.96
  -6  -2   2  172.25    6.94
  -6   2   2  173.05    6.92
  -6   2   2  169.54    6.93
  -6  -2   2  170.65    6.91
   6  -2  -2  167.40    6.96
  -6  -2   1  597.14   21.64
  -6  -2   1  564.45   21.63
  -6   2   1  581.52   21.61
  -6  -2   1  502.32   21.41
  -6   2   1  581.43   21.70
  -6  -2   1  597.57   21.32
  -6  -2   1  592.14   21.67
  -6   2   1  594.70   21.67
   6  -2  -1  582.99   21.68
   6   2  -1  598.46   21.66
  -6   2   1  582.05   21.61
  -6  -2   1  582.05   21.64
  -6  -2   0  135.61    5.74
   6   2   0  142.14    5.65
  -6   2   0  142.39    5.79
  -6  -2   0  123.00    5.42
  -6  -2   0  141.46    5.72
  -6   2   0  135.83    5.73
  -6  -2   0  138.12    5.30
  -6  -2   0  138.56    5.68
  -6   2   0  140.41    5.64
  -6   2   0  142.05    5.70
   6  -2   0  139.67    5.73
  -6  -2   0  139.38    5.74
  -6   2  -1  328.75   12.68
  -6  -2  -1  336.19   12.62
  -6  -2  -1  348.66   12.63
  -6   2  -1  341.05   12.70
  -6  -2  -1  332.66   12.70
   6   2   1  347.26   12.57
  -6  -2  -1  320.07   12.20
  -6  -2  -1  305.71   12.29
  -6   2  -1  333.53   12.60
   6  -2   1  326.06   12.64
  -6  -2  -1  335.73   12.69
  -6   2  -2   58.12    2.95
  -6  -2  -2   58.29    2.85
  -6  -2  -2   61.22    2.87
  -6   2  -2   62.45    3.05
  -6  -2  -2   55.41    3.00
  -6  -2  -2   58.81    3.07
   6   2   2   60.16    2.72
   6  -2   2   55.02    2.87
  -6   2  -2   58.61    2.90
  -6   2  -3   35.95    2.20
   6   2   3   35.52    1.85
  -6  -2  -3   35.48    2.06
  -6  -2  -3   35.09    2.33
  -6   2  -3   35.77    2.24
  -6  -2  -3   34.94    2.29
  -6  -2  -3   36.85    2.09
   6  -2   3   35.12    2.09
  -6   2  -3   39.75    2.18
  -6   2  -4  447.05   16.81
  -6  -2  -4  451.05   16.67
  -6  -2  -4  440.73   16.90
  -6   2  -4  424.64   16.80
  -6  -2  -4  439.53   16.66
   6  -2   4  441.48   16.73
  -6   2  -4  447.14   16.71
  -6  -2  -4  440.88   16.90
  -6   2  -5    1.68    1.26
   6  -2   5    3.05    0.99
  -6   2  -5    3.09    1.17
  -6   2  -5    2.95    1.39
  -6  -2  -5    1.11    1.53
  -6   2  -6    3.13    1.29
   6  -2   6    1.61    0.93
  -6   2  -6    4.37    1.30
  -6   2  -6    3.26    1.16
  -6   2  -6    2.00    1.53
  -6  -2  -6    3.16    1.87
  -6  -2  -7   57.48    3.53
  -6   2  -7   61.21    3.40
  -6   2  -7   68.81    3.29
  -6   2  -7   60.96    3.18
  -6   2  -8    4.93    1.38
  -6   2  -8    6.20    1.47
  -6  -2  -8    5.99    2.10
  -6   2  -8    3.32    1.83
  -6  -2  -8    5.16    2.18
  -6   2  -9    3.96    1.59
  -6  -2  -9    6.66    2.17
  -6   2  -9    1.40    1.90
  -6  -2  -9    4.73    2.24
  -6   2 -10    1.40    1.56
  -6  -2 -10    4.78    2.37
  -6   2 -10    1.41    2.08
  -6  -2 -10    3.24    2.36
  -6   2 -11   97.88    4.99
  -6  -2 -11   95.82    5.27
  -6   2 -11   94.05    4.52
  -6  -2 -11  101.39    5.20
  -6   2 -12    2.83    1.88
  -6  -2 -12    1.58    2.71
  -6   2 -12    0.43    2.46
  -6  -2 -12    3.60    2.94
  -6   2 -13  402.36   15.13
  -6   2 -13  386.08   14.76
  -6  -2 -13  391.10   15.31
  -6   2 -14  274.73   11.70
  -6   2 -14  287.94   11.28
  -6  -2 -14  277.28   11.90
  -6   2 -15    8.10    1.97
  -6  -2 -15   10.24    3.25
  -6   2 -15    8.99    2.87
  -6   2 -16  589.65   23.21
  -6   2 -16  602.71   22.75
  -6  -2 -16  609.67   23.46
  -6   2 -17  336.80   13.40
  -6  -2 -17  312.63   13.59
  -6  -2 -18   17.98    3.50
  -6   2 -18   23.57    3.41
  -6  -2 -19   29.92    3.64
  -6   2 -19   32.46    3.41
  -6   2 -20  201.88    8.76
  -6  -2 -20  199.01    8.89
  -6   2 -21   73.99    4.23
  -6  -2 -21   62.75    5.07
  -6  -2 -21   71.66    4.38
  -6   2 -22   86.75    4.45
  -6  -2 -22   89.62    5.42
  -6  -2 -22   84.50    4.57
  -6   2 -23   44.99    2.76
  -6  -2 -23   38.97    3.64
  -6  -2 -23   39.58    2.78
  -6   2 -24  303.07   11.61
  -6  -2 -24  276.48   11.60
  -6  -2 -25   27.83    2.44
  -6  -2 -26  202.47    8.02
   6  -3 -29   25.22    1.87
   6  -3 -28   49.04    3.27
   6  -3 -27   18.33    2.16
   6  -3 -27   21.57    3.05
   6  -3 -26  253.18   10.28
   6  -3 -26  208.06    9.67
   6  -3 -25    1.42    3.97
   6  -3 -25    2.75    3.06
   6  -3 -24  483.10   19.03
   6  -3 -24  499.21   20.09
   6  -3 -23   13.44    4.89
   6  -3 -23   19.57    3.26
   6  -3 -22  176.36    8.40
   6   3 -22  175.76    7.98
   6   3 -21   11.66    2.90
   6  -3 -21   12.17    3.89
   6   3 -20   29.43    3.52
  -6  -3  19   90.60    4.67
   6   3 -19   92.73    5.44
  -6  -3  18   59.48    3.65
   6   3 -18   53.59    4.36
   6   3 -17  203.41    9.02
  -6  -3  17  191.90    8.32
   6  -3 -17  184.85    9.25
   6  -3 -16   62.68    5.11
  -6  -3  16   67.44    3.92
  -6  -3  15  322.61   12.69
   6  -3 -15  304.70   13.29
  -6   3  14    6.17    2.65
   6  -3 -14    7.60    3.27
  -6  -3  14    6.36    2.08
   6  -3 -13  107.95    5.88
  -6  -3  13  116.09    5.37
  -6   3  13  114.89    5.80
  -6   3  12   41.71    3.28
   6  -3 -12   37.88    3.53
  -6  -3  12   44.05    3.04
   6  -3 -11  405.54   15.84
   6   3 -11  401.86   15.58
  -6   3  11  396.81   15.79
  -6  -3  11  401.61   15.60
   6  -3 -10  114.06    5.53
   6   3 -10  113.22    5.15
  -6  -3  10  109.08    5.17
   6   3  -9  171.67    7.27
  -6  -3   9  177.17    7.35
   6   3  -8    2.46    1.50
  -6  -3   8    0.61    0.85
  -6   3   8    1.15    1.68
  -6  -3   8    1.68    1.54
  -6  -3   7  805.72   29.12
   6  -3  -7  753.17   29.31
  -6   3   7  787.11   29.34
  -6  -3   7  789.66   29.24
  -6  -3   7  771.10   29.09
   6  -3  -6  744.98   27.05
  -6  -3   6  727.94   26.81
  -6   3   6  703.36   26.93
  -6   3   6  712.03   27.03
   6   3  -6  738.35   27.06
  -6  -3   6  711.75   26.80
   6  -3  -6  705.57   26.94
   6  -3  -5  657.10   24.48
  -6   3   5  656.24   24.44
  -6  -3   5  660.84   24.24
  -6   3   5  635.45   24.46
   6   3  -5  655.36   24.49
  -6  -3   5  640.34   24.26
   6  -3  -5  649.66   24.43
  -6   3   4  146.53    6.26
   6  -3  -4  149.13    6.32
  -6   3   4  139.10    6.22
   6  -3  -4  148.51    6.24
  -6  -3   4  149.72    6.26
   6   3  -4  147.39    6.22
  -6  -3   4  152.13    6.00
  -6  -3   4  156.13    6.12
  -6  -3   3  252.85   10.27
   6  -3  -3  274.07   10.52
  -6  -3   3  273.20   10.39
  -6  -3   3  272.75   10.47
   6   3  -3  270.02   10.46
  -6  -3   3  267.72   10.20
  -6   3   3  260.97   10.46
  -6  -3   3  264.36   10.35
  -6  -3   2   73.20    3.39
  -6   3   2   70.76    3.42
  -6  -3   2   66.25    3.24
   6  -3  -2   76.09    3.61
  -6   3   2   75.40    3.53
  -6  -3   2   75.17    3.45
  -6  -3   2   73.68    3.50
   6   3  -2   72.33    3.38
  -6   3   2   75.23    3.49
   6  -3  -2   68.94    3.47
  -6  -3   2   73.98    3.15
   6  -3  -1   74.39    3.57
  -6  -3   1   72.88    3.51
  -6   3   1   72.08    3.53
  -6  -3   1   73.10    3.44
  -6   3   1   71.99    3.45
  -6  -3   1   73.31    3.32
  -6   3   1   74.79    3.47
   6   3  -1   75.21    3.38
  -6   3   1   69.77    3.41
   6  -3  -1   74.70    3.50
  -6  -3   1   71.75    3.42
   6   3   0  503.22   18.28
  -6   3   0  490.81   18.41
   6  -3   0  513.13   18.36
  -6  -3   0  498.48   18.35
  -6   3   0  480.73   18.28
  -6  -3   0  403.39   18.14
  -6  -3   0  483.40   18.30
  -6   3   0  494.06   18.32
  -6  -3   0  493.56   18.32
   6  -3   0  499.27   18.39
  -6   3   0  507.87   18.28
  -6  -3   0  480.65   18.33
  -6  -3  -1   67.74    3.30
  -6   3  -1   62.38    3.22
   6  -3   1   71.34    3.26
  -6   3  -1   61.92    3.08
  -6  -3  -1   62.61    3.10
  -6   3  -1   66.06    3.20
  -6  -3  -1   72.86    3.31
  -6  -3  -1   61.81    3.17
   6   3   1   64.10    2.98
  -6   3  -1   64.45    3.14
  -6   3  -2   46.72    2.68
   6  -3   2   54.51    2.71
   6   3   2   50.10    2.39
  -6  -3  -2   48.95    2.73
  -6   3  -2   49.36    2.57
  -6  -3  -2   48.76    2.54
  -6  -3  -2   47.86    2.63
  -6  -3  -2   47.99    2.78
  -6   3  -2   47.53    2.65
  -6  -3  -3  158.52    6.61
  -6   3  -3  145.29    6.51
  -6  -3  -3  157.18    6.41
  -6   3  -3  158.87    6.52
  -6  -3  -3  158.27    6.49
  -6   3  -3  163.37    6.42
  -6  -3  -3  162.39    6.68
  -6   3  -4  358.96   13.73
  -6  -3  -4  354.35   13.77
  -6   3  -4  355.55   13.64
  -6  -3  -4  353.53   13.58
  -6   3  -4  350.40   13.53
  -6  -3  -4  356.85   13.82
  -6   3  -5  222.03    9.21
  -6   3  -5  234.68    9.21
  -6  -3  -5  227.22    9.09
  -6   3  -5  230.79    9.06
  -6  -3  -5  235.86    9.45
  -6   3  -5  235.15    9.32
  -6  -3  -5  231.84    9.36
  -6   3  -6  343.33   13.22
  -6  -3  -6  329.61   13.05
  -6  -3  -6  339.77   13.38
  -6   3  -6  353.53   13.34
  -6   3  -6  332.24   13.04
  -6  -3  -6  356.47   13.50
  -6  -3  -7  243.13    9.93
  -6   3  -7  241.47    9.77
  -6   3  -7  245.62    9.50
  -6  -3  -7  237.95    9.96
  -6   3  -7  238.44    9.71
  -6   3  -8  635.39   23.75
  -6  -3  -8  628.34   23.97
  -6   3  -8  630.59   23.83
  -6   3  -8  624.36   23.55
  -6   3  -9    6.95    1.50
  -6   3  -9    4.71    1.86
  -6  -3  -9    7.23    2.45
  -6   3  -9    4.62    1.68
  -6   3 -10  784.00   29.55
  -6   3 -10  780.05   29.52
  -6  -3 -10  768.99   29.75
  -6   3 -10  800.20   29.27
  -6   3 -11  100.54    5.17
  -6  -3 -11   98.47    5.65
  -6  -3 -11  108.64    5.59
  -6   3 -11  109.51    4.74
  -6   3 -12   79.84    4.62
  -6  -3 -12   84.76    5.02
  -6   3 -12   83.66    3.99
  -6  -3 -12   85.68    5.13
  -6  -3 -13   79.48    5.06
  -6   3 -13   72.60    4.51
  -6  -3 -13   82.69    4.99
  -6   3 -14   40.84    3.44
  -6  -3 -14   43.84    4.23
  -6  -3 -14   44.51    4.29
  -6   3 -15  138.55    6.59
  -6  -3 -15  139.80    7.31
  -6  -3 -15  139.45    7.30
  -6   3 -16  113.23    5.75
  -6  -3 -16  115.80    6.57
  -6  -3 -16  111.80    6.46
  -6   3 -17  178.18    8.03
  -6  -3 -17  180.83    8.79
  -6  -3 -17  184.89    8.70
  -6   3 -18  258.75   11.11
  -6  -3 -18  263.24   11.67
  -6  -3 -19   29.71    3.94
  -6   3 -19   35.67    3.08
  -6  -3 -19   29.64    4.60
  -6   3 -20  134.88    6.03
  -6  -3 -20  122.27    7.00
  -6  -3 -20  130.60    6.77
  -6  -3 -21   12.44    3.05
  -6   3 -21   18.35    2.24
  -6   3 -22   56.93    3.11
  -6  -3 -22   54.11    3.78
  -6  -3 -23   15.06    2.30
  -6  -3 -24   67.08    3.40
   6  -4 -27    4.90    1.85
   6  -4 -26    3.33    2.48
   6  -4 -25   63.19    3.87
   6  -4 -25   71.02    4.71
   6  -4 -24   72.11    4.52
   6  -4 -23  180.44    8.38
   6  -4 -22  136.74    7.14
   6  -4 -21  467.53   18.28
   6  -4 -21  429.85   18.99
   6  -4 -20   83.83    5.99
   6  -4 -20   94.88    6.83
   6  -4 -19  164.12    9.13
   6  -4 -18  858.40   33.63
  -6  -4  18  865.87   32.48
   6  -4 -17   30.24    4.53
  -6  -4  17   43.68    3.13
   6  -4 -16  237.92   11.18
  -6  -4  16  252.43   10.25
   6  -4 -15   24.16    4.05
  -6  -4  15   28.93    2.84
   6  -4 -14  132.52    7.22
  -6  -4  14  147.26    6.51
   6  -4 -13    5.18    3.25
  -6  -4  13    6.38    2.16
   6  -4 -12  101.04    5.68
  -6  -4  12  104.55    5.08
  -6  -4  11  120.98    5.65
  -6  -4  10   69.93    3.85
  -6   4   9   -0.07    2.19
  -6  -4   9    5.15    1.95
   6  -4  -9    0.47    2.47
   6  -4  -8   46.30    3.37
   6   4  -8   48.33    2.82
  -6   4   8   46.75    3.25
  -6  -4   8   47.33    3.04
  -6  -4   7  138.87    6.03
  -6   4   7  147.21    6.16
   6  -4  -7  132.28    6.17
  -6  -4   7  130.93    5.69
  -6  -4   6    9.08    1.29
   6  -4  -6   10.04    2.17
  -6   4   6    7.03    1.72
  -6  -4   6    9.59    1.85
  -6  -4   6   10.01    1.19
  -6   4   5   28.57    2.39
   6  -4  -5   26.61    2.51
  -6  -4   5   29.62    1.83
  -6  -4   5   31.13    1.89
  -6   4   4   38.45    2.54
  -6  -4   4   33.43    2.06
   6  -4  -4   43.21    2.77
   6   4  -4   37.29    2.24
  -6  -4   4   37.00    2.17
  -6  -4   4   36.57    2.03
  -6  -4   3    2.30    1.18
  -6  -4   3    5.35    1.24
  -6  -4   3    2.43    1.18
  -6  -4   3    1.35    0.83
   6  -4  -3    2.40    1.70
  -6   4   3    3.06    1.43
  -6  -4   3    3.53    1.61
   6   4  -3    3.38    0.97
  -6   4   2  135.09    5.91
   6  -4  -2  141.86    6.00
  -6  -4   2  130.47    5.80
  -6  -4   2  148.38    5.81
  -6  -4   2  145.25    6.00
   6   4  -2  137.42    5.83
  -6  -4   2  138.06    5.79
  -6  -4   1  367.32   13.59
   6  -4  -1  374.50   13.74
  -6   4   1  352.10   13.68
  -6  -4   1  332.15   13.62
  -6  -4   1  359.63   13.72
   6   4  -1  356.02   13.61
  -6  -4   1  343.80   13.59
   6  -4   0   85.32    3.87
  -6  -4   0   82.57    3.75
  -6   4   0   75.06    3.68
  -6  -4   0   76.81    3.70
  -6  -4   0   80.93    3.87
   6   4   0   75.94    3.57
  -6   4   0   82.69    3.69
  -6  -4   0   78.97    3.75
   6  -4   1  721.52   26.06
  -6   4  -1  695.00   25.99
  -6  -4  -1  691.12   26.01
  -6  -4  -1  694.52   26.11
  -6   4  -1  686.50   25.93
  -6  -4  -1  695.96   26.08
   6  -4   2  770.73   27.97
  -6  -4  -2  768.60   28.02
  -6  -4  -2  717.37   27.93
  -6   4  -2  768.15   27.96
  -6  -4  -2  744.11   28.04
  -6   4  -2  754.27   27.88
  -6  -4  -2  730.67   28.07
   6  -4   3  212.33    8.10
  -6   4  -3  194.50    8.09
  -6  -4  -3  198.93    8.19
  -6   4  -3  198.31    8.00
  -6  -4  -3  198.16    8.32
  -6   4  -3  212.87    8.39
  -6  -4  -3  200.59    8.19
   6  -4   4  251.61    9.66
  -6  -4  -4  250.35    9.84
  -6  -4  -4  243.42    9.74
  -6   4  -4  241.87    9.55
  -6   4  -4  246.86    9.70
  -6   4  -4  242.68    9.91
  -6  -4  -4  240.17    9.94
  -6  -4  -5   32.08    2.46
  -6   4  -5   33.46    2.01
  -6  -4  -5   35.78    2.26
  -6   4  -5   33.14    2.49
  -6  -4  -5   30.06    2.75
  -6   4  -5   31.18    2.18
  -6  -4  -6   53.97    2.96
  -6  -4  -6   54.27    3.32
  -6   4  -6   52.44    2.96
  -6   4  -6   55.04    3.28
  -6   4  -6   54.57    2.81
  -6  -4  -6   59.10    3.56
  -6  -4  -7  157.21    7.00
  -6  -4  -7  157.72    6.66
  -6   4  -7  158.10    6.99
  -6   4  -7  164.66    6.71
  -6   4  -7  160.21    6.50
  -6  -4  -7  157.20    7.13
  -6  -4  -8   40.36    3.00
  -6   4  -8   38.68    2.62
  -6   4  -8   35.96    2.71
  -6  -4  -8   38.91    3.17
  -6   4  -9  506.46   20.09
  -6  -4  -9  541.17   20.45
  -6   4  -9  553.97   20.37
  -6  -4  -9  522.30   20.55
  -6  -4 -10    9.33    2.98
  -6   4 -10    9.90    2.05
  -6  -4 -10    8.55    2.55
  -6   4 -10    9.49    2.01
  -6   4 -11   56.62    3.49
  -6   4 -11   56.04    3.43
  -6  -4 -11   61.48    4.13
  -6   4 -12    4.03    2.12
  -6  -4 -12    4.19    3.00
  -6   4 -12    3.55    1.82
  -6  -4 -13  230.93   10.02
  -6   4 -13  230.63    9.59
  -6   4 -14   92.90    4.73
  -6  -4 -14  101.33    5.57
  -6  -4 -15    8.31    3.83
  -6   4 -15    9.19    2.42
  -6  -4 -15    8.30    3.50
  -6  -4 -16   17.26    3.96
  -6   4 -16   16.74    2.53
  -6  -4 -16   18.04    3.74
  -6   4 -17   45.15    3.24
  -6  -4 -17   47.07    4.61
  -6  -4 -17   43.86    4.61
  -6  -4 -18    4.77    3.80
  -6   4 -18    2.95    2.02
  -6  -4 -19    0.79    3.76
  -6   4 -19    5.24    1.92
  -6  -4 -19    2.25    3.77
  -6  -4 -20   17.00    3.43
  -6  -4 -20   22.16    3.56
  -6  -4 -21   33.05    3.49
  -6  -4 -21   33.62    3.73
  -6  -4 -22   12.66    2.69
  -6  -4 -22   19.69    2.85
  -6  -4 -23   14.91    2.31
  -6  -4 -23   12.89    2.56
  -6  -4 -24   49.90    2.99
  -6  -4 -24   43.56    2.68
  -6  -4 -25    8.34    1.48
   6  -5 -28    4.44    1.26
   6  -5 -27   85.36    4.04
   6  -5 -27   70.10    3.82
   6  -5 -26    1.80    2.36
   6  -5 -26    1.39    2.27
   6  -5 -26    1.57    1.42
   6  -5 -25   69.18    3.98
   6  -5 -25   79.67    4.72
   6  -5 -25   71.79    4.80
   6  -5 -24   -1.31    3.32
   6  -5 -24   -0.41    2.53
   6  -5 -23   82.33    5.14
   6  -5 -23   82.28    5.69
   6  -5 -22   28.77    4.64
   6  -5 -22   35.59    4.08
   6  -5 -21   75.43    5.55
   6  -5 -21   95.13    6.42
   6  -5 -20   69.35    5.53
   6  -5 -20   84.19    6.17
   6  -5 -19   42.27    5.27
   6  -5 -19   43.38    4.85
   6  -5 -18  105.18    6.98
   6  -5 -17   19.34    4.16
  -6  -5  17   11.32    2.26
   6  -5 -16   42.26    5.10
  -6  -5  16   48.15    3.36
   6  -5 -15   -0.10    3.96
  -6  -5  15    1.22    2.11
   6  -5 -14  172.51    8.71
  -6  -5  14  185.09    7.87
  -6  -5  13  134.26    6.30
  -6  -5  12  285.96   11.60
   6  -5 -11    2.79    3.11
  -6  -5  11    5.05    2.21
  -6  -5  10 1110.24   41.00
   6  -5 -10 1088.05   41.26
   6   5  -9    5.47    2.23
   6  -5  -9    4.22    2.75
  -6  -5   9    7.82    2.09
   6   5  -8 1094.18   41.43
   6  -5  -8 1126.54   41.57
  -6  -5   8 1117.78   41.40
   6   5  -7  711.77   26.99
   6  -5  -7  718.45   27.10
  -6  -5   7  715.37   26.98
   6   5  -6  603.72   23.25
   6  -5  -6  626.53   23.42
  -6  -5   6  612.24   23.28
  -6  -5   5  471.86   19.06
   6  -5  -5  529.55   19.22
   6  -5  -4  609.97   22.36
  -6  -5   4  574.14   21.97
  -6  -5   3   99.85    4.74
  -6  -5   3  107.21    4.62
   6  -5  -2  471.04   16.99
  -6  -5   2  439.99   16.96
  -6  -5   2  407.81   16.84
  -6  -5   2  448.05   16.70
   6  -5  -1  111.94    4.92
  -6  -5   1  105.72    4.94
  -6  -5   1  100.30    4.63
   6  -5   0  145.26    6.11
  -6  -5   0  141.89    5.91
  -6  -5   0  140.50    6.21
  -6  -5   0  139.42    6.00
  -6  -5  -1    6.53    1.40
  -6   5  -1    6.02    1.94
  -6  -5  -1    6.03    1.56
   6  -5   1    7.86    1.70
  -6  -5  -1    5.19    1.78
   6  -5   2  817.87   29.34
  -6  -5  -2  782.92   29.28
  -6  -5  -2  761.01   29.44
  -6   5  -2  805.30   29.61
  -6  -5  -2  764.86   29.42
  -6   5  -3   74.34    3.50
  -6  -5  -3   76.20    3.64
  -6  -5  -3   71.66    3.75
  -6   5  -3   69.15    3.37
  -6   5  -3   73.64    3.98
  -6  -5  -3   71.93    3.86
  -6   5  -4  158.14    6.40
  -6  -5  -4  161.52    6.58
  -6  -5  -4  148.62    6.63
  -6   5  -4  156.76    6.83
  -6  -5  -4  144.49    6.76
  -6   5  -5  407.84   15.52
  -6  -5  -5  428.44   15.76
  -6  -5  -5  402.49   15.73
  -6   5  -5  391.24   15.89
  -6  -5  -5  401.60   15.90
  -6   5  -6  408.33   16.25
  -6  -5  -6  446.00   16.56
  -6  -5  -6  432.44   16.47
  -6   5  -6  438.65   16.71
  -6  -5  -6  418.65   16.69
  -6  -5  -7  247.71    9.98
  -6  -5  -7  245.02    9.81
  -6   5  -7  243.12   10.10
  -6  -5  -7  240.73   10.18
  -6   5  -7  238.82    9.62
  -6  -5  -8    4.63    2.54
  -6   5  -8    3.17    1.59
  -6  -5  -8    0.93    2.15
  -6  -5  -8    1.42    1.53
  -6   5  -8    3.06    2.03
  -6   5  -9  135.62    5.87
  -6  -5  -9  136.98    6.37
  -6  -5  -9  131.65    5.88
  -6   5  -9  136.14    6.34
  -6  -5  -9  139.67    6.68
  -6  -5 -10   22.48    3.35
  -6   5 -10   24.46    2.07
  -6  -5 -10   17.51    2.82
  -6   5 -10   21.73    2.62
  -6   5 -11  340.28   13.54
  -6   5 -11  333.75   13.13
  -6  -5 -11  333.39   13.67
  -6  -5 -11  343.39   13.95
  -6   5 -12   64.57    3.57
  -6  -5 -12   65.34    4.44
  -6   5 -12   63.22    3.88
  -6  -5 -12   72.90    4.92
  -6  -5 -13   41.58    4.40
  -6   5 -13   42.03    3.07
  -6   5 -13   43.77    2.83
  -6  -5 -13   35.81    3.78
  -6  -5 -14   54.70    4.35
  -6  -5 -15  314.45   13.00
  -6  -5 -16   15.74    3.71
  -6  -5 -17  117.74    6.39
  -6  -5 -18    0.45    3.88
  -6  -5 -18   -4.89    3.34
  -6  -5 -19   69.17    4.68
  -6  -5 -19   63.78    5.06
  -6  -5 -20   30.09    3.79
  -6  -5 -20   35.12    3.50
  -6  -5 -21   18.48    3.23
  -6  -5 -21   21.87    3.06
  -6  -5 -22   17.24    2.75
  -6  -5 -22   17.91    2.59
  -6  -5 -23    8.62    2.10
  -6  -5 -23   11.07    1.99
  -6  -5 -24    2.77    1.34
  -6  -5 -24    5.05    1.39
   6  -6 -27    2.69    1.23
   6  -6 -27    3.31    1.22
   6  -6 -26    7.46    1.93
   6  -6 -26    7.12    1.34
   6  -6 -26    4.62    1.82
   6  -6 -25    1.85    2.23
   6  -6 -25    2.76    2.55
   6  -6 -25    5.38    1.94
   6  -6 -24    0.93    2.69
   6  -6 -24    2.90    3.05
   6  -6 -24    2.50    2.33
   6  -6 -23    5.78    3.11
   6  -6 -23    3.70    2.84
   6  -6 -22   49.00    4.50
   6  -6 -22   52.09    4.13
   6  -6 -21   15.82    3.69
   6  -6 -21   10.06    3.63
   6  -6 -20   29.01    4.45
   6  -6 -20   26.18    4.32
   6  -6 -19    8.08    3.85
   6  -6 -19    5.46    3.88
   6  -6 -18   96.09    6.56
   6  -6 -18  106.31    6.58
   6  -6 -17    8.20    3.89
  -6  -6  17    4.13    2.00
   6  -6 -16   43.57    4.65
  -6  -6  16   47.82    3.34
  -6  -6  15   21.89    2.70
  -6  -6  14  208.11    8.84
   6   6 -13   58.10    4.22
  -6  -6  13   60.89    3.79
  -6   6  13   58.18    3.28
   6  -6 -12  102.71    6.31
  -6  -6  12  107.29    5.35
  -6   6  12  106.53    4.95
  -6   6  11    2.93    1.77
   6  -6 -11    3.52    3.60
  -6  -6  11    3.78    2.29
  -6  -6  10   41.22    3.22
   6   6 -10   33.90    3.32
   6  -6 -10   39.42    4.02
  -6   6  10   37.17    2.77
   6   6  -9  170.91    7.68
   6  -6  -9  169.43    7.99
  -6  -6   9  175.76    7.65
  -6   6   9  172.37    7.38
   6   6  -8  336.10   13.53
   6  -6  -8  333.96   13.78
  -6  -6   8  340.46   13.53
  -6   6   8  343.18   13.37
  -6   6   7    1.66    1.80
   6   6  -7    2.06    1.94
   6  -6  -7    0.37    2.66
  -6  -6   7    3.61    2.26
   6   6  -6   47.33    3.26
   6  -6  -6   48.00    3.61
  -6  -6   6   50.40    3.48
  -6   6   6   57.30    3.30
   6   6  -5  122.76    5.79
   6  -6  -5  131.59    6.08
  -6  -6   5  126.11    5.98
  -6   6   5  133.36    5.92
   6   6  -4  109.92    5.18
   6  -6  -4  118.67    5.56
  -6   6   4  109.82    5.29
  -6   6   3    1.33    2.01
   6  -6  -3    1.40    2.11
   6  -6  -2 1467.27   52.86
  -6  -6   2 1402.02   52.91
  -6   6   2 1416.21   52.95
  -6  -6   1    9.83    1.46
  -6   6   1    5.29    2.02
   6  -6  -1    8.70    1.99
   6  -6   0  205.01    8.58
  -6  -6   0  212.78    8.82
  -6  -6   0  212.54    8.47
   6  -6   1   61.19    3.24
  -6  -6  -1   63.89    3.65
  -6  -6  -1   57.79    3.22
  -6  -6  -2   30.74    2.66
  -6   6  -2   31.54    2.79
  -6  -6  -2   30.24    2.46
  -6   6  -3    0.80    2.00
  -6  -6  -3    1.54    1.81
  -6  -6  -3    4.31    2.01
  -6   6  -4   10.27    2.34
  -6  -6  -4    9.86    2.27
  -6  -6  -4   12.92    1.73
  -6  -6  -4   15.25    2.20
  -6  -6  -5  165.04    6.92
  -6  -6  -5  168.89    7.18
  -6   6  -5  165.41    7.31
  -6  -6  -5  152.53    7.21
  -6  -6  -6    2.84    2.22
  -6  -6  -6    1.71    1.80
  -6  -6  -6    2.85    1.93
  -6   6  -6    2.14    2.44
  -6  -6  -7    5.36    2.48
  -6  -6  -7    5.72    2.00
  -6  -6  -7    2.97    1.89
  -6   6  -7    3.64    2.43
  -6  -6  -8    7.93    2.62
  -6  -6  -8   -0.06    1.95
  -6  -6  -8    4.17    2.03
  -6   6  -8    1.81    2.47
  -6   6  -9  132.65    6.58
  -6  -6  -9  138.65    6.23
  -6  -6  -9  141.20    6.36
  -6  -6  -9  143.80    6.90
  -6  -6 -10   21.61    3.47
  -6  -6 -10   19.95    2.74
  -6  -6 -10   19.68    2.28
  -6   6 -10   15.78    2.67
  -6   6 -11  186.29    8.21
  -6  -6 -11  180.58    8.19
  -6  -6 -11  191.40    8.70
  -6  -6 -12   18.53    3.76
  -6  -6 -12   10.89    2.87
  -6   6 -12   16.22    2.64
  -6  -6 -13   37.88    4.30
  -6   6 -13   32.08    3.03
  -6  -6 -13   30.44    3.47
  -6  -6 -14    8.45    3.87
  -6   6 -14    4.43    2.18
  -6  -6 -14    5.57    2.99
  -6  -6 -15   90.34    5.23
  -6  -6 -15   91.92    6.11
  -6  -6 -16   20.61    3.96
  -6  -6 -16   11.85    3.15
  -6  -6 -17  130.07    6.39
  -6  -6 -18  153.84    7.13
  -6  -6 -19   91.51    5.03
  -6  -6 -20   36.53    3.04
  -6  -6 -21   39.14    2.81
  -6  -6 -21   38.94    3.40
  -6  -6 -22   78.59    4.16
  -6  -6 -22   75.81    3.77
  -6  -6 -23   93.19    4.15
  -6  -6 -23   99.03    4.40
  -6  -6 -24   71.96    3.22
   6  -7 -26  113.05    4.82
   6  -7 -26  119.79    5.05
   6  -7 -25   35.40    2.29
   6  -7 -25   34.95    2.38
   6  -7 -25   28.93    2.65
   6  -7 -24  282.61   11.03
   6  -7 -24  269.68   11.10
   6  -7 -23   78.18    4.32
   6  -7 -23   66.24    4.21
   6  -7 -22  166.30    7.46
   6  -7 -22  160.70    7.53
   6  -7 -21  186.28    8.38
   6  -7 -21  177.17    8.38
   6  -7 -20  106.19    6.19
   6  -7 -20   97.78    5.83
   6  -7 -19   56.28    5.32
   6  -7 -19   55.86    4.44
   6  -7 -18   25.88    3.78
   6  -7 -17   11.00    3.41
  -6  -7  16  255.48   10.55
   6  -7 -16  264.47   11.38
   6  -7 -15   81.94    5.46
  -6  -7  15   86.13    4.56
   6  -7 -14  329.84   13.94
   6   7 -14  334.88   13.80
  -6  -7  14  333.69   13.33
  -6  -7  13    5.50    2.42
  -6  -7  12  233.28    9.46
   6  -7 -12  212.18   10.19
  -6   7  12  216.25    9.03
  -6  -7  11   50.64    3.62
   6   7 -11   40.36    3.73
   6  -7 -11   47.00    4.62
  -6   7  11   41.98    2.94
  -6   7  10    1.60    1.80
   6   7 -10    4.87    2.81
   6  -7 -10    1.80    3.41
  -6  -7  10    0.68    2.51
  -6  -7   9  143.98    6.83
   6   7  -9  145.33    6.83
   6  -7  -9  150.97    7.37
  -6   7   9  143.72    6.45
  -6   7   8    5.26    2.08
   6   7  -8    2.84    2.42
   6  -7  -8    0.42    3.03
  -6  -7   8    5.00    2.42
   6   7  -7  349.39   14.49
   6  -7  -7  380.04   14.82
  -6  -7   7  369.11   14.59
  -6   7   7  364.87   14.38
  -6   7   6    6.26    2.08
   6   7  -6    7.40    2.33
   6  -7  -6    6.87    2.81
  -6  -7   6    6.44    2.64
   6   7  -5  267.42   11.27
   6  -7  -5  284.70   11.52
  -6   7   5  282.10   11.34
  -6  -7   5  281.12   11.46
   6   7  -4  109.15    5.45
   6  -7  -4  124.58    5.84
  -6  -7   4  122.53    5.84
  -6   7   4  111.94    5.58
   6   7  -3  334.83   13.52
   6  -7  -3  344.15   13.67
  -6   7   3  350.53   13.70
   6  -7  -2   89.40    4.57
  -6   7   2   88.76    4.73
   6  -7  -1   66.15    3.82
  -6   7   1   66.27    4.15
  -6  -7   1   76.04    4.34
  -6  -7   0  555.76   21.64
  -6   7   0  569.74   21.70
  -6  -7  -1   14.62    1.76
  -6  -7  -1   16.06    2.78
  -6  -7  -2  154.53    7.03
  -6  -7  -2  153.31    6.58
  -6  -7  -3    1.78    1.83
  -6  -7  -3    4.85    2.47
  -6   7  -3    3.01    2.52
  -6   7  -4 1311.99   49.07
  -6  -7  -4 1284.82   48.96
  -6  -7  -4 1347.97   48.82
  -6  -7  -5    6.62    2.23
  -6  -7  -5   10.72    2.62
  -6  -7  -6   20.93    2.79
  -6  -7  -6   27.09    2.84
  -6   7  -6   20.11    3.16
  -6  -7  -7   19.94    2.96
  -6  -7  -7   21.25    2.83
  -6   7  -7   24.86    3.08
  -6  -7  -8   91.36    4.58
  -6   7  -8   89.70    5.16
  -6  -7  -8   94.48    4.89
  -6  -7  -8   92.34    5.17
  -6  -7  -9  226.61    9.16
  -6   7  -9  222.79    9.55
  -6  -7  -9  210.35    9.21
  -6  -7  -9  221.92    9.58
  -6  -7 -10  581.91   21.88
  -6  -7 -10  553.05   21.86
  -6  -7 -10  598.01   22.31
  -6   7 -10  560.86   22.18
  -6   7 -11  321.00   13.31
  -6  -7 -11  312.99   12.95
  -6  -7 -11  332.26   13.05
  -6  -7 -11  348.08   13.56
  -6   7 -12  128.48    6.47
  -6  -7 -12  134.50    6.28
  -6  -7 -12  146.51    6.97
  -6   7 -13  282.96   11.46
  -6  -7 -13  261.75   11.19
  -6  -7 -13  289.73   11.88
  -6   7 -14  182.53    8.22
  -6  -7 -14  203.31    8.92
  -6  -7 -14  186.56    8.21
  -6  -7 -15  341.05   13.50
  -6   7 -15  313.91   13.38
  -6  -7 -16  129.17    5.99
  -6  -7 -16  122.02    6.76
  -6  -7 -17   41.16    4.16
  -6  -7 -17   39.20    3.13
  -6  -7 -18  112.69    5.37
  -6  -7 -18  116.16    6.07
  -6  -7 -19  120.42    5.50
  -6  -7 -19  126.19    6.17
  -6  -7 -20    7.78    2.53
  -6  -7 -20    6.85    1.75
  -6  -7 -21    1.91    1.28
  -6  -7 -22    6.64    1.11
  -6  -7 -23    3.55    1.18
   6  -8 -25   91.42    3.91
   6  -8 -24    1.04    1.83
   6  -8 -24    0.99    1.53
   6  -8 -24    2.28    1.11
   6  -8 -23  254.87    9.68
   6  -8 -23  247.91    9.93
   6  -8 -22    1.70    1.96
   6  -8 -22    2.14    2.62
   6  -8 -22    4.52    2.45
   6  -8 -21  182.48    7.90
   6  -8 -21  170.59    7.68
   6  -8 -20   19.04    2.83
   6  -8 -19  471.10   18.52
   6  -8 -18  108.41    5.83
   6  -8 -17   40.23    3.70
   6  -8 -17   41.13    4.64
   6  -8 -16   83.19    5.96
   6  -8 -16   79.98    5.10
  -6  -8  15   21.05    2.37
   6  -8 -15   23.62    3.26
   6  -8 -14   35.35    3.62
  -6  -8  14   36.66    3.02
   6  -8 -14   36.36    4.88
   6  -8 -13  107.10    5.76
  -6  -8  13  104.54    5.30
   6  -8 -12   15.25    2.88
  -6  -8  12   15.89    2.72
   6   8 -12   15.34    3.46
  -6  -8  11    6.03    2.67
   6   8 -11    3.02    3.30
  -6   8  11    5.15    1.82
   6   8 -10    0.17    3.15
  -6  -8  10   -0.78    2.72
  -6   8  10    3.76    1.96
   6   8  -9   37.27    3.60
   6  -8  -9   37.66    4.32
  -6  -8   9   33.64    3.39
  -6   8   9   34.08    2.84
   6   8  -8   75.70    4.51
   6  -8  -8   62.51    4.82
  -6  -8   8   65.84    4.28
  -6   8   8   68.52    3.92
  -6   8   7    6.49    2.22
   6   8  -7    2.68    2.49
   6  -8  -7    0.84    3.03
  -6  -8   7    2.79    2.90
  -6   8   6   -0.44    2.14
   6   8  -6    4.29    2.53
   6  -8  -6   -1.68    2.78
  -6  -8   6    3.67    2.68
   6   8  -5   61.57    3.93
   6  -8  -5   61.94    4.15
  -6  -8   5   65.28    4.49
  -6   8   5   65.17    4.07
  -6   8   4    0.38    2.41
   6   8  -4   -0.07    2.06
   6  -8  -4    1.17    2.53
  -6  -8   4    2.17    3.07
   6   8  -3   69.12    3.85
   6  -8  -3   62.23    4.00
  -6  -8   3   62.19    4.38
  -6   8   3   66.27    4.13
   6  -8  -2    2.10    2.07
  -6   8   2    1.18    2.62
  -6   8   1  134.35    6.56
  -6  -8   0   81.94    4.98
  -6   8   0   74.66    4.75
  -6  -8  -1   19.02    3.30
  -6   8  -1   20.34    3.12
  -6  -8  -2    4.07    2.73
  -6  -8  -3   15.46    2.11
  -6  -8  -3   17.78    3.17
  -6  -8  -4   12.92    2.21
  -6  -8  -4   17.80    2.94
  -6   8  -4   13.72    3.05
  -6   8  -5  325.99   13.19
  -6  -8  -5  320.57   13.08
  -6  -8  -5  313.43   12.72
  -6   8  -6  385.52   15.36
  -6  -8  -6  373.16   15.17
  -6  -8  -6  379.68   15.00
  -6   8  -7   61.22    4.27
  -6  -8  -7   56.43    3.97
  -6  -8  -7   47.73    3.77
  -6   8  -8   45.01    3.79
  -6  -8  -8   46.00    3.54
  -6  -8  -8   44.43    3.69
  -6  -8  -9  426.55   16.68
  -6   8  -9  422.70   16.90
  -6  -8  -9  420.91   16.77
  -6  -8 -10   -4.14    3.10
  -6   8 -10    2.78    2.83
  -6  -8 -10    3.72    2.33
  -6   8 -11   48.64    3.94
  -6  -8 -11   53.35    3.53
  -6  -8 -11   54.00    4.18
  -6  -8 -12   19.11    3.37
  -6   8 -12   24.61    3.06
  -6  -8 -12   18.68    2.37
  -6  -8 -13   78.14    4.05
  -6   8 -13   83.61    4.65
  -6  -8 -13   77.28    5.04
  -6   8 -14   73.69    4.27
  -6  -8 -14   77.97    3.95
  -6  -8 -14   79.25    5.00
  -6  -8 -15    9.40    3.12
  -6   8 -15    7.50    2.19
  -6  -8 -15   12.88    2.09
  -6  -8 -16    8.55    2.95
  -6  -8 -16    9.51    1.89
  -6  -8 -17   -3.19    2.80
  -6  -8 -17    1.52    1.59
  -6  -8 -18    2.96    2.40
  -6  -8 -18    4.89    1.42
  -6  -8 -19   43.81    3.11
  -6  -8 -20    3.44    1.93
  -6  -8 -21    8.03    1.49
  -6  -8 -22    5.98    1.07
   6  -9 -24   28.06    1.63
   6  -9 -24   26.25    1.73
   6  -9 -23    2.44    1.53
   6  -9 -23    3.20    1.39
   6  -9 -22   50.48    2.89
   6  -9 -22   65.04    3.45
   6  -9 -21    9.10    2.53
   6  -9 -20   60.55    4.11
   6  -9 -19    0.68    1.82
   6  -9 -19    4.50    3.05
   6  -9 -18   72.12    4.77
   6  -9 -18   57.94    3.60
   6  -9 -17   21.43    2.49
   6  -9 -17   25.90    3.85
   6  -9 -16   96.61    5.67
   6  -9 -16   75.49    4.41
   6  -9 -15  194.13    9.07
   6  -9 -14  182.48    8.73
  -6  -9  14  181.02    7.74
   6   9 -13   18.45    3.61
   6  -9 -13   22.55    4.18
  -6  -9  13   21.36    2.63
   6   9 -12  177.22    8.20
   6  -9 -12  170.51    8.41
  -6  -9  12  165.67    7.60
   6   9 -11  223.63    9.64
   6  -9 -11  216.07    9.83
  -6  -9  11  211.20    9.26
  -6   9  10  112.11    5.42
   6   9 -10  125.78    6.24
   6  -9 -10  117.62    6.36
  -6  -9  10  119.41    5.99
   6   9  -9  675.31   25.39
  -6  -9   9  677.21   25.27
  -6   9   9  631.95   24.91
   6   9  -8   25.16    3.35
  -6  -9   8   19.04    3.28
  -6   9   8   16.39    2.48
   6   9  -7  488.43   18.80
  -6  -9   7  465.50   18.84
  -6   9   7  479.85   18.54
   6   9  -6   56.62    4.00
  -6  -9   6   60.16    4.40
  -6   9   6   57.28    3.83
   6   9  -5  218.01    9.44
  -6  -9   5  212.62    9.74
  -6   9   5  226.82    9.45
   6   9  -4  250.26   10.38
  -6  -9   4  245.41   10.79
  -6   9   4  249.77   10.44
  -6  -9   3  253.85   10.97
  -6   9   3  254.40   10.67
  -6   9   2  357.83   14.49
  -6   9   1   11.79    2.93
  -6   9   0  162.95    7.66
  -6  -9   0  163.43    7.82
  -6   9  -1  416.66   16.39
  -6  -9  -1  398.75   16.37
  -6   9  -2  161.88    8.05
  -6  -9  -2  177.57    8.08
  -6  -9  -3   71.49    4.93
  -6  -9  -4    6.72    3.41
  -6   9  -5  125.52    6.36
  -6  -9  -5  121.52    6.25
  -6  -9  -5  110.54    5.37
  -6   9  -6   54.39    4.41
  -6  -9  -6   55.78    4.25
  -6  -9  -6   52.49    3.38
  -6   9  -7  203.63    9.27
  -6  -9  -7  208.37    9.18
  -6  -9  -7  207.45    8.73
  -6  -9  -8   21.24    2.62
  -6  -9  -8   21.29    3.17
  -6   9  -8   23.66    3.54
  -6  -9  -9    1.21    2.44
  -6   9  -9    1.43    3.05
  -6  -9  -9    2.90    2.60
  -6  -9 -10    5.06    2.61
  -6   9 -10    3.93    3.02
  -6  -9 -10    9.65    2.51
  -6   9 -11  108.45    5.92
  -6  -9 -11  114.59    5.54
  -6  -9 -11  122.56    5.80
  -6   9 -12   22.07    2.89
  -6  -9 -12   20.61    2.94
  -6  -9 -12   21.87    2.47
  -6  -9 -13   -2.33    2.50
  -6   9 -13   -0.07    2.36
  -6   9 -14   68.31    3.94
  -6  -9 -14   68.03    4.16
  -6  -9 -15   25.13    2.77
  -6   9 -15   28.90    2.51
  -6   9 -16   35.66    2.44
  -6  -9 -16   39.83    3.00
  -6  -9 -17    1.48    1.95
  -6  -9 -18   31.62    2.51
  -6  -9 -19    5.69    1.49
  -6  -9 -20   87.47    3.77
   6 -10 -22   22.82    1.63
   6 -10 -21    6.60    1.48
   6 -10 -21    7.53    1.64
   6 -10 -21    7.64    1.42
   6 -10 -20   13.77    2.03
   6 -10 -20   21.49    2.22
   6 -10 -19  108.38    5.03
   6 -10 -19   97.86    5.11
   6 -10 -18   -0.14    2.18
   6 -10 -18    2.07    2.58
   6 -10 -17  202.05    8.22
   6 -10 -17  168.78    8.11
   6 -10 -16    1.84    3.07
   6 -10 -15   38.24    3.79
   6 -10 -14   12.85    3.24
   6 -10 -13   26.65    3.75
  -6 -10  13   25.10    2.44
   6  10 -12   11.05    3.26
   6 -10 -12    9.42    3.20
  -6 -10  12   10.08    2.28
   6  10 -11    4.62    2.95
   6 -10 -11    7.91    3.11
  -6 -10  11    6.90    2.38
   6  10 -10   63.43    4.61
   6 -10 -10   65.28    4.53
  -6 -10  10   67.25    4.23
   6  10  -9    7.52    2.98
   6 -10  -9    9.13    3.02
  -6 -10   9    7.71    2.71
  -6  10   9    7.81    1.86
   6  10  -8  142.15    6.87
  -6 -10   8  148.47    6.93
   6 -10  -8  142.15    6.82
  -6  10   8  134.64    6.29
   6  10  -7   -0.39    2.74
   6 -10  -7    0.22    2.60
  -6 -10   7   -2.76    3.11
  -6  10   7    1.62    2.09
   6  10  -6    6.05    2.50
   6 -10  -6    4.18    2.47
  -6 -10   6    4.40    3.36
  -6  10   6    3.40    2.32
   6  10  -5    6.72    2.51
  -6 -10   5   13.14    3.39
  -6  10   5    8.48    2.57
  -6  10   4   63.92    4.22
  -6 -10   4   69.58    4.87
  -6 -10   3   14.66    3.67
  -6  10   3   15.63    2.88
  -6 -10   2   24.77    4.04
  -6  10   2   30.49    3.28
  -6  10   1   62.43    4.45
  -6  10   0   21.59    3.39
  -6  10  -1   75.44    5.01
  -6 -10  -1   76.88    5.31
  -6 -10  -2  171.17    8.35
  -6  10  -2  174.49    8.13
  -6 -10  -3   27.38    4.04
  -6  10  -3   27.22    3.89
  -6 -10  -4  162.50    7.85
  -6 -10  -5   89.56    5.49
  -6  10  -6    4.05    3.30
  -6 -10  -6    6.18    3.22
  -6  10  -7    5.65    3.20
  -6 -10  -7    8.58    2.94
  -6  10  -8   76.39    4.79
  -6 -10  -8   77.07    4.51
  -6 -10  -8   69.79    3.78
  -6  10  -9   35.24    3.61
  -6 -10  -9   43.19    3.41
  -6 -10  -9   40.70    2.86
  -6 -10 -10    2.72    1.91
  -6  10 -10    2.26    2.74
  -6 -10 -10    5.98    2.51
  -6 -10 -11    5.10    1.99
  -6  10 -11    4.57    2.57
  -6 -10 -11    4.44    2.21
  -6 -10 -12    7.80    2.07
  -6  10 -12    9.69    2.43
  -6 -10 -12    9.23    1.94
  -6  10 -13   29.45    2.74
  -6 -10 -13   27.90    2.44
  -6 -10 -14   21.31    2.21
  -6  10 -14   25.38    2.27
  -6  10 -15   57.96    3.18
  -6 -10 -15   64.42    3.28
  -6  10 -16   52.28    2.81
  -6 -10 -16   67.61    3.09
  -6 -10 -17    8.00    1.33
  -6 -10 -18   21.70    1.48
   6 -11 -20    0.03    1.08
   6 -11 -20    0.17    0.96
   6 -11 -19   18.58    1.81
   6 -11 -19   16.61    1.78
   6 -11 -18    3.03    1.22
   6 -11 -18    1.53    1.67
   6 -11 -18   -0.11    1.81
   6 -11 -17    7.97    1.64
   6 -11 -17    8.30    2.11
   6 -11 -16    3.59    1.72
   6 -11 -16    4.48    2.17
   6 -11 -15  126.70    5.32
   6 -11 -15   95.49    4.95
   6 -11 -14    4.68    1.87
   6 -11 -14    7.74    2.42
   6 -11 -13   79.13    4.42
   6 -11 -12   60.82    3.81
  -6 -11  12   54.81    3.22
   6 -11 -11   88.71    4.68
  -6 -11  11   82.77    4.32
   6 -11 -10   24.18    2.85
  -6 -11  10   25.20    2.71
   6 -11  -9   25.30    2.74
  -6 -11   9   27.51    3.05
   6 -11  -8   41.39    3.08
  -6  11   8   39.42    2.67
  -6 -11   8   41.98    3.50
  -6 -11   7    0.90    2.86
  -6  11   7    0.06    1.84
  -6  11   6   43.00    3.01
  -6 -11   6   43.49    3.95
  -6  11   5  112.75    5.51
  -6 -11   5  118.72    6.21
  -6  11   4  183.28    8.21
  -6 -11   4  202.76    8.80
  -6  11   3   46.31    3.50
  -6 -11   3   45.52    4.29
  -6  11   2  204.67    9.17
  -6 -11   2  224.32    9.59
  -6 -11   1   18.93    4.03
  -6  11   1   24.85    3.15
  -6  11   0  102.20    5.47
  -6  11  -1   30.00    3.46
  -6  11  -2   56.23    4.26
  -6 -11  -2   58.59    4.62
  -6  11  -3   21.81    3.41
  -6 -11  -3   26.65    3.64
  -6  11  -4    8.65    3.26
  -6 -11  -4   16.32    3.45
  -6 -11  -5  238.18   10.23
  -6 -11  -6   39.36    3.75
  -6  11  -7   67.93    4.59
  -6 -11  -7   76.79    4.50
  -6  11  -8    8.80    2.73
  -6 -11  -8   13.00    2.61
  -6  11  -9  115.33    5.70
  -6 -11  -9  112.18    5.54
  -6 -11 -10    3.62    2.16
  -6  11 -10    1.56    2.41
  -6  11 -11  154.23    6.58
  -6 -11 -11  140.88    6.31
  -6  11 -12   12.87    2.04
  -6 -11 -12   11.64    1.74
  -6  11 -13  122.26    5.38
  -6  11 -14   19.79    1.75
  -6  11 -15  192.37    7.55
   6 -12 -18   14.00    1.33
   6 -12 -17  120.50    5.31
   6 -12 -17  157.93    5.71
   6 -12 -16   38.54    2.18
   6 -12 -15   13.60    1.59
   6 -12 -14    6.24    1.57
   6 -12 -14    6.00    2.26
   6 -12 -13   36.23    2.42
   6 -12 -13   39.46    3.19
   6 -12 -12    1.88    1.58
   6 -12 -12   -2.77    2.59
   6 -12 -11   43.61    2.83
  -6 -12  11   54.50    2.80
  -6 -12  10   37.37    2.61
  -6 -12   9    8.48    2.09
  -6 -12   8    3.22    2.25
  -6 -12   7    5.28    2.52
   6 -12  -7   -3.48    2.87
  -6  12   6    0.89    1.53
  -6 -12   6   -1.33    2.51
   6 -12  -6   -3.74    2.72
  -6 -12   5   57.50    3.93
  -6  12   5   56.67    3.22
   6 -12  -5   51.23    3.78
  -6  12   4   11.01    2.06
  -6 -12   4   10.51    3.08
   6 -12  -4    6.89    2.42
  -6 -12   3   91.93    5.02
  -6  12   3   86.02    4.49
   6 -12  -3   79.82    4.41
  -6  12   2    1.77    2.10
  -6 -12   2    1.61    2.99
  -6  12   1   93.79    4.92
  -6 -12   1  100.72    5.44
  -6  12   0   98.81    5.09
  -6  12  -1  158.23    7.14
  -6  12  -2  138.15    6.50
  -6  12  -3   37.54    3.36
  -6 -12  -3   45.05    3.75
  -6 -12  -4   65.24    4.18
  -6  12  -4   53.83    3.88
  -6  12  -5   63.46    4.09
  -6 -12  -5   69.47    4.30
  -6 -12  -6   12.24    2.69
  -6 -12  -7   36.26    3.11
  -6  12  -8    8.83    2.28
  -6 -12  -8    6.77    2.21
  -6  12  -9   80.83    4.13
  -6 -12  -9   74.72    3.94
  -6  12 -10   28.53    2.41
  -6 -12 -10   27.35    2.21
  -6 -12 -11   38.66    2.34
  -6  12 -11   42.32    2.62
  -6  12 -12   61.69    3.11
  -6  12 -13    2.77    1.06
   6 -13 -15  110.21    4.59
   6 -13 -14    5.63    1.35
   6 -13 -13   59.95    3.14
   6 -13 -12    6.57    1.75
   6 -13 -11  132.62    5.82
   6 -13 -10   12.13    2.04
  -6 -13   9  380.85   14.70
   6 -13  -9  399.84   15.06
  -6 -13   8   19.20    1.97
   6 -13  -8   20.12    2.37
  -6 -13   7  543.57   19.44
   6 -13  -7  479.92   19.47
  -6 -13   6   12.88    2.14
   6 -13  -6   11.02    1.97
  -6  13   5  161.28    6.87
   6 -13  -5  170.62    7.22
  -6  13   4   53.06    2.73
  -6 -13   4   62.05    3.50
  -6  13   3  106.13    4.89
  -6 -13   3  122.50    5.46
  -6  13   2   19.35    1.98
  -6 -13   2   23.43    2.77
  -6  13   1   36.05    2.56
  -6 -13   1   33.92    3.06
  -6  13   0    2.30    1.76
  -6 -13   0    6.96    2.44
  -6  13  -1  142.94    6.22
  -6  13  -2   37.40    2.69
  -6  13  -3   51.88    3.16
  -6 -13  -3   55.51    3.56
  -6  13  -4    1.20    1.83
  -6 -13  -4    0.05    2.23
  -6  13  -5   73.32    3.85
  -6 -13  -5   76.92    3.99
  -6 -13  -6   39.35    2.71
  -6  13  -6   35.91    2.60
  -6 -13  -7   69.21    3.55
  -6 -13  -8   62.20    3.16
  -6 -13  -9    3.78    1.17
  -6  13  -9    5.21    1.37
  -6  13 -10   37.86    2.11
  -6 -13 -10   33.23    1.84
  -6  13 -11    0.40    0.87
  -6 -14   7    7.18    1.02
  -6 -14   6    0.68    1.04
  -6 -14   5    1.73    1.25
  -6 -14   4   -0.85    1.30
  -6 -14   3   41.72    2.54
  -6 -14   2    2.06    1.59
  -6  14   2    0.79    0.78
  -6  14   1  110.24    4.87
  -6 -14   1  141.67    5.36
  -6  14   0   34.25    2.02
  -6 -14   0   43.02    2.51
  -6  14  -1    3.47    1.11
  -6 -14  -1    5.14    1.68
  -6  14  -2    2.00    1.15
  -6  14  -3    7.60    1.16
  -6  14  -4    1.02    1.05
  -6 -14  -4    0.45    1.34
  -6  14  -5   84.28    3.75
  -6 -14  -5   90.42    3.88
  -6  14  -6    1.03    0.95
  -6 -14  -6   -0.13    1.07
  -6 -14  -7   10.30    1.08
  -6  14  -7   12.18    1.11
   7   0 -27   -1.09    1.85
   7   0 -26  235.46    9.97
   7   0 -25   -3.61    3.03
   7   0 -24  396.14   16.39
   7   0 -23   -2.19    4.01
   7   0 -22 1387.15   52.57
   7   0 -21    6.44    4.51
   7   0 -20  652.23   26.27
   7   0 -19    0.67    2.95
  -7   0  19   -2.54    2.55
   7   0 -18  156.15    7.79
  -7   0  18  158.76    7.47
   7   0 -17   -4.45    3.47
  -7   0  17   -0.69    2.54
   7   0 -16 1258.81   48.16
  -7   0  16 1304.70   47.97
   7   0 -15   -0.80    3.07
  -7   0  15    0.25    2.68
  -7   0  14  131.69    6.32
   7   0 -14  122.14    6.45
   7   0 -13    0.32    2.54
  -7   0  13    0.38    2.34
   7   0 -12  209.08    8.98
  -7   0  12  203.99    8.84
   7   0 -11   -0.51    2.50
  -7   0  11    0.07    2.22
   7   0 -10    5.36    2.40
  -7   0  10    4.52    2.09
   7   0  -9   -0.32    2.28
   7   0  -8   27.07    2.66
   7   0  -7    0.35    2.00
  -7   0   7   -0.06    1.69
  -7   0   6   -0.37    1.66
  -7   0   6   -0.72    1.64
   7   0  -6    2.35    1.96
  -7   0   5   -0.15    1.58
   7   0  -5    3.19    1.86
  -7   0   5    0.59    1.44
  -7   0   4  361.87   14.03
  -7   0   4  365.29   14.04
  -7   0   3    1.33    1.31
  -7   0   3    1.55    1.54
  -7   0   3    0.10    1.58
  -7   0   2  317.63   12.56
  -7   0   2  325.53   12.49
  -7   0   1    0.52    1.16
  -7   0   1    0.16    1.60
  -7   0   1    1.91    1.34
  -7   0   0  161.29    6.81
  -7   0   0  167.31    6.75
  -7   0  -1    0.98    1.61
  -7   0  -1    0.36    1.12
  -7   0  -1    0.13    1.17
  -7   0  -2   13.89    1.83
  -7   0  -2   14.16    1.49
  -7   0  -2   12.59    1.45
  -7   0  -3    2.15    1.72
  -7   0  -3    0.68    1.13
  -7   0  -4    8.93    1.95
  -7   0  -5   -0.05    1.79
  -7   0  -6   61.14    3.50
  -7   0  -7    0.95    2.10
  -7   0  -7    1.80    2.16
  -7   0  -8  245.48   10.46
  -7   0  -8  257.04   10.28
  -7   0  -9    0.32    2.16
  -7   0  -9   -0.22    2.53
  -7   0 -10  161.30    7.36
  -7   0 -10  152.92    7.08
  -7   0 -11    1.60    2.50
  -7   0 -11   -1.92    3.07
  -7   0 -12   33.37    3.37
  -7   0 -12   30.75    3.80
  -7   0 -13   -1.09    2.64
  -7   0 -13   -0.09    3.20
  -7   0 -14  170.40    8.27
  -7   0 -14  169.79    7.77
  -7   0 -15    1.82    2.56
  -7   0 -15   -1.77    3.45
  -7   0 -16   11.04    2.86
  -7   0 -16   13.49    3.66
  -7   0 -17    2.16    2.37
  -7   0 -17   -1.99    3.58
  -7   0 -18   14.54    2.46
  -7   0 -18   12.13    3.52
  -7   0 -19    0.63    2.02
  -7   0 -19    0.32    3.22
  -7   0 -20    5.96    1.88
  -7   0 -20    4.06    2.79
  -7   0 -21    1.81    1.45
  -7   0 -21    2.80    2.71
  -7   0 -22    4.65    2.32
  -7   0 -23    2.41    1.89
  -7   0 -24    4.90    1.45
   7  -1 -28    2.47    1.50
   7  -1 -27    3.80    2.05
   7   1 -27    3.01    1.36
   7   1 -26   13.34    2.20
   7  -1 -26   13.19    3.00
   7   1 -25    0.47    2.42
   7  -1 -25   -1.20    3.42
   7  -1 -25    1.79    2.06
   7   1 -24   18.36    3.32
   7  -1 -24   17.13    4.08
   7   1 -23    1.82    3.32
   7  -1 -23   -0.89    4.26
   7   1 -22   46.92    4.82
   7  -1 -22   50.11    5.65
   7  -1 -22   44.95    3.58
   7   1 -21   23.53    4.33
   7  -1 -21   23.62    4.93
   7  -1 -21   21.42    3.23
   7   1 -20    4.80    4.30
   7  -1 -20    5.07    4.90
  -7  -1  20    0.40    2.45
   7  -1 -19   27.57    4.11
  -7  -1  19   32.59    3.25
   7   1 -18   52.48    3.91
  -7   1  18   44.71    4.02
   7  -1 -18   43.34    4.51
  -7  -1  18   51.03    3.81
   7  -1 -17  234.32   10.55
   7   1 -17  229.49   10.18
  -7  -1  17  240.07   10.01
  -7   1  17  220.29   10.09
   7  -1 -16  465.42   18.99
   7   1 -16  464.99   18.76
  -7   1  16  480.38   18.72
  -7  -1  16  479.47   18.61
  -7  -1  15  136.30    6.56
   7  -1 -15  131.37    6.97
   7   1 -15  136.92    6.76
  -7   1  15  128.85    6.57
   7  -1 -14  245.73   11.19
   7   1 -14  270.62   11.10
  -7   1  14  269.98   11.13
  -7  -1  14  262.97   11.00
   7   1 -13   39.27    3.47
  -7   1  13   33.45    3.29
  -7  -1  13   29.66    3.11
   7  -1 -13   34.91    3.47
   7  -1 -12  833.41   32.44
   7   1 -12  860.88   32.42
  -7  -1  12  872.99   32.33
  -7   1  12  863.15   32.42
  -7   1  11   67.39    4.08
   7  -1 -11   67.52    4.31
   7   1 -11   66.82    4.09
  -7  -1  11   62.23    3.93
   7  -1 -10  622.44   23.49
   7   1 -10  606.59   23.38
  -7  -1  10  611.03   23.37
   7  -1  -9   25.38    2.89
   7   1  -9   26.02    2.68
  -7  -1   9   24.63    2.55
   7  -1  -8  424.05   16.72
   7   1  -8  432.19   16.65
  -7   1   8  433.11   16.66
   7  -1  -7  243.19   10.11
   7   1  -7  244.61   10.03
  -7   1   7  254.88   10.04
  -7  -1   6    9.67    1.72
   7  -1  -6   11.32    2.18
   7   1  -6   13.04    2.11
  -7  -1   6   11.68    1.87
  -7   1   6    9.35    1.78
  -7  -1   5  259.66   10.28
  -7   1   5  251.60   10.25
  -7  -1   5  260.14   10.21
  -7   1   4  131.64    5.66
  -7  -1   4  132.68    5.65
  -7  -1   4  126.67    5.67
  -7   1   3  385.91   14.95
   7  -1  -3  391.76   15.04
  -7  -1   3  377.94   14.97
  -7  -1   3  402.36   14.95
  -7  -1   3  385.83   14.92
  -7   1   2    8.11    1.44
  -7   1   2    6.69    1.65
  -7  -1   2    5.65    1.58
  -7  -1   2    4.51    1.61
  -7  -1   2    5.76    1.54
  -7   1   1 1443.04   54.06
  -7  -1   1 1490.16   54.14
  -7   1   1 1436.15   54.12
  -7  -1   1 1486.77   54.15
  -7   1   1 1507.04   54.09
  -7  -1   1 1464.84   54.10
  -7  -1   1 1457.81   54.07
  -7   1   0   52.70    2.84
  -7  -1   0   54.54    2.90
  -7   1   0   58.27    3.17
  -7  -1   0   53.45    2.87
  -7   1   0   57.77    3.07
  -7  -1   0   54.66    3.05
  -7  -1   0   53.11    3.06
  -7   1  -1  877.79   32.27
  -7   1  -1  893.10   32.43
  -7  -1  -1  854.05   32.32
  -7   1  -1  885.38   32.34
  -7  -1  -1  877.80   32.43
  -7  -1  -1  816.11   32.33
  -7  -1  -1  883.03   32.29
  -7   1  -2   56.26    2.79
  -7  -1  -2   51.94    3.17
  -7  -1  -2   51.98    2.86
  -7   1  -2   51.91    3.17
  -7  -1  -2   57.24    2.87
  -7   1  -2   55.79    3.06
  -7   1  -3   22.51    2.13
  -7  -1  -3   24.71    1.87
  -7  -1  -3   20.67    2.31
  -7   1  -3   23.36    2.19
  -7  -1  -3   22.58    1.75
  -7   1  -4   18.99    2.02
  -7   1  -4   14.45    2.21
  -7  -1  -4   16.03    2.30
  -7   1  -5   14.14    2.00
  -7  -1  -5   11.14    2.20
  -7   1  -5   10.99    2.22
  -7  -1  -5    9.83    2.33
  -7  -1  -6  196.74    8.20
  -7   1  -6  200.36    8.01
  -7   1  -6  178.62    8.06
  -7  -1  -6  188.71    8.08
  -7   1  -7   40.35    3.03
  -7   1  -7   39.22    2.80
  -7  -1  -7   35.36    3.11
  -7   1  -7   40.91    2.61
  -7   1  -8   81.00    4.51
  -7   1  -8   85.98    4.18
  -7  -1  -8   73.08    4.41
  -7   1  -9   41.55    3.45
  -7   1  -9   47.50    3.08
  -7  -1  -9   38.62    3.34
  -7   1 -10   64.17    4.29
  -7   1 -10   68.06    3.88
  -7  -1 -10   60.86    4.23
  -7   1 -11  243.20   10.66
  -7   1 -11  249.20   10.32
  -7  -1 -11  261.78   10.64
  -7   1 -12  155.98    7.55
  -7   1 -12  161.40    7.07
  -7  -1 -12  152.65    7.41
  -7   1 -13 1290.17   49.34
  -7   1 -13 1353.82   49.08
  -7  -1 -13 1312.87   49.28
  -7   1 -14   33.24    3.06
  -7  -1 -14   31.40    3.68
  -7   1 -14   36.92    3.89
  -7  -1 -14   28.40    4.09
  -7   1 -15  259.94   11.04
  -7  -1 -15  253.97   11.31
  -7   1 -15  256.19   10.48
  -7  -1 -15  247.06   10.84
  -7   1 -16   10.05    2.35
  -7  -1 -16    8.82    3.21
  -7   1 -16    7.88    3.49
  -7  -1 -16    9.52    4.09
  -7  -1 -17  170.10    8.37
  -7   1 -17  172.00    8.03
  -7   1 -17  168.90    7.32
  -7  -1 -17  167.07    7.75
  -7   1 -18    9.38    2.03
  -7  -1 -18    3.66    2.83
  -7   1 -18    2.04    3.18
  -7  -1 -18    3.05    3.83
  -7   1 -19  142.23    6.73
  -7  -1 -19  149.45    7.10
  -7   1 -19  130.34    5.82
  -7  -1 -19  131.85    6.32
  -7  -1 -20    7.66    2.31
  -7   1 -20    5.85    2.73
  -7  -1 -20    8.55    3.28
  -7  -1 -21   17.17    2.17
  -7   1 -21   17.05    2.66
  -7  -1 -21   20.75    3.21
  -7  -1 -22    4.76    1.47
  -7   1 -22    5.52    2.07
  -7  -1 -22    5.95    2.50
  -7   1 -23    8.44    1.79
  -7  -1 -23    8.94    2.27
  -7  -1 -24   25.29    2.03
  -7   1 -24   20.12    1.62
  -7  -1 -25   19.79    1.52
   7  -2 -28    6.72    1.64
   7  -2 -27    0.73    2.18
   7  -2 -26    5.21    2.77
   7  -2 -26    2.67    1.75
   7   2 -25   23.05    2.39
   7  -2 -25   22.71    3.83
   7   2 -24    4.45    2.38
   7  -2 -24   -0.34    3.83
   7   2 -23   17.93    3.16
   7  -2 -23   15.37    4.56
   7  -2 -23   15.53    2.77
   7  -2 -22   74.57    4.79
   7   2 -22   79.21    5.07
   7  -2 -22   75.61    6.47
   7   2 -21   27.88    3.91
   7  -2 -21   29.88    5.46
   7  -2 -21   27.77    3.55
   7  -2 -20   96.49    7.61
  -7  -2  20   92.30    5.00
   7   2 -20   97.67    5.98
   7   2 -19    5.14    3.34
   7  -2 -19   -3.31    3.90
  -7  -2  19   -1.68    2.44
   7  -2 -18   10.46    3.79
  -7  -2  18    8.44    2.64
   7  -2 -17   60.85    5.12
  -7  -2  17   63.38    4.21
   7  -2 -16   59.54    5.10
  -7  -2  16   72.74    4.43
  -7   2  16   66.95    4.66
  -7  -2  15   88.60    4.87
   7  -2 -15   80.95    5.62
   7   2 -15   88.24    4.87
  -7   2  15   87.31    5.20
   7  -2 -14  134.47    7.19
   7   2 -14  147.08    6.84
  -7  -2  14  151.30    6.87
  -7   2  14  139.97    7.00
   7  -2 -13   46.69    4.32
   7   2 -13   55.82    3.71
  -7  -2  13   53.94    3.78
  -7   2  13   53.35    4.09
   7  -2 -12  267.58   11.44
   7   2 -12  270.53   11.23
  -7   2  12  274.22   11.37
  -7  -2  12  273.81   11.20
   7  -2 -11  220.22    9.44
  -7   2  11  203.98    9.28
   7   2 -11  221.12    9.19
  -7  -2  11  224.59    9.23
   7  -2 -10  484.51   18.99
   7   2 -10  492.21   18.81
  -7  -2  10  483.28   18.80
   7  -2  -9    2.51    2.49
   7   2  -9    5.29    2.25
  -7   2   9    4.41    2.31
  -7  -2   9    6.66    2.14
   7  -2  -8  371.27   15.23
   7   2  -8  398.42   15.10
  -7   2   8  388.88   15.21
  -7  -2   7   10.63    1.68
   7   2  -7   11.08    2.10
  -7   2   7    8.89    1.96
  -7  -2   6  510.52   19.88
  -7   2   6  536.63   19.96
  -7  -2   6  521.87   19.80
  -7  -2   5    3.54    1.55
   7  -2  -5    2.53    2.12
  -7   2   5    6.12    1.79
  -7  -2   5    4.02    1.79
  -7  -2   4 1468.89   54.29
   7  -2  -4 1490.23   54.37
  -7   2   4 1441.45   54.30
  -7   2   4 1501.29   54.29
  -7  -2   4 1463.35   54.22
   7  -2  -3  340.10   13.21
  -7  -2   3  331.27   13.08
  -7   2   3  341.56   13.13
  -7  -2   3  341.32   13.13
  -7   2   3  336.63   13.09
  -7  -2   3  331.55   13.05
   7   2  -2 1000.79   37.22
   7  -2  -2  995.50   37.24
  -7   2   2  992.90   37.18
  -7  -2   2  999.30   37.19
  -7  -2   2 1012.91   37.19
  -7   2   2 1008.67   37.17
  -7  -2   2 1004.47   37.16
   7  -2  -1  154.76    6.32
   7   2  -1  146.15    6.09
  -7   2   1  146.23    6.27
  -7  -2   1  145.66    6.21
  -7   2   1  142.20    6.10
  -7  -2   1  146.07    6.17
  -7   2   1  137.51    6.12
  -7  -2   1  144.85    6.18
  -7  -2   0  562.54   20.59
  -7   2   0  537.06   20.53
  -7  -2   0  535.21   20.59
  -7   2   0  534.05   20.65
  -7  -2   0  544.30   20.65
   7   2   0  546.12   20.55
  -7   2   0  557.85   20.58
  -7  -2   0  541.60   20.62
   7   2   1  403.12   15.36
  -7  -2  -1  396.66   15.54
  -7  -2  -1  389.05   15.43
  -7   2  -1  401.10   15.53
  -7   2  -1  397.81   15.38
  -7  -2  -1  418.90   15.44
  -7   2  -1  414.87   15.47
  -7  -2  -1  403.75   15.51
  -7  -2  -2  117.74    5.29
  -7  -2  -2  114.40    5.05
  -7   2  -2  120.04    5.26
  -7  -2  -2  113.33    5.06
  -7   2  -2  117.05    5.12
  -7  -2  -2  111.42    5.23
  -7   2  -3  886.63   32.79
  -7  -2  -3  879.48   32.64
  -7  -2  -3  877.30   32.85
  -7   2  -3  868.36   32.67
  -7  -2  -3  883.50   32.84
  -7   2  -4  244.33    9.84
  -7  -2  -4  240.37    9.93
  -7  -2  -4  242.79    9.56
  -7   2  -4  248.90    9.70
  -7  -2  -4  233.81    9.84
  -7  -2  -5  139.99    6.17
  -7   2  -5  136.65    6.06
  -7   2  -5  130.89    5.88
  -7   2  -6  124.73    5.97
  -7  -2  -6  133.41    6.18
  -7   2  -6  132.04    5.79
  -7   2  -6  136.69    5.93
  -7   2  -7   75.52    4.23
  -7  -2  -7   81.91    4.51
  -7   2  -7   78.96    4.14
  -7   2  -7   85.56    4.05
  -7   2  -8  313.42   12.50
  -7  -2  -8  309.61   12.67
  -7   2  -8  316.03   12.42
  -7   2  -8  314.35   12.32
  -7  -2  -8  304.15   12.65
  -7  -2  -9   21.83    3.10
  -7   2  -9   23.07    2.91
  -7  -2  -9   24.14    3.24
  -7   2  -9   25.75    2.34
  -7   2 -10   42.88    3.53
  -7  -2 -10   37.97    3.77
  -7   2 -10   46.18    2.99
  -7  -2 -10   44.76    3.84
  -7   2 -11  101.76    5.25
  -7  -2 -11   95.31    5.65
  -7   2 -11   98.17    4.77
  -7  -2 -11   90.01    5.52
  -7  -2 -12   27.03    3.69
  -7   2 -12   32.25    3.31
  -7  -2 -12   26.49    3.92
  -7   2 -12   34.22    2.68
  -7   2 -13    9.61    2.18
  -7  -2 -13    2.44    3.33
  -7   2 -13    7.18    2.86
  -7  -2 -13    3.03    3.47
  -7   2 -14    4.60    2.09
  -7  -2 -14   -0.09    3.18
  -7   2 -14    2.74    2.99
  -7   2 -15  123.79    6.29
  -7   2 -15  120.63    5.58
  -7  -2 -15  120.16    6.54
  -7  -2 -16   32.28    3.86
  -7   2 -16   25.79    3.55
  -7   2 -16   29.70    2.48
  -7   2 -17   51.93    3.85
  -7  -2 -17   52.88    4.22
  -7  -2 -18   17.41    3.36
  -7   2 -18   13.88    2.72
  -7   2 -19  132.26    6.33
  -7  -2 -19  135.15    6.40
  -7   2 -20   41.67    3.21
  -7  -2 -20   39.75    3.29
  -7   2 -21   54.56    3.28
  -7  -2 -21   54.37    4.24
  -7  -2 -21   57.74    3.46
  -7   2 -22   66.24    3.41
  -7  -2 -22   67.56    4.07
  -7  -2 -22   64.30    3.46
  -7   2 -23   18.84    1.71
  -7  -2 -23   22.58    1.74
  -7  -2 -24   92.27    4.26
   7  -3 -28   40.83    2.48
   7  -3 -27   22.85    2.44
   7  -3 -27   16.91    1.64
   7  -3 -26   49.97    3.78
   7  -3 -26   39.46    3.04
   7  -3 -25    5.98    3.22
   7  -3 -24    4.07    3.80
   7  -3 -24    2.77    2.34
   7  -3 -23   11.12    4.39
   7  -3 -23   12.28    2.87
   7  -3 -22   -1.02    4.64
   7  -3 -22   -0.09    3.15
   7  -3 -21   93.19    5.71
   7   3 -21   87.65    5.05
  -7  -3  20  200.03    8.56
   7   3 -20  202.03    9.04
  -7  -3  19   57.22    3.82
   7   3 -19   63.04    4.43
   7   3 -18  226.75   10.22
   7  -3 -18  223.08   10.57
  -7  -3  18  231.05    9.72
   7  -3 -17    6.53    3.92
  -7  -3  17   12.50    2.57
   7  -3 -16   20.98    4.18
  -7  -3  16   25.51    3.20
   7  -3 -15    8.94    4.03
  -7  -3  15   12.72    2.80
   7  -3 -14  176.68    8.82
  -7  -3  14  195.95    8.28
  -7   3  14  173.82    8.49
   7  -3 -13   18.69    3.81
   7   3 -13   26.35    2.84
  -7  -3  13   21.32    2.91
  -7   3  13   22.64    3.36
   7  -3 -12  115.08    6.11
   7   3 -12  115.88    5.52
  -7  -3  12  113.40    5.66
  -7   3  12  102.64    5.84
  -7  -3  11   62.78    3.95
   7  -3 -11   62.67    4.45
   7   3 -11   66.16    3.85
   7   3 -10   38.90    3.01
   7  -3 -10   38.66    3.62
  -7  -3  10   36.44    3.08
   7   3  -9  126.47    5.86
  -7   3   9  126.44    6.09
  -7  -3   9  129.21    6.00
   7   3  -8  414.83   16.05
  -7   3   8  418.78   16.20
  -7  -3   8  408.24   16.11
  -7   3   7  154.21    6.88
   7  -3  -7  152.54    7.04
  -7  -3   7  157.19    6.57
  -7  -3   6    5.50    1.64
   7  -3  -6    7.01    2.40
  -7   3   6    8.71    2.08
  -7  -3   5   10.04    1.67
   7  -3  -5    8.44    2.38
  -7   3   5    8.69    1.98
  -7  -3   5    9.30    2.02
   7  -3  -4   38.74    3.01
  -7   3   4   43.55    2.73
  -7  -3   4   42.86    2.83
  -7  -3   4   38.22    2.47
   7  -3  -3  161.77    6.92
  -7  -3   3  158.60    6.68
  -7   3   3  157.41    6.76
  -7  -3   3  160.13    6.79
  -7  -3   3  155.56    6.61
   7  -3  -2  123.27    5.57
  -7  -3   2  121.75    5.37
  -7   3   2  120.21    5.39
  -7  -3   2  121.56    5.46
  -7   3   2  117.56    5.38
  -7  -3   2  124.39    5.34
   7  -3  -1  273.94   10.88
  -7  -3   1  273.90   10.76
   7   3  -1  271.17   10.71
  -7   3   1  268.47   10.76
  -7  -3   1  267.80   10.80
  -7   3   1  275.55   10.74
  -7  -3   1  274.18   10.76
   7  -3   0   32.21    2.50
  -7   3   0   30.29    2.35
  -7  -3   0   29.96    2.35
  -7   3   0   29.77    2.10
  -7   3   0   30.89    2.26
  -7  -3   0   26.29    2.28
  -7  -3   0   28.45    2.29
   7  -3   1  473.34   17.64
  -7   3  -1  458.34   17.60
  -7  -3  -1  466.53   17.64
  -7   3  -1  442.35   17.49
  -7  -3  -1  469.09   17.61
  -7   3  -1  460.75   17.52
  -7  -3  -1  458.90   17.66
  -7  -3  -2  511.64   19.34
   7  -3   2  528.49   19.39
  -7  -3  -2  502.25   19.43
  -7   3  -2  507.80   19.37
  -7   3  -2  507.00   19.26
  -7  -3  -2  497.06   19.43
  -7  -3  -3  243.53    9.47
   7  -3   3  238.08    9.51
  -7   3  -3  241.18    9.56
  -7  -3  -3  229.75    9.59
  -7   3  -3  232.76    9.40
  -7  -3  -3  230.99    9.66
  -7   3  -4  157.83    7.11
  -7  -3  -4  168.56    7.31
  -7  -3  -4  168.49    7.01
  -7   3  -4  169.48    7.03
  -7  -3  -4  165.96    7.30
  -7   3  -4  180.33    7.31
  -7   3  -5  265.71   10.68
  -7  -3  -5  273.77   10.84
  -7  -3  -5  266.21   10.51
  -7   3  -5  270.76   10.54
  -7  -3  -5  259.53   10.87
  -7   3  -5  259.82   10.77
  -7   3  -6  225.50    9.14
  -7  -3  -6  228.33    9.37
  -7  -3  -6  218.59    8.90
  -7   3  -6  228.80    9.30
  -7   3  -6  219.97    8.97
  -7  -3  -6  217.23    9.40
  -7   3  -7    2.54    1.65
  -7   3  -7    0.35    1.77
  -7  -3  -7   -0.22    2.72
  -7   3  -7    1.50    2.09
  -7  -3  -7    1.13    2.22
  -7   3  -8  249.10   10.43
  -7  -3  -8  255.67   10.73
  -7   3  -8  261.51   10.57
  -7   3  -8  258.39   10.20
  -7   3  -9   19.97    2.18
  -7   3  -9   23.28    2.64
  -7  -3  -9   21.00    3.20
  -7   3  -9   21.18    2.35
  -7  -3 -10 1245.53   46.52
  -7   3 -10 1196.57   46.25
  -7   3 -10 1253.69   46.26
  -7   3 -10 1272.47   46.01
  -7   3 -11   24.43    2.29
  -7  -3 -11   18.31    3.74
  -7   3 -11   28.07    2.93
  -7  -3 -11   22.90    3.49
  -7  -3 -12  229.55   10.06
  -7   3 -12  233.58    9.63
  -7   3 -12  225.29    9.21
  -7  -3 -12  219.75   10.13
  -7  -3 -13   21.18    3.95
  -7   3 -13   28.75    3.16
  -7  -3 -13   23.35    4.02
  -7   3 -13   25.45    2.30
  -7   3 -14   99.26    5.37
  -7  -3 -14   99.57    5.97
  -7  -3 -14   95.22    5.90
  -7  -3 -15   28.78    4.14
  -7   3 -15   30.92    3.02
  -7  -3 -15   27.25    4.32
  -7  -3 -16  413.74   17.01
  -7   3 -16  424.91   16.42
  -7  -3 -16  410.39   16.91
  -7  -3 -17   29.66    3.96
  -7   3 -17   33.20    3.19
  -7  -3 -17   28.39    4.17
  -7   3 -18  100.11    4.99
  -7  -3 -18   92.81    5.84
  -7  -3 -18   94.61    5.66
  -7   3 -19   48.49    3.31
  -7  -3 -19   52.29    4.46
  -7  -3 -19   53.27    4.10
  -7   3 -20   92.18    4.41
  -7  -3 -20   87.54    5.32
  -7  -3 -20   94.14    5.01
  -7  -3 -21   29.15    2.79
  -7   3 -21   28.97    2.14
  -7  -3 -22  103.10    4.80
  -7  -3 -23   30.14    2.01
   7  -4 -28   56.41    2.82
   7  -4 -27   55.00    2.87
   7  -4 -26   54.11    3.36
   7  -4 -25  143.11    6.09
   7  -4 -25  139.14    6.74
   7  -4 -24   86.01    4.61
   7  -4 -23  382.11   15.25
   7  -4 -22  104.44    5.91
   7  -4 -21  229.15   10.13
   7  -4 -21  216.92   10.88
   7  -4 -20  230.24   11.26
   7  -4 -19  194.46   10.64
  -7  -4  19  224.90    9.18
  -7  -4  18   42.74    3.29
   7  -4 -17  490.80   20.56
  -7  -4  17  527.16   19.95
   7  -4 -16  385.59   16.78
  -7  -4  16  418.82   16.14
   7  -4 -15  125.63    7.36
  -7  -4  15  129.40    6.28
   7  -4 -14  105.23    6.61
  -7  -4  14  120.05    5.83
   7  -4 -13   50.27    4.84
  -7  -4  13   51.59    3.93
  -7  -4  12   19.35    2.99
  -7  -4  11  307.62   12.50
  -7   4  10    6.32    2.76
   7   4 -10    7.76    2.07
  -7  -4  10   10.14    2.43
   7  -4  -9   43.83    3.84
   7   4  -9   41.39    2.90
  -7   4   9   40.16    3.45
  -7  -4   9   39.74    3.16
   7  -4  -8   42.86    3.67
   7   4  -8   41.52    2.95
  -7   4   8   39.53    3.30
  -7  -4   8   40.42    3.10
   7  -4  -7   28.75    3.17
  -7   4   7   28.75    2.87
  -7  -4   7   29.51    2.85
  -7  -4   7   30.38    2.22
  -7  -4   6    0.65    1.43
   7  -4  -6    0.21    2.58
  -7   4   6    3.03    2.08
  -7  -4   5   13.35    1.76
   7  -4  -5   14.80    2.68
  -7   4   5   11.58    2.27
   7  -4  -4   81.89    4.29
  -7   4   4   70.93    3.97
  -7  -4   4   76.27    4.05
  -7  -4   4   74.56    3.73
  -7  -4   3  162.06    6.91
   7  -4  -3  156.43    7.01
  -7   4   3  162.02    6.92
  -7  -4   3  154.07    6.63
  -7   4   2   94.85    4.84
   7  -4  -2  106.71    5.07
  -7  -4   2  109.21    4.77
  -7  -4   2  107.06    5.00
  -7  -4   2  103.12    4.77
  -7   4   1  120.04    5.44
   7  -4  -1  126.62    5.69
  -7  -4   1  124.60    5.39
  -7  -4   1  123.66    5.59
  -7  -4   1  117.28    5.36
  -7   4   0  121.10    5.71
   7  -4   0  137.09    5.98
  -7  -4   0  140.87    5.83
  -7  -4   0  138.97    5.96
  -7   4   0  129.19    5.75
  -7  -4   0  132.36    5.88
  -7   4  -1    0.49    1.65
  -7   4  -1    1.61    1.70
  -7  -4  -1    1.75    1.70
   7  -4   1    3.14    1.85
  -7  -4  -1    1.61    1.71
  -7  -4  -1    2.33    1.81
  -7   4  -2   20.90    2.00
  -7  -4  -2   22.88    2.37
  -7   4  -2   20.75    2.33
   7  -4   2   21.97    2.29
  -7   4  -2   19.76    2.20
  -7  -4  -2   24.40    2.25
  -7  -4  -2   20.11    2.23
  -7   4  -3   11.76    1.74
  -7  -4  -3   13.86    2.24
  -7   4  -3    9.26    2.15
  -7   4  -3   11.49    1.93
   7  -4   3   10.64    1.84
  -7  -4  -3    9.34    1.80
  -7  -4  -3   11.91    2.07
   7  -4   4   72.08    3.59
  -7  -4  -4   72.20    3.84
  -7   4  -4   68.26    3.62
  -7  -4  -4   64.49    3.54
  -7   4  -4   64.71    3.43
  -7   4  -4   67.75    3.94
  -7  -4  -4   65.54    3.98
  -7   4  -5    4.36    1.61
  -7   4  -5    5.11    2.06
  -7  -4  -5    4.62    2.44
   7  -4   5    4.24    1.72
  -7   4  -5    3.65    1.92
  -7  -4  -5    3.01    2.10
  -7  -4  -5    4.59    1.68
  -7   4  -6   26.32    2.78
  -7  -4  -6   30.15    3.06
  -7  -4  -6   31.24    2.79
  -7  -4  -6   27.75    2.26
  -7   4  -6   30.15    2.23
  -7   4  -6   31.61    2.59
  -7   4  -7    6.66    2.25
  -7   4  -7    3.90    1.60
  -7  -4  -7    1.05    2.68
  -7  -4  -7    5.63    2.45
  -7  -4  -7    6.62    1.58
  -7   4  -7    6.18    1.95
  -7   4  -8  233.10    9.36
  -7  -4  -8  231.40    9.69
  -7   4  -8  222.94    9.58
  -7   4  -8  224.23    9.09
  -7  -4  -8  226.77    9.86
  -7   4  -9   13.84    1.80
  -7  -4  -9    4.98    3.26
  -7   4  -9   15.01    2.38
  -7  -4  -9   13.18    3.06
  -7   4  -9   12.08    2.40
  -7  -4 -10   -0.34    3.54
  -7   4 -10    2.29    2.10
  -7  -4 -10    1.27    3.06
  -7   4 -10   -1.47    2.15
  -7  -4 -11   77.46    4.88
  -7   4 -11   77.15    4.25
  -7   4 -11   78.36    4.35
  -7   4 -12   24.02    2.73
  -7  -4 -12   21.00    3.42
  -7   4 -13  181.28    7.73
  -7  -4 -13  172.90    8.37
  -7  -4 -14   30.15    4.59
  -7   4 -14   39.48    3.18
  -7  -4 -14   40.84    4.30
  -7   4 -15  101.42    5.00
  -7  -4 -15   95.80    6.07
  -7  -4 -15  100.07    6.33
  -7   4 -16   63.23    3.71
  -7  -4 -16   64.59    4.91
  -7  -4 -16   62.08    5.29
  -7   4 -17    4.73    2.04
  -7  -4 -17   -1.09    3.73
  -7  -4 -17   -0.66    3.48
  -7  -4 -18   42.93    4.12
  -7   4 -18   44.11    2.95
  -7  -4 -18   48.89    4.10
  -7   4 -19   84.30    4.21
  -7  -4 -19   92.19    5.25
  -7  -4 -20   23.91    2.95
  -7  -4 -20   19.83    2.94
  -7  -4 -21   37.81    3.21
  -7  -4 -21   33.65    2.95
  -7  -4 -22    5.42    1.87
  -7  -4 -22   10.35    2.11
  -7  -4 -23   10.54    1.51
  -7  -4 -23   12.88    1.79
  -7  -4 -24    7.52    1.15
   7  -5 -27   24.77    1.91
   7  -5 -26    0.68    1.74
   7  -5 -26    0.49    1.62
   7  -5 -25   11.95    2.56
   7  -5 -25    9.83    2.51
   7  -5 -25   10.71    1.80
   7  -5 -24   16.10    3.17
   7  -5 -24   17.00    2.53
   7  -5 -23    2.50    3.03
   7  -5 -23    2.28    2.59
   7  -5 -22   -1.33    3.74
   7  -5 -22    1.81    3.08
   7  -5 -21    8.12    4.09
   7  -5 -21    5.17    3.43
   7  -5 -20    4.28    3.97
   7  -5 -20    3.67    3.76
   7  -5 -19   18.04    4.47
   7  -5 -18  157.91    8.83
  -7  -5  18  174.27    7.51
  -7  -5  17   55.58    3.83
   7  -5 -16  686.14   27.38
  -7  -5  16  712.37   26.79
   7  -5 -15   10.76    4.57
  -7  -5  15   15.14    2.86
  -7  -5  14   29.90    3.16
  -7  -5  13   56.51    3.98
  -7  -5  12  167.41    7.58
   7  -5 -11  132.38    7.44
  -7  -5  11  151.32    6.83
   7  -5 -10  573.10   23.15
  -7  -5  10  613.25   22.89
   7  -5  -9  508.08   19.92
  -7  -5   9  504.63   19.62
   7  -5  -8  171.91    8.05
   7   5  -8  170.19    7.28
  -7  -5   8  172.34    7.61
   7  -5  -7  170.08    7.88
  -7  -5   7  175.92    7.71
   7  -5  -6  272.93   11.34
  -7  -5   5   12.49    1.71
   7  -5  -5   13.41    2.68
   7  -5  -4  307.93   12.22
  -7  -5   4  296.92   12.13
  -7  -5   4  298.86   11.75
   7  -5  -3  219.50    9.28
  -7  -5   3  218.63    9.23
  -7  -5   3  221.67    8.85
   7  -5  -2   82.11    4.51
  -7  -5   2   85.92    4.41
  -7  -5   2   79.44    3.99
  -7  -5   1    7.35    1.66
   7  -5  -1    2.85    2.27
  -7  -5   1    7.48    2.31
  -7  -5   1    5.31    1.58
   7  -5   0  303.03   11.63
  -7  -5   0  287.01   11.37
  -7  -5   0  283.44   11.65
  -7  -5   0  288.00   11.47
  -7   5   0  286.69   11.73
  -7  -5  -1    3.42    1.91
  -7   5  -1    1.25    2.20
   7  -5   1    3.43    2.05
  -7  -5  -1    3.01    1.67
  -7  -5  -1    0.13    1.96
  -7  -5  -2  399.07   15.34
   7  -5   2  404.69   15.39
  -7  -5  -2  394.91   15.48
  -7   5  -2  397.62   15.68
  -7  -5  -2  385.67   15.42
   7  -5   3  120.67    5.30
  -7  -5  -3  118.23    5.30
  -7  -5  -3  115.05    5.40
  -7   5  -3  111.96    5.68
  -7  -5  -3  107.91    5.47
  -7   5  -4  711.23   26.85
  -7  -5  -4  736.49   27.02
  -7  -5  -4  722.41   27.03
  -7   5  -4  711.10   27.27
  -7   5  -4  705.70   26.76
  -7  -5  -4  715.33   27.15
  -7   5  -5  421.36   16.27
  -7  -5  -5  454.30   16.52
  -7  -5  -5  435.62   16.45
  -7   5  -5  402.92   16.67
  -7   5  -5  409.67   16.11
  -7  -5  -5  424.13   16.66
  -7   5  -6   27.86    3.07
  -7  -5  -6   29.67    3.19
  -7   5  -6   27.59    2.37
  -7  -5  -6   30.61    2.57
  -7  -5  -6   28.26    2.86
  -7  -5  -7  174.57    7.41
  -7  -5  -7  159.20    7.06
  -7   5  -7  168.01    7.00
  -7   5  -7  155.27    7.44
  -7  -5  -7  167.27    7.71
  -7   5  -8  145.58    6.38
  -7  -5  -8  144.45    6.86
  -7  -5  -8  146.04    6.39
  -7   5  -8  151.44    6.94
  -7  -5  -8  148.20    7.18
  -7  -5  -9   42.14    4.11
  -7   5  -9   45.45    3.03
  -7  -5  -9   43.74    3.57
  -7   5  -9   41.66    3.49
  -7  -5 -10   22.98    3.95
  -7   5 -10   24.05    2.48
  -7  -5 -10   24.56    3.16
  -7   5 -10   26.68    2.90
  -7   5 -11  119.25    5.53
  -7  -5 -11  123.87    6.17
  -7   5 -11  124.77    5.98
  -7  -5 -11  114.71    6.52
  -7   5 -12   36.99    3.17
  -7   5 -12   39.99    2.83
  -7  -5 -12   41.70    3.62
  -7   5 -13  183.69    7.64
  -7  -5 -13  185.70    8.36
  -7  -5 -13  169.20    8.72
  -7   5 -14    1.83    1.83
  -7  -5 -14    1.52    3.20
  -7  -5 -15  442.65   17.54
  -7  -5 -16    9.20    3.16
  -7  -5 -17  249.46   10.51
  -7  -5 -18   21.06    3.66
  -7  -5 -18   23.96    3.17
  -7  -5 -19    1.25    3.00
  -7  -5 -19    5.56    2.58
  -7  -5 -20   13.13    2.78
  -7  -5 -20   12.43    2.43
  -7  -5 -21   12.66    2.24
  -7  -5 -21   13.05    2.19
  -7  -5 -22   19.84    2.01
  -7  -5 -22   21.79    1.97
  -7  -5 -23    2.52    1.14
  -7  -5 -23    0.67    1.09
   7  -6 -26    7.40    1.50
   7  -6 -26    6.63    1.33
   7  -6 -25    0.22    1.76
   7  -6 -25    0.42    1.86
   7  -6 -25   -0.58    1.42
   7  -6 -24    1.26    2.22
   7  -6 -24    1.73    2.38
   7  -6 -24    2.89    1.96
   7  -6 -23   16.45    2.92
   7  -6 -23   17.14    2.67
   7  -6 -22   12.98    3.07
   7  -6 -22   11.21    2.91
   7  -6 -21    6.83    3.29
   7  -6 -21    8.95    3.29
   7  -6 -20   35.65    4.37
   7  -6 -20   27.79    3.94
   7  -6 -19    3.73    3.72
   7  -6 -19    1.27    4.02
  -7  -6  18  204.95    8.71
   7  -6 -18  216.42    9.91
   7  -6 -17    9.55    3.81
  -7  -6  17   12.98    2.48
  -7  -6  16    9.27    2.50
  -7  -6  15    2.01    2.32
  -7   6  14    1.76    1.69
  -7  -6  14    1.09    2.64
   7  -6 -13  405.95   17.11
  -7  -6  13  416.08   16.43
  -7   6  13  415.31   16.10
   7  -6 -12   54.25    5.00
  -7  -6  12   57.02    3.97
  -7   6  12   57.25    3.49
   7  -6 -11  112.22    6.99
  -7  -6  11  129.01    6.09
  -7   6  11  119.85    5.69
   7  -6 -10   50.05    4.67
  -7  -6  10   52.64    4.01
  -7   6  10   52.12    3.47
   7  -6  -9  205.47    9.61
  -7  -6   9  214.59    9.22
  -7   6   9  208.64    8.90
  -7   6   8   48.77    3.44
   7  -6  -8   47.64    4.27
  -7  -6   8   45.42    3.87
   7  -6  -7  338.25   13.69
  -7  -6   7  336.75   13.55
  -7   6   7  327.56   13.39
   7  -6  -6   45.64    4.09
  -7  -6   6   49.14    3.69
  -7   6   6   52.73    3.59
   7  -6  -5  183.90    8.29
  -7   6   5  188.02    8.18
   7  -6  -4  288.70   11.54
  -7   6   4  271.84   11.50
   7  -6  -3  743.93   27.66
  -7  -6   3  712.08   27.21
  -7   6   3  745.73   27.75
  -7  -6   3  726.46   27.71
   7  -6  -2  441.38   17.21
  -7  -6   2  447.88   17.32
  -7  -6   2  439.23   16.84
  -7   6   2  437.17   17.35
   7  -6  -1  639.97   24.40
  -7  -6   1  642.39   24.49
  -7  -6   1  641.79   24.13
   7  -6   0  140.97    6.57
  -7  -6   0  145.83    6.76
  -7  -6   0  156.82    6.44
   7  -6   1  187.38    7.72
  -7  -6  -1  182.26    7.95
  -7   6  -1  171.51    8.07
  -7  -6  -1  177.61    7.64
  -7   6  -2   17.53    3.04
  -7  -6  -2   21.88    2.45
  -7  -6  -2   19.00    1.96
  -7  -6  -2   20.29    2.78
  -7  -6  -3  276.86   10.65
  -7  -6  -3  259.41   10.98
  -7   6  -3  269.14   11.20
  -7  -6  -3  259.99   10.89
  -7   6  -4   28.32    3.26
  -7  -6  -4   33.89    2.52
  -7  -6  -4   28.14    3.05
  -7  -6  -4   30.63    2.85
  -7  -6  -5   11.09    2.65
  -7  -6  -5    9.72    2.48
  -7  -6  -5   13.69    2.14
  -7   6  -5   10.21    2.67
  -7  -6  -6   72.31    3.91
  -7  -6  -6   68.47    4.06
  -7   6  -6   70.36    4.36
  -7  -6  -6   62.87    4.27
  -7  -6  -7    3.56    2.88
  -7  -6  -7    5.70    2.24
  -7  -6  -7    6.30    2.03
  -7   6  -7    5.81    2.67
  -7  -6  -8  163.96    7.07
  -7  -6  -8  155.03    6.91
  -7   6  -8  153.16    7.36
  -7  -6  -8  155.87    7.52
  -7  -6  -9   -0.83    3.33
  -7  -6  -9    5.67    2.41
  -7  -6  -9    2.00    1.92
  -7   6  -9    2.54    2.62
  -7   6 -10  231.06   10.02
  -7  -6 -10  234.41    9.82
  -7  -6 -10  234.52   10.32
  -7  -6 -11   45.06    4.34
  -7  -6 -11   55.50    3.78
  -7   6 -11   47.22    3.61
  -7  -6 -12    2.33    3.81
  -7  -6 -12    3.03    2.51
  -7   6 -12    4.69    2.31
  -7   6 -13  109.78    5.61
  -7  -6 -13  120.39    5.90
  -7  -6 -13  116.35    6.39
  -7  -6 -14    2.64    3.79
  -7  -6 -14    2.27    2.65
  -7  -6 -15   65.32    4.12
  -7  -6 -15   60.42    4.97
  -7  -6 -16   63.87    4.04
  -7  -6 -16   63.99    4.88
  -7  -6 -17   10.33    2.63
  -7  -6 -19   15.85    2.25
  -7  -6 -20   75.43    3.74
  -7  -6 -21   23.68    2.27
  -7  -6 -21   24.48    1.85
  -7  -6 -22   28.15    1.71
  -7  -6 -22   31.38    1.98
   7  -7 -25   87.26    3.71
   7  -7 -25   80.95    3.77
   7  -7 -25   90.68    4.07
   7  -7 -24    0.53    1.51
   7  -7 -24    2.15    1.53
   7  -7 -23   60.16    3.43
   7  -7 -23   52.50    3.35
   7  -7 -22    3.92    2.29
   7  -7 -22    1.60    2.34
   7  -7 -21   21.18    3.00
   7  -7 -21   27.67    3.33
   7  -7 -20   19.17    3.22
   7  -7 -20   21.39    3.47
   7  -7 -19   21.14    3.40
   7  -7 -19   25.03    3.86
   7  -7 -18   55.83    4.48
  -7  -7  17   58.69    3.61
   7  -7 -17   66.08    4.85
   7  -7 -16    6.64    3.45
  -7  -7  16    6.03    2.19
   7  -7 -15  228.79   10.41
  -7  -7  15  232.03    9.73
  -7  -7  14   93.21    5.08
   7  -7 -13  317.89   13.54
  -7  -7  13  317.55   12.67
  -7   7  13  299.22   12.21
   7  -7 -12  119.80    7.04
  -7  -7  12  115.70    5.95
  -7   7  12  111.84    5.42
   7  -7 -11  162.59    8.43
  -7  -7  11  167.62    7.68
  -7   7  11  158.88    7.12
  -7   7  10   20.28    2.53
   7  -7 -10   23.72    4.11
  -7  -7  10   20.45    3.28
   7  -7  -9  131.95    7.08
  -7  -7   9  134.16    6.57
  -7   7   9  123.64    6.07
  -7   7   8    2.36    2.19
   7  -7  -8    1.33    3.54
  -7  -7   8   -0.41    2.99
  -7   7   7   21.63    2.78
   7  -7  -7   18.50    3.56
  -7  -7   7   21.98    3.47
  -7  -7   6   81.46    4.97
   7  -7  -6   78.47    5.13
  -7   7   6   83.28    4.58
   7  -7  -5  340.96   13.59
  -7  -7   5  330.77   13.59
  -7   7   5  323.22   13.40
   7  -7  -4   61.38    4.25
  -7   7   4   64.79    4.20
   7  -7  -3   39.89    3.55
  -7   7   3   40.04    3.50
   7  -7  -2  235.35   10.03
  -7  -7   2  247.25   10.36
  -7   7   2  243.25   10.33
  -7   7   1   10.57    2.75
   7  -7  -1   13.09    2.40
  -7  -7   1   13.43    3.23
   7  -7   0  112.76    5.51
  -7  -7   0  120.22    6.07
  -7  -7   0  117.64    5.27
  -7  -7  -1   12.11    2.03
  -7  -7  -1    4.31    2.80
  -7  -7  -2  485.09   19.09
  -7   7  -2  474.43   19.19
  -7  -7  -2  499.61   18.75
  -7  -7  -3    2.82    1.98
  -7  -7  -3   -0.15    2.62
  -7   7  -3    2.50    2.75
  -7  -7  -4   18.35    2.63
  -7  -7  -4    9.81    2.71
  -7   7  -4   15.55    3.16
  -7  -7  -5   56.18    3.88
  -7   7  -5   56.59    4.22
  -7  -7  -5   57.50    3.83
  -7  -7  -6  107.60    5.62
  -7   7  -6  107.54    5.96
  -7  -7  -6  118.94    5.63
  -7  -7  -7  338.35   13.11
  -7   7  -7  329.59   13.66
  -7  -7  -7  326.84   13.36
  -7  -7  -7  335.87   13.50
  -7  -7  -8  231.98   10.10
  -7  -7  -8  243.37    9.96
  -7   7  -8  240.74   10.51
  -7  -7  -8  266.52   10.49
  -7  -7  -9   51.45    3.38
  -7   7  -9   51.86    4.07
  -7  -7  -9   51.99    3.44
  -7  -7  -9   52.77    4.25
  -7   7 -10  510.17   19.90
  -7  -7 -10  526.08   19.50
  -7  -7 -10  551.57   19.96
  -7   7 -11  163.47    7.41
  -7  -7 -11  159.13    6.93
  -7  -7 -11  147.08    7.57
  -7   7 -12  485.61   20.04
  -7  -7 -12  520.53   19.86
  -7  -7 -12  554.66   20.37
  -7   7 -13  379.54   15.37
  -7  -7 -13  397.81   15.24
  -7  -7 -13  389.87   15.69
  -7  -7 -14  345.74   13.08
  -7  -7 -14  349.43   13.57
  -7  -7 -15   94.18    4.78
  -7  -7 -15  103.24    5.58
  -7  -7 -16  136.18    6.10
  -7  -7 -16  141.10    6.63
  -7  -7 -17   45.44    2.91
  -7  -7 -17   47.48    3.71
  -7  -7 -18   69.45    3.56
  -7  -7 -18   76.89    4.18
  -7  -7 -19    0.97    2.03
  -7  -7 -19    3.10    1.39
  -7  -7 -20   60.24    2.85
  -7  -7 -20   66.06    3.33
   7  -8 -24    3.34    1.25
   7  -8 -24    2.64    1.13
   7  -8 -23  112.49    4.42
   7  -8 -23  101.99    4.59
   7  -8 -22    4.63    1.62
   7  -8 -22    1.75    2.22
   7  -8 -22    4.49    2.05
   7  -8 -21  541.25   19.73
   7  -8 -21  491.18   19.57
   7  -8 -20   44.37    3.19
   7  -8 -19  383.67   15.19
   7  -8 -18    2.42    2.52
   7  -8 -17  303.22   12.57
   7  -8 -17  288.62   12.21
   7  -8 -16   19.71    3.02
   7  -8 -16   28.23    4.20
  -7  -8  16   22.84    2.42
   7  -8 -15  365.35   14.76
  -7  -8  15  348.27   13.94
   7  -8 -15  348.91   14.37
  -7  -8  14  164.30    7.32
   7  -8 -14  165.18    7.77
   7  -8 -13   52.68    4.06
  -7  -8  13   55.82    3.85
  -7  -8  12   11.37    2.91
  -7   8  12    8.71    1.95
  -7  -8  11  210.83    9.04
  -7   8  11  200.92    8.60
   7  -8 -10   46.97    4.84
  -7  -8  10   51.69    4.04
  -7   8  10   51.42    3.36
  -7   8   9   15.09    2.46
   7  -8  -9   15.03    4.02
  -7  -8   9   16.17    3.39
   7  -8  -8  162.74    8.14
  -7  -8   8  172.31    7.91
  -7   8   8  160.36    7.44
   7  -8  -7   46.61    4.19
  -7  -8   7   51.16    4.35
  -7   8   7   47.02    3.55
  -7   8   6   14.72    2.74
   7  -8  -6   11.68    3.29
  -7  -8   6   17.82    3.60
   7  -8  -5   87.86    5.12
  -7  -8   5   90.69    5.62
  -7   8   5   88.06    5.03
   7  -8  -4  117.43    6.08
  -7   8   4  118.92    6.07
   7  -8  -3  255.17   11.04
  -7   8   3  277.30   11.23
   7  -8  -2    5.99    2.40
  -7   8   2    7.32    3.01
  -7  -8   1   13.38    3.26
  -7   8   1   20.64    3.18
  -7  -8   0    2.01    3.05
  -7   8   0    7.50    3.24
  -7  -8  -1   10.25    3.37
  -7  -8  -2   68.84    4.74
  -7  -8  -2   70.65    3.71
  -7  -8  -3   93.91    5.44
  -7   8  -3   89.19    5.46
  -7  -8  -3   96.09    4.61
  -7   8  -4  249.47   11.10
  -7  -8  -4  256.46   10.93
  -7  -8  -4  264.22   10.48
  -7   8  -5  146.20    7.15
  -7  -8  -5  138.20    6.86
  -7  -8  -5  140.88    6.42
  -7  -8  -6    3.12    2.22
  -7  -8  -6   -0.55    2.68
  -7   8  -6    1.50    3.21
  -7  -8  -7   30.39    3.02
  -7  -8  -7   29.15    3.27
  -7   8  -7   31.67    3.66
  -7   8  -8   44.81    3.82
  -7  -8  -8   35.93    3.32
  -7  -8  -8   45.43    3.50
  -7  -8  -9    0.57    2.44
  -7  -8  -9    0.42    2.23
  -7   8  -9    2.68    2.87
  -7  -8 -10   32.19    3.38
  -7  -8 -10   29.67    2.71
  -7   8 -10   32.08    3.22
  -7  -8 -11    9.22    2.70
  -7   8 -11   14.54    2.91
  -7   8 -12   41.82    3.38
  -7  -8 -12   43.64    3.68
  -7  -8 -13   36.49    3.28
  -7   8 -13   34.22    2.92
  -7  -8 -14   -0.72    2.71
  -7   8 -14    0.37    1.91
  -7  -8 -15   17.14    2.75
  -7  -8 -16   -0.17    2.14
  -7  -8 -17   28.15    2.65
  -7  -8 -18    3.02    1.82
  -7  -8 -19    5.61    1.49
  -7  -8 -20    2.71    1.08
   7  -9 -23    0.14    0.95
   7  -9 -22   18.64    1.49
   7  -9 -22   17.51    1.89
   7  -9 -21    5.83    1.92
   7  -9 -20   -0.19    2.28
   7  -9 -19   45.03    3.43
   7  -9 -18   11.45    3.04
   7  -9 -17   14.63    3.41
   7  -9 -16  149.51    7.18
   7  -9 -15  237.33   10.20
  -7  -9  15  224.48    9.29
   7  -9 -14   45.28    4.45
  -7  -9  14   41.07    3.09
   7  -9 -13  359.67   14.40
  -7  -9  13  340.11   13.76
   7  -9 -12    7.58    3.69
  -7  -9  12   10.25    2.72
   7  -9 -11   15.49    3.80
  -7  -9  11   16.96    2.95
  -7   9  11   13.92    2.02
  -7  -9  10   68.06    4.40
  -7   9  10   60.95    3.65
  -7  -9   9   81.06    5.08
  -7   9   9   76.04    4.22
  -7  -9   8   86.69    5.35
  -7  -9   7  197.63    8.74
  -7   9   7  178.25    8.17
  -7  -9   6   19.91    3.79
  -7   9   6   20.16    2.85
  -7  -9   5  653.89   24.91
  -7   9   5  633.31   24.65
  -7  -9   4  118.15    6.69
  -7   9   4  139.91    6.53
  -7   9   3   35.06    3.63
  -7   9   2  411.41   16.45
  -7  -9   1  106.72    6.13
  -7   9   1  101.30    5.72
  -7  -9   0   11.85    3.57
  -7   9   0    8.29    3.31
  -7  -9  -1    6.13    3.63
  -7   9  -1    5.28    3.34
  -7  -9  -2   74.54    5.02
  -7  -9  -3   -1.50    3.31
  -7  -9  -4   50.30    4.17
  -7   9  -4   49.86    4.46
  -7  -9  -5    1.14    1.79
  -7  -9  -5   -0.24    3.10
  -7   9  -5    1.65    3.26
  -7  -9  -6   23.38    2.40
  -7  -9  -6   22.60    3.21
  -7   9  -6   20.17    3.52
  -7   9  -7  184.32    8.34
  -7  -9  -7  184.10    8.14
  -7  -9  -7  176.16    7.68
  -7   9  -8  133.52    6.73
  -7  -9  -8  137.46    6.48
  -7  -9  -8  135.25    6.16
  -7   9  -9   42.56    3.72
  -7  -9  -9   47.47    3.46
  -7  -9  -9   52.24    3.38
  -7  -9 -10   38.32    2.93
  -7   9 -10   36.15    3.31
  -7  -9 -10   35.83    3.03
  -7  -9 -11    3.33    2.18
  -7   9 -11    3.05    2.45
  -7  -9 -11    3.04    1.82
  -7   9 -12   50.27    3.52
  -7  -9 -12   58.61    3.62
  -7  -9 -13   16.80    2.38
  -7   9 -13   18.21    2.29
  -7   9 -14   51.20    3.06
  -7  -9 -14   58.89    3.27
  -7  -9 -15    4.73    1.87
  -7  -9 -16   69.67    3.48
  -7  -9 -17   16.09    1.66
  -7  -9 -18   45.68    2.36
   7 -10 -21   82.84    3.61
   7 -10 -20   27.25    2.00
   7 -10 -20   17.09    1.72
   7 -10 -19   35.23    2.51
   7 -10 -19   30.17    2.40
   7 -10 -18   18.98    2.24
   7 -10 -18   24.58    2.45
   7 -10 -17   21.32    2.57
   7 -10 -16    1.92    2.54
   7 -10 -15   37.18    3.40
   7 -10 -14   11.89    3.08
  -7 -10  14   17.22    1.99
  -7 -10  13   56.58    3.43
   7 -10 -13   62.16    4.09
   7 -10 -12   24.59    3.37
  -7 -10  12   28.68    2.76
   7 -10 -11   14.14    3.08
  -7 -10  11   10.70    2.46
  -7  10  10  184.42    7.84
   7 -10 -10  197.02    8.53
  -7 -10  10  198.18    8.44
   7 -10  -9  159.66    7.26
  -7  10   9  151.21    6.81
  -7 -10   9  167.16    7.35
  -7  10   8  127.74    5.92
   7 -10  -8  130.04    6.26
  -7 -10   8  135.46    6.58
  -7  10   7   74.33    4.26
   7 -10  -7   76.80    4.41
  -7 -10   7   80.96    4.92
   7 -10  -6   82.94    4.47
  -7  10   6   81.25    4.49
  -7 -10   6   85.35    5.25
  -7  10   5   50.15    3.66
  -7 -10   5   56.06    4.64
  -7 -10   4    8.55    3.71
  -7  10   4   13.84    2.67
  -7  10   3  344.53   13.71
  -7 -10   3  328.12   13.97
  -7  10   2   14.44    3.09
  -7  10   1  292.54   12.26
  -7 -10   0    5.42    3.73
  -7  10   0    9.10    3.15
  -7  10  -1  639.38   25.40
  -7 -10  -1  681.34   25.45
  -7  10  -2   95.76    5.48
  -7 -10  -2   88.43    5.63
  -7 -10  -3  444.96   17.63
  -7 -10  -4   22.45    3.45
  -7 -10  -5    9.08    3.06
  -7  10  -5    8.49    3.13
  -7  10  -6   65.40    4.54
  -7 -10  -6   70.66    4.33
  -7 -10  -7   11.93    2.84
  -7  10  -7   15.72    3.02
  -7  10  -8    1.69    2.62
  -7 -10  -8    1.24    2.38
  -7 -10  -9   13.49    1.75
  -7  10  -9    9.24    2.60
  -7 -10  -9   11.49    2.38
  -7  10 -10   16.24    2.63
  -7 -10 -10   19.52    2.26
  -7 -10 -10   20.58    1.93
  -7 -10 -11    2.31    1.60
  -7 -10 -11    2.76    1.57
  -7  10 -11    3.53    2.14
  -7 -10 -12    6.68    1.56
  -7  10 -12    3.97    1.94
  -7  10 -13   32.22    2.36
  -7 -10 -13   32.96    2.13
  -7 -10 -14    1.37    1.17
  -7  10 -14    0.89    1.24
  -7 -10 -15    7.33    1.20
  -7 -10 -16    1.61    0.81
   7 -11 -19   -0.33    0.99
   7 -11 -18    5.23    1.28
   7 -11 -18    4.74    1.46
   7 -11 -17   51.90    2.80
   7 -11 -16   37.10    2.52
   7 -11 -15   53.41    3.12
   7 -11 -14    4.42    2.06
   7 -11 -13    5.43    2.07
  -7 -11  13    4.90    1.43
   7 -11 -12    2.84    2.05
  -7 -11  12    1.46    1.66
   7 -11 -11    5.17    2.14
  -7 -11  11    5.07    1.93
   7 -11 -10    2.90    2.07
  -7 -11  10    3.33    2.12
   7 -11  -9    1.87    1.94
  -7 -11   9   -0.77    2.41
  -7 -11   8    2.70    2.41
  -7  11   8    3.05    1.58
  -7  11   7   34.69    2.65
  -7 -11   7   33.13    3.50
  -7 -11   6   95.13    5.14
  -7  11   6   86.23    4.50
  -7 -11   5   26.76    3.44
  -7  11   5   22.32    2.72
  -7  11   4   76.07    4.23
  -7 -11   4   76.36    4.89
  -7  11   3   63.78    4.00
  -7 -11   3   67.95    4.70
  -7  11   2   32.22    3.14
  -7  11   1  111.22    5.68
  -7  11   0  119.81    5.99
  -7  11  -1  334.03   13.49
  -7 -11  -1  332.89   13.69
  -7  11  -2   41.09    3.49
  -7 -11  -2   40.56    3.95
  -7  11  -3  111.45    5.80
  -7 -11  -3  112.34    5.89
  -7 -11  -4    8.07    3.03
  -7 -11  -5   88.51    4.83
  -7  11  -6   34.78    3.31
  -7 -11  -6   35.79    3.20
  -7  11  -7  240.70   10.08
  -7 -11  -7  244.21    9.95
  -7  11  -8    3.92    2.32
  -7 -11  -8    4.86    2.15
  -7  11  -9   98.63    4.87
  -7 -11  -9   98.30    4.62
  -7  11 -10   -0.32    1.82
  -7 -11 -10    1.90    1.53
  -7  11 -11  122.37    5.36
  -7  11 -12    9.72    1.55
  -7  11 -13   77.88    3.49
   7 -12 -15  187.78    7.58
   7 -12 -14   55.47    3.16
   7 -12 -13    8.72    2.03
   7 -12 -12   63.40    3.67
  -7 -12  11    2.94    1.26
   7 -12 -11   -2.45    2.17
  -7 -12  10   62.23    3.19
   7 -12 -10   55.28    3.64
  -7 -12   9   12.30    1.93
   7 -12  -9    6.70    2.28
   7 -12  -8   22.81    2.70
  -7 -12   8   33.45    2.61
  -7  12   7    1.78    1.20
  -7 -12   7    2.05    2.17
   7 -12  -7   -1.13    2.16
  -7  12   6   20.06    1.80
   7 -12  -6   14.84    2.33
  -7 -12   5    4.41    2.44
  -7  12   5    4.38    1.59
   7 -12  -5    2.31    1.89
  -7 -12   4   29.32    3.12
  -7  12   4   25.60    2.31
   7 -12  -4   23.76    2.25
  -7  12   3  100.15    4.87
  -7 -12   3  109.75    5.39
  -7 -12   2   -0.13    2.67
  -7  12   2    1.87    1.91
  -7  12   1   64.13    3.66
  -7  12   0    1.31    2.03
  -7  12  -1  121.89    5.81
  -7 -12  -1  129.94    6.08
  -7  12  -2   12.20    2.39
  -7 -12  -2    7.60    2.64
  -7  12  -3  208.64    9.08
  -7 -12  -3  233.08    9.25
  -7  12  -4   51.81    3.55
  -7 -12  -4   62.64    3.67
  -7 -12  -5   55.90    3.46
  -7 -12  -6    1.32    1.97
  -7  12  -7   12.82    2.11
  -7 -12  -7   12.57    1.95
  -7  12  -8    1.20    1.68
  -7 -12  -8    0.71    1.47
  -7 -12  -9    0.90    1.20
  -7  12  -9    1.01    1.43
  -7  12 -10    1.13    1.23
  -7 -12 -10   -0.82    0.85
  -7  12 -11   20.49    1.57
  -7  12 -12    1.40    0.77
   7 -13 -12    3.48    1.06
   7 -13 -11  101.02    4.33
   7 -13 -10   48.52    2.60
  -7 -13   9  157.48    5.92
   7 -13  -9  134.99    6.03
  -7 -13   8   11.83    1.42
   7 -13  -8    8.71    1.47
  -7 -13   7  101.41    4.10
   7 -13  -7   78.82    3.88
  -7 -13   6    0.44    1.57
  -7 -13   5  230.27    9.22
  -7  13   4    2.18    1.10
  -7 -13   4    1.01    1.83
  -7  13   3   14.14    1.51
  -7 -13   3   16.23    2.17
  -7  13   2    1.39    1.30
  -7 -13   2   -1.15    1.89
  -7  13   1   30.84    2.12
  -7 -13   1   32.35    2.68
  -7  13   0    1.81    1.50
  -7  13  -1   11.29    1.74
  -7  13  -2    3.17    1.54
  -7 -13  -2    2.49    1.86
  -7  13  -3   80.60    3.88
  -7 -13  -3   85.45    4.04
  -7  13  -4   -0.47    1.41
  -7 -13  -4    0.13    1.59
  -7  13  -5   44.28    2.52
  -7 -13  -5   44.70    2.58
  -7 -13  -6   23.18    1.81
  -7 -13  -7    2.31    1.09
  -7  13  -8    2.49    0.99
  -7  13  -9    4.68    0.90
  -7 -14   4   24.95    1.59
  -7 -14   3   63.39    2.93
  -7 -14   2   66.56    3.06
  -7 -14   1    3.78    1.16
  -7 -14   0    9.43    1.27
  -7 -14  -2   42.19    2.18
  -7 -14  -3    1.17    0.92
   8   0 -26  127.63    5.70
   8   0 -25   -0.79    2.35
   8   0 -24  601.49   23.34
   8   0 -23   -0.81    3.38
   8   0 -22  699.04   27.38
   8   0 -21   -0.99    4.09
   8   0 -20  757.66   29.84
   8   0 -19   -3.98    3.17
  -8   0  19   -3.14    3.17
   8   0 -18  610.01   24.04
  -8   0  18  620.25   23.92
  -8   0  17    0.27    3.26
   8   0 -17    0.87    3.22
   8   0 -16  280.53   12.53
  -8   0  16  309.32   12.51
   8   0 -15    1.48    3.16
  -8   0  15    2.27    2.99
   8   0 -14  180.97    8.63
  -8   0  14  193.13    8.65
   8   0 -13    2.19    3.23
  -8   0  13    1.72    3.24
  -8   0  12  131.96    6.72
   8   0 -12  141.12    6.97
   8   0 -11   -3.10    3.25
  -8   0  11    2.71    2.83
   8   0 -10  331.03   13.53
   8   0  -9   -0.60    2.86
   8   0  -8   22.06    3.06
  -8   0   8   15.83    2.67
  -8   0   7    1.71    2.32
   8   0  -7    3.14    2.55
   8   0  -6    0.27    2.46
  -8   0   6    0.26    2.05
  -8   0   5   -0.18    2.04
   8   0  -5    1.96    2.45
  -8   0   5    0.51    1.88
  -8   0   4    4.23    2.15
  -8   0   4    3.61    1.89
  -8   0   3    1.58    2.08
  -8   0   3    0.91    1.79
  -8   0   2  114.53    5.48
  -8   0   2  112.91    5.22
  -8   0   1    1.87    2.23
  -8   0   1   -0.29    1.81
  -8   0   0   83.94    4.81
  -8   0   0  107.10    4.63
  -8   0  -1    1.05    2.13
  -8   0  -1    0.65    1.54
  -8   0  -2   17.24    2.49
  -8   0  -2   18.44    1.87
  -8   0  -3    0.18    2.22
  -8   0  -4  187.42    8.03
  -8   0  -5    1.45    2.35
  -8   0  -6   26.23    2.89
  -8   0  -7    1.53    2.58
  -8   0  -7    1.95    2.76
  -8   0  -8   45.35    3.99
  -8   0  -8   51.64    3.75
  -8   0  -9   -1.05    2.63
  -8   0  -9    0.63    3.16
  -8   0 -10  279.35   11.86
  -8   0 -10  282.45   11.64
  -8   0 -11    2.46    2.62
  -8   0 -11   -1.25    3.23
  -8   0 -12 2115.84   77.86
  -8   0 -12 2099.75   77.65
  -8   0 -13    4.99    2.83
  -8   0 -13   -1.19    3.56
  -8   0 -14 1300.12   50.44
  -8   0 -14 1388.01   50.16
  -8   0 -15    6.53    2.62
  -8   0 -15    1.50    3.66
  -8   0 -16  326.45   13.04
  -8   0 -16  328.52   13.48
  -8   0 -17    4.65    2.26
  -8   0 -17    3.40    3.35
  -8   0 -18  269.76   10.57
  -8   0 -18  233.92    9.90
  -8   0 -19    0.68    1.72
  -8   0 -19    4.25    2.80
  -8   0 -20   59.83    3.63
  -8   0 -20   47.24    2.64
  -8   0 -21    2.11    2.02
  -8   0 -22   88.48    4.10
  -8   0 -23   -0.64    1.20
   8  -1 -27   47.59    2.73
   8   1 -26    2.48    1.35
   8  -1 -26    6.07    2.03
   8   1 -25   48.84    3.08
   8  -1 -25   49.09    3.79
   8   1 -24    1.72    2.45
   8  -1 -24   -0.66    3.21
   8  -1 -23   47.81    4.64
   8   1 -23   49.87    4.05
   8   1 -22   19.93    3.58
   8  -1 -22   19.30    4.21
   8  -1 -22   17.26    2.63
   8   1 -21    7.29    3.78
   8  -1 -21   10.03    4.54
   8   1 -20   10.26    3.91
   8  -1 -20   13.84    4.88
  -8  -1  20    5.53    2.66
   8  -1 -19   72.58    5.29
  -8  -1  19   77.27    4.85
   8  -1 -18  183.67    9.18
   8   1 -18  194.39    8.78
  -8  -1  18  201.09    8.83
  -8   1  18  195.87    9.00
  -8   1  17   15.90    3.61
   8  -1 -17   11.62    4.05
   8   1 -17   17.17    3.32
  -8  -1  17   22.26    3.44
   8  -1 -16  102.79    6.59
   8   1 -16  112.14    6.22
  -8   1  16  116.22    6.34
  -8  -1  16  122.76    6.29
   8  -1 -15   12.95    3.73
   8   1 -15   17.63    3.44
  -8   1  15   22.18    3.69
  -8  -1  15   16.73    3.56
   8   1 -14  162.53    7.54
  -8  -1  14  160.10    7.47
  -8   1  14  163.69    7.65
   8  -1 -13   71.74    4.99
   8   1 -13   69.13    4.88
  -8   1  13   73.80    4.88
  -8  -1  13   67.49    4.55
   8  -1 -12  106.12    6.13
   8   1 -12  121.21    6.12
  -8  -1  12  103.52    5.88
  -8   1  12  108.93    5.97
   8  -1 -11   68.41    4.81
   8   1 -11   64.35    4.54
  -8  -1  11   62.21    4.39
   8  -1 -10  311.00   13.12
   8   1 -10  324.30   12.99
   8  -1  -9   53.61    4.16
   8   1  -9   51.10    3.91
  -8   1   9   55.65    3.88
   8  -1  -8   15.14    3.01
   8   1  -8   14.43    2.83
  -8   1   8   16.77    2.73
  -8  -1   8   16.66    2.82
   8   1  -7   35.56    3.21
   8  -1  -7   28.41    3.27
  -8   1   7   32.31    2.93
  -8  -1   7   33.89    3.01
  -8  -1   6  128.84    5.97
   8   1  -6  125.92    6.07
  -8   1   6  127.84    5.97
  -8  -1   6  129.60    5.90
   8   1  -5   67.31    3.86
  -8   1   5   51.67    3.49
  -8  -1   5   61.94    3.64
  -8  -1   5   56.67    3.59
  -8  -1   4   59.72    3.56
  -8   1   4   57.34    3.48
  -8  -1   4   62.01    3.55
   8  -1  -3  284.26   11.57
  -8   1   3  286.27   11.43
  -8  -1   3  288.81   11.43
  -8  -1   3  284.16   11.45
   8  -1  -2   65.60    3.91
  -8  -1   2   56.35    3.72
  -8   1   2   62.94    3.48
  -8  -1   2   67.42    3.59
  -8   1   2   60.75    3.69
  -8  -1   2   58.98    3.63
  -8  -1   1  459.10   17.35
  -8   1   1  461.24   17.34
  -8  -1   1  439.75   17.43
  -8   1   1  455.81   17.39
  -8  -1   1  438.13   17.37
  -8   1   0    3.43    2.11
  -8  -1   0    1.24    1.70
  -8  -1   0    3.35    2.10
  -8   1   0    2.31    2.26
  -8  -1   0    4.71    2.30
  -8   1   0    4.28    1.63
  -8   1  -1  100.21    4.99
  -8  -1  -1   90.25    4.93
  -8  -1  -1  104.98    4.67
  -8   1  -1   97.41    4.56
  -8   1  -1   96.11    4.82
  -8   1  -2   26.43    2.56
  -8  -1  -2   30.68    2.29
  -8   1  -2   27.99    2.80
  -8  -1  -2   25.86    2.82
  -8   1  -3    1.69    2.05
  -8   1  -3    2.35    2.35
  -8  -1  -3    2.82    2.39
  -8  -1  -3    3.87    1.50
  -8  -1  -4  255.82   10.18
  -8   1  -4  241.46   10.13
  -8   1  -4  235.49    9.95
  -8   1  -5    8.03    2.34
  -8  -1  -5    6.99    2.54
  -8   1  -5    7.59    2.59
  -8  -1  -5    4.88    2.63
  -8   1  -6  158.75    7.41
  -8  -1  -6  164.49    7.55
  -8   1  -6  165.74    7.23
  -8  -1  -6  161.21    7.41
  -8   1  -6  169.19    7.28
  -8   1  -7   44.82    3.71
  -8   1  -7   44.44    3.13
  -8   1  -7   46.14    3.41
  -8  -1  -7   47.44    3.76
  -8   1  -8   24.82    2.90
  -8  -1  -8   29.13    3.39
  -8   1  -8   25.13    3.32
  -8   1  -9   75.89    4.77
  -8   1  -9   79.19    4.45
  -8  -1  -9   80.69    4.76
  -8   1 -10   17.57    2.90
  -8  -1 -10   17.52    3.25
  -8   1 -10   19.22    3.40
  -8   1 -11  327.61   13.50
  -8   1 -11  328.96   13.21
  -8  -1 -11  330.65   13.48
  -8   1 -12  169.35    8.27
  -8   1 -12  182.26    7.82
  -8  -1 -12  178.73    8.24
  -8   1 -13    9.98    2.57
  -8  -1 -13    7.09    3.01
  -8   1 -13   12.64    3.44
  -8   1 -14   37.08    3.83
  -8   1 -14   36.54    3.00
  -8   1 -15   19.31    2.52
  -8  -1 -15   20.49    3.24
  -8   1 -15   14.06    3.41
  -8  -1 -15   18.09    4.03
  -8   1 -16   -1.76    2.11
  -8  -1 -16   -1.05    2.57
  -8   1 -16   -0.23    2.97
  -8  -1 -16    3.58    3.79
  -8   1 -17   43.84    3.74
  -8  -1 -17   39.13    4.04
  -8   1 -17   41.37    2.85
  -8  -1 -17   40.73    3.41
  -8   1 -18   13.14    1.93
  -8  -1 -18   16.08    2.37
  -8   1 -18   14.74    2.89
  -8  -1 -18   11.78    3.23
  -8  -1 -19    9.62    2.05
  -8   1 -19    7.02    2.45
  -8  -1 -19    5.71    2.99
  -8   1 -20   33.94    2.74
  -8  -1 -20   28.30    2.27
  -8  -1 -20   35.65    3.18
  -8  -1 -21    9.90    1.40
  -8  -1 -21   14.47    2.32
  -8   1 -21   10.41    1.88
  -8  -1 -22  117.75    4.82
  -8   1 -22   93.95    4.48
  -8  -1 -23   49.79    2.62
   8  -2 -27   13.71    1.76
   8  -2 -26    2.69    2.11
   8  -2 -25    0.71    2.69
   8   2 -24    4.77    1.81
   8  -2 -24    5.16    3.26
   8   2 -23    0.43    2.22
   8  -2 -23    0.43    3.71
   8  -2 -23    1.99    2.06
   8   2 -22   12.16    2.89
   8  -2 -22   14.85    4.21
   8  -2 -22   12.71    2.84
   8   2 -21   12.22    3.19
   8  -2 -21   14.21    4.62
   8   2 -20   30.53    3.79
   8  -2 -20   34.21    5.33
  -8  -2  20   25.21    2.94
   8   2 -19    7.54    3.35
   8  -2 -19    0.69    3.81
  -8  -2  19    3.52    2.54
   8  -2 -18   39.07    4.82
  -8  -2  18   49.22    4.13
   8  -2 -17   50.52    4.96
  -8  -2  17   58.77    4.30
  -8   2  16   96.24    5.99
   8  -2 -16   89.11    6.26
   8   2 -16  104.13    5.47
  -8  -2  16  106.25    5.72
   8   2 -15   45.55    3.78
   8  -2 -15   43.07    4.70
  -8  -2  15   46.16    3.92
  -8   2  15   50.52    4.37
   8  -2 -14   26.73    4.06
   8   2 -14   29.09    3.44
  -8   2  14   24.87    3.83
  -8  -2  14   31.16    3.40
   8  -2 -13  148.19    7.70
  -8   2  13  148.11    7.58
   8   2 -13  154.35    7.33
  -8  -2  13  152.39    7.37
   8  -2 -12   60.47    4.91
   8   2 -12   62.86    4.39
  -8  -2  12   59.06    4.45
  -8  -2  11  164.75    7.86
   8  -2 -11  174.43    8.22
   8   2 -11  172.31    7.80
   8  -2 -10   31.82    3.80
   8   2 -10   29.01    3.10
  -8  -2  10   23.31    3.26
  -8   2  10   25.86    3.49
   8  -2  -9   13.10    3.35
   8   2  -9   11.12    2.72
  -8   2   9   11.78    2.85
   8   2  -8  463.35   18.43
  -8   2   8  486.08   18.53
   8   2  -7   81.87    4.53
  -8   2   7   77.52    4.48
  -8  -2   7   75.59    4.31
   8   2  -6  400.75   16.02
  -8  -2   6  419.77   16.05
  -8   2   6  409.76   16.07
  -8  -2   6  407.12   15.92
   8  -2  -5  332.85   13.59
  -8   2   5  344.32   13.46
  -8  -2   5  331.47   13.37
  -8  -2   5  339.74   13.29
  -8   2   4 1183.52   43.19
   8  -2  -4 1147.11   43.27
  -8  -2   4 1146.84   43.14
  -8  -2   4 1163.74   43.07
   8  -2  -3   77.58    4.42
  -8   2   3   75.49    4.09
  -8  -2   3   79.61    4.12
  -8   2   3   71.40    4.09
  -8  -2   3   71.01    4.04
   8  -2  -2 2088.28   76.57
  -8  -2   2 2047.93   76.49
  -8   2   2 2055.76   76.50
  -8  -2   2 2084.38   76.49
  -8   2   2 2144.84   76.49
  -8  -2   2 2066.90   76.47
   8  -2  -1  182.01    7.85
  -8  -2   1  176.33    7.72
  -8   2   1  180.77    7.64
  -8  -2   1  182.68    7.68
  -8   2   1  183.06    7.75
  -8  -2   1  182.15    7.72
   8  -2   0 2039.23   75.11
  -8   2   0 2086.08   75.13
  -8  -2   0 2042.28   75.11
  -8   2   0 2001.75   75.00
  -8  -2   0 2062.34   75.05
  -8   2   0 2009.45   75.02
  -8  -2   0 2061.72   75.08
  -8   2  -1  344.64   13.60
   8  -2   1  355.72   13.82
  -8   2  -1  351.69   13.80
  -8  -2  -1  342.24   13.81
  -8  -2  -1  353.61   13.66
  -8   2  -1  352.30   13.71
  -8  -2  -1  346.62   13.78
  -8   2  -2  489.13   18.62
  -8  -2  -2  472.19   18.64
  -8  -2  -2  496.45   18.45
  -8   2  -2  480.20   18.49
  -8  -2  -2  471.30   18.59
  -8   2  -3   93.49    4.70
  -8  -2  -3   89.16    4.71
  -8  -2  -3   85.18    4.21
  -8   2  -3   84.52    4.46
  -8  -2  -3   81.30    4.65
  -8  -2  -4  150.70    6.79
  -8   2  -4  145.15    6.65
  -8   2  -4  151.95    6.50
  -8  -2  -4  138.99    6.20
  -8   2  -5  484.17   18.97
  -8  -2  -5  497.07   19.07
  -8   2  -5  493.27   18.79
  -8   2  -5  486.22   19.02
  -8   2  -6  129.68    6.42
  -8  -2  -6  137.85    6.63
  -8   2  -6  136.88    6.17
  -8   2  -6  137.30    6.33
  -8   2  -7   27.72    2.85
  -8   2  -7   34.18    3.33
  -8  -2  -7   28.97    3.49
  -8   2  -7   30.66    2.85
  -8   2  -8   24.17    2.80
  -8  -2  -8   28.01    3.54
  -8   2  -8   28.20    3.20
  -8  -2  -8   26.60    3.57
  -8   2  -8   29.21    2.65
  -8   2  -9  182.06    8.00
  -8  -2  -9  176.83    8.30
  -8   2  -9  177.27    7.76
  -8  -2  -9  177.17    8.30
  -8  -2 -10  354.52   15.17
  -8   2 -10  371.23   14.88
  -8   2 -10  385.96   14.68
  -8  -2 -10  370.19   15.03
  -8  -2 -11  136.52    7.34
  -8   2 -11  149.13    6.99
  -8   2 -11  141.63    6.55
  -8  -2 -11  152.65    7.22
  -8   2 -12  335.58   13.52
  -8  -2 -12  321.28   13.89
  -8   2 -12  334.80   13.18
  -8  -2 -12  334.23   13.68
  -8   2 -13    2.50    2.21
  -8  -2 -13    5.66    3.58
  -8   2 -13    6.46    3.17
  -8  -2 -13    3.06    3.59
  -8   2 -14    5.71    2.09
  -8  -2 -14    6.06    3.56
  -8   2 -14    7.13    2.93
  -8   2 -15    3.50    1.96
  -8  -2 -15    6.48    3.27
  -8   2 -15    3.99    3.02
  -8   2 -16    6.44    1.81
  -8  -2 -16    7.80    3.02
  -8   2 -16    9.92    2.84
  -8   2 -17   65.93    4.09
  -8  -2 -17   59.14    4.26
  -8   2 -18   87.64    4.69
  -8  -2 -18   89.45    4.78
  -8  -2 -19   18.43    2.47
  -8   2 -19   14.82    2.34
  -8   2 -20   24.01    2.33
  -8  -2 -20   33.39    2.46
  -8  -2 -21    0.52    1.39
  -8   2 -21    0.79    1.38
  -8  -2 -21    2.70    2.16
  -8   2 -22   23.33    1.60
  -8  -2 -22   24.27    1.65
  -8  -2 -23    2.01    1.22
   8  -3 -27    4.76    1.43
   8  -3 -26   10.71    2.19
   8  -3 -26    5.51    1.35
   8  -3 -25    7.33    2.63
   8  -3 -24    7.07    3.22
   8  -3 -24    3.56    1.81
   8  -3 -23   16.91    4.02
   8  -3 -23   21.83    2.67
   8  -3 -22   80.16    4.71
   8  -3 -22   73.71    5.84
   8  -3 -21   22.23    3.52
  -8  -3  21   21.56    2.35
  -8  -3  20  546.82   20.90
   8   3 -20  537.38   21.08
   8   3 -19   19.64    3.09
  -8  -3  19   25.02    2.89
   8   3 -18  148.97    7.25
   8  -3 -18  131.11    7.79
  -8  -3  18  151.09    6.98
   8  -3 -17   41.21    5.17
  -8  -3  17   50.34    4.00
   8  -3 -16   34.29    5.05
  -8  -3  16   47.14    3.93
   8  -3 -15  102.77    6.90
  -8  -3  15  128.43    6.19
   8  -3 -14  294.20   13.01
   8   3 -14  298.58   12.27
  -8   3  14  297.69   12.82
  -8  -3  14  306.88   12.52
  -8  -3  13    3.10    3.08
  -8   3  13   -1.40    3.44
   8  -3 -13   -0.57    3.99
   8   3 -13    6.19    2.60
   8  -3 -12  105.79    6.26
   8   3 -12  108.38    5.63
  -8  -3  12  103.02    5.70
   8  -3 -11   27.79    4.34
   8   3 -11   23.44    3.07
  -8  -3  11   20.74    3.23
   8   3 -10  663.96   25.16
  -8   3  10  644.27   25.35
  -8  -3  10  665.09   25.26
   8   3  -9    3.31    2.53
  -8   3   9    1.39    2.81
  -8  -3   9    0.90    2.62
   8   3  -8   20.70    2.76
  -8   3   8   18.70    2.97
   8  -3  -7  153.84    7.59
   8   3  -7  156.64    7.16
  -8   3   7  166.02    7.33
  -8  -3   6    5.82    2.13
  -8   3   6    5.55    2.35
   8  -3  -6    2.42    2.88
  -8  -3   6    5.44    2.39
  -8  -3   5    4.37    1.98
   8  -3  -5   -1.97    2.91
  -8   3   5    1.72    2.21
  -8  -3   5    4.36    2.43
  -8  -3   4    0.88    1.86
   8  -3  -4    2.89    2.83
  -8   3   4   -0.21    2.02
  -8  -3   4   -0.27    2.16
   8  -3  -3   55.28    3.87
  -8   3   3   56.75    3.55
  -8  -3   3   54.71    3.51
  -8  -3   3   53.47    3.29
   8  -3  -2   68.74    4.16
  -8  -3   2   65.67    3.75
  -8  -3   2   64.98    3.72
  -8   3   2   62.50    3.71
  -8  -3   2   65.76    3.69
  -8   3   2   60.47    3.62
  -8   3   1   32.82    2.73
  -8  -3   1   29.50    2.69
  -8   3   1   27.19    2.48
   8  -3  -1   28.45    3.03
  -8  -3   1   30.59    2.72
  -8  -3   1   31.85    2.73
   8  -3   0   67.63    3.88
  -8  -3   0   59.74    3.64
  -8   3   0   58.54    3.35
  -8  -3   0   59.55    3.53
  -8   3   0   59.84    3.59
  -8  -3   0   61.81    3.72
   8  -3   1   77.82    4.33
  -8   3  -1   77.74    4.30
  -8  -3  -1   84.92    4.26
  -8  -3  -1   78.89    4.20
  -8   3  -1   73.44    4.15
  -8  -3  -1   81.68    4.28
   8  -3   2  384.08   15.05
  -8   3  -2  380.37   15.03
  -8  -3  -2  391.55   15.09
  -8  -3  -2  382.27   14.94
  -8   3  -2  388.75   14.91
  -8  -3  -2  372.19   15.08
  -8   3  -3   13.74    2.30
  -8  -3  -3   18.19    2.68
   8  -3   3   17.71    2.59
  -8   3  -3   16.41    2.46
  -8  -3  -3   14.69    2.53
  -8  -3  -3   17.52    2.10
   8  -3   4  100.62    4.89
  -8   3  -4   96.13    4.91
  -8  -3  -4   97.42    5.08
  -8   3  -4   94.61    4.71
  -8  -3  -4   99.44    4.64
  -8  -3  -4   89.97    5.10
  -8   3  -4   91.49    5.00
  -8   3  -5   13.85    2.31
  -8  -3  -5   16.07    2.89
  -8   3  -5   14.99    2.61
   8  -3   5   13.26    2.28
  -8   3  -5   15.09    2.55
  -8  -3  -5   12.37    2.70
  -8  -3  -5   13.01    1.91
   8  -3   6  234.00    9.55
  -8   3  -6  226.02    9.73
  -8  -3  -6  236.14    9.99
  -8   3  -6  239.15    9.88
  -8   3  -6  231.06    9.51
  -8  -3  -6  231.61   10.00
  -8   3  -7    2.00    2.02
  -8   3  -7    3.14    2.23
  -8  -3  -7    3.85    3.07
   8  -3   7    3.39    2.10
  -8   3  -7    4.70    2.66
  -8  -3  -7    4.15    2.89
   8  -3   8  307.85   11.91
  -8   3  -8  285.90   12.16
  -8  -3  -8  306.80   12.48
  -8   3  -8  294.20   12.28
  -8   3  -8  302.16   11.92
  -8   3  -9   13.74    2.25
  -8   3  -9   12.25    2.75
  -8  -3  -9   14.04    3.28
  -8   3  -9   14.43    2.50
  -8   3 -10   16.05    2.30
  -8   3 -10   15.91    2.66
  -8  -3 -10   15.40    3.52
  -8   3 -11  173.20    7.77
  -8  -3 -11  173.21    8.24
  -8   3 -11  176.97    7.38
  -8  -3 -11  162.85    8.28
  -8   3 -12  770.83   29.09
  -8  -3 -12  781.16   29.41
  -8   3 -12  751.30   28.78
  -8  -3 -12  783.03   29.41
  -8   3 -13   96.15    5.33
  -8  -3 -13  104.49    6.05
  -8   3 -13   97.14    4.69
  -8  -3 -13   97.94    6.07
  -8   3 -14  218.50    9.54
  -8  -3 -14  232.20   10.16
  -8  -3 -14  236.40   10.19
  -8  -3 -15    7.08    3.61
  -8   3 -15   11.95    2.78
  -8  -3 -15   13.25    3.56
  -8  -3 -16    5.83    3.44
  -8   3 -16   10.78    2.45
  -8  -3 -16    6.94    3.35
  -8  -3 -17   23.99    3.39
  -8   3 -17   17.34    2.55
  -8  -3 -17   24.42    3.64
  -8  -3 -18   14.22    3.01
  -8   3 -18    9.72    2.14
  -8  -3 -18   11.86    3.08
  -8  -3 -19   53.10    3.62
  -8  -3 -19   48.99    3.29
  -8  -3 -20   24.83    2.37
  -8   3 -20   20.76    1.82
  -8  -3 -20   27.29    2.83
  -8  -3 -21   34.36    2.78
  -8  -3 -21   34.48    2.29
  -8  -3 -22   24.88    1.70
   8  -4 -26   38.20    2.36
   8  -4 -25   93.07    4.62
   8  -4 -24   39.17    2.69
   8  -4 -23   83.14    4.50
   8  -4 -22  116.58    5.96
   8  -4 -21   42.64    4.78
   8  -4 -21   48.91    4.06
  -8  -4  20  235.46    9.77
   8  -4 -20  241.15   11.06
   8  -4 -19  169.46    8.79
  -8  -4  19  160.20    7.28
   8  -4 -18  364.28   15.85
  -8  -4  18  391.92   15.21
   8  -4 -17  206.41   10.78
  -8  -4  17  243.69    9.96
   8  -4 -16   57.52    5.55
  -8  -4  16   61.79    4.31
   8  -4 -15  635.73   25.50
  -8  -4  15  657.88   25.03
   8  -4 -14   44.68    5.17
  -8  -4  14   40.30    3.82
   8  -4 -13  213.11   10.44
  -8  -4  13  236.08    9.91
  -8  -4  12  127.48    6.56
   8   4 -11    5.97    2.49
  -8  -4  11    5.78    3.19
  -8   4  10  214.58    9.63
   8   4 -10  217.53    9.26
  -8  -4  10  224.84    9.58
   8   4  -9   44.14    3.31
   8  -4  -9   39.32    4.26
  -8   4   9   40.37    3.80
  -8  -4   9   37.95    3.76
   8  -4  -8   25.68    3.78
   8   4  -8   24.56    2.90
  -8   4   8   26.55    3.43
   8  -4  -7   10.90    3.45
   8   4  -7   14.35    2.56
  -8   4   7   10.40    2.86
  -8  -4   6    7.90    1.98
   8  -4  -6   10.34    3.16
  -8   4   6    6.85    2.51
  -8  -4   6    4.42    2.73
   8  -4  -5   24.38    3.42
  -8   4   5   24.04    2.98
  -8  -4   5   31.34    3.16
  -8  -4   5   29.62    2.45
   8  -4  -4   47.96    3.93
  -8   4   4   48.57    3.30
  -8  -4   4   44.25    3.59
  -8  -4   4   46.78    3.10
   8  -4  -3   21.33    3.12
  -8   4   3   23.37    2.58
  -8  -4   3   27.94    2.85
  -8  -4   3   27.39    2.47
  -8  -4   2   25.74    2.45
   8  -4  -2   23.31    3.12
  -8   4   2   24.07    2.53
  -8  -4   2   25.84    2.79
  -8   4   1   37.24    2.80
   8  -4  -1   34.14    3.19
  -8  -4   1   32.52    3.05
  -8  -4   1   38.53    2.88
  -8  -4   1   33.89    2.85
  -8  -4   0    9.94    2.40
   8  -4   0    7.68    2.60
  -8  -4   0   10.61    2.23
  -8  -4   0   14.27    2.44
   8  -4   1   41.75    3.30
  -8  -4  -1   46.61    3.18
  -8  -4  -1   44.49    3.05
  -8   4  -1   40.02    3.02
  -8  -4  -1   43.97    3.28
  -8   4  -2    3.80    1.88
  -8  -4  -2    6.20    2.43
  -8   4  -2    6.30    2.60
   8  -4   2    3.12    2.39
  -8  -4  -2    2.43    2.18
  -8  -4  -2    3.34    2.16
   8  -4   3  285.30   11.16
  -8  -4  -3  271.90   11.11
  -8   4  -3  269.85   11.11
  -8  -4  -3  279.18   11.23
  -8   4  -3  273.71   11.01
  -8  -4  -3  283.38   11.31
  -8   4  -3  264.40   11.38
   8  -4   4  215.12    8.77
  -8   4  -4  206.66    8.75
  -8  -4  -4  208.69    8.88
  -8  -4  -4  211.16    8.72
  -8   4  -4  207.54    8.61
  -8   4  -4  210.78    9.07
  -8  -4  -4  201.81    8.97
   8  -4   5   92.31    4.46
  -8   4  -5   83.25    4.61
  -8  -4  -5   90.76    4.84
  -8  -4  -5   77.57    4.31
  -8   4  -5   88.81    4.90
  -8   4  -5   91.35    4.35
  -8  -4  -5   83.31    4.90
   8  -4   6   48.76    3.07
  -8   4  -6   41.45    3.20
  -8  -4  -6   38.47    2.81
  -8  -4  -6   51.72    3.58
  -8   4  -6   42.74    3.56
  -8   4  -6   40.34    2.89
  -8  -4  -6   46.92    3.85
  -8   4  -7  125.38    5.95
  -8  -4  -7  144.85    6.45
  -8   4  -7  130.27    6.30
  -8   4  -7  124.40    5.74
  -8  -4  -7  122.44    6.54
  -8   4  -8   47.89    3.41
  -8  -4  -8   46.69    3.78
  -8   4  -8   41.96    3.57
  -8   4  -8   44.48    2.94
  -8  -4  -8   45.98    4.11
  -8  -4  -9  113.99    5.91
  -8   4  -9  103.04    5.56
  -8   4  -9  111.07    5.03
  -8  -4  -9  103.16    6.18
  -8   4 -10  114.86    5.43
  -8  -4 -10  107.54    5.96
  -8   4 -10  111.78    5.59
  -8   4 -10  108.94    4.99
  -8  -4 -10   96.16    6.27
  -8   4 -11  121.40    6.01
  -8  -4 -11  127.35    6.57
  -8  -4 -12  701.32   26.66
  -8   4 -12  688.37   26.26
  -8   4 -13  157.95    7.06
  -8  -4 -13  157.33    7.64
  -8  -4 -14  174.09    7.98
  -8   4 -14  166.08    7.38
  -8  -4 -14  168.82    8.14
  -8   4 -15   82.74    4.42
  -8  -4 -15   87.81    5.27
  -8  -4 -15   89.88    5.53
  -8   4 -16  196.50    8.47
  -8  -4 -16  217.33    9.18
  -8  -4 -16  213.48    9.14
  -8   4 -17  154.86    6.63
  -8  -4 -17  169.83    7.35
  -8  -4 -17  153.22    7.41
  -8  -4 -18  208.02    8.35
  -8  -4 -18  208.17    8.42
  -8  -4 -19   35.50    2.99
  -8  -4 -19   31.34    2.93
  -8  -4 -20   37.89    2.73
  -8  -4 -20   33.61    2.65
  -8  -4 -21   42.78    2.61
  -8  -4 -21   38.12    2.41
  -8  -4 -22   42.60    2.18
  -8  -4 -22   33.13    2.00
   8  -5 -26    6.14    1.37
   8  -5 -25   13.12    1.88
   8  -5 -25   10.02    1.22
   8  -5 -24   22.75    2.69
   8  -5 -24   22.73    2.07
   8  -5 -23    1.79    2.77
   8  -5 -23    1.30    2.21
   8  -5 -22   69.13    4.26
   8  -5 -22   67.49    4.65
   8  -5 -21  137.02    6.60
   8  -5 -21  119.29    6.93
   8  -5 -20    0.63    3.84
   8  -5 -20   -5.15    3.46
   8  -5 -19  290.97   13.04
  -8  -5  19  302.45   11.99
   8  -5 -18  126.53    7.27
  -8  -5  18  122.41    5.94
  -8  -5  17    8.96    2.59
  -8   5  16   12.55    1.98
   8  -5 -16    5.95    4.97
  -8  -5  16   11.72    3.06
   8  -5 -15   80.92    6.56
  -8  -5  15   84.93    5.04
  -8  -5  14  314.83   13.01
  -8  -5  13    6.48    3.24
  -8  -5  12   17.90    3.33
   8  -5 -11   58.80    5.50
  -8  -5  11   67.91    4.61
   8  -5 -10   32.63    4.41
  -8  -5  10   23.57    3.55
   8  -5  -9   87.30    5.97
   8   5  -9  103.95    5.07
  -8  -5   9   99.73    5.57
   8  -5  -8   29.19    4.00
   8   5  -8   27.51    2.85
  -8  -5   8   32.51    3.60
   8  -5  -7    1.01    3.37
   8   5  -7    5.43    2.24
   8  -5  -6  161.92    7.68
  -8  -5   6  161.05    6.89
   8  -5  -5  190.33    8.50
  -8  -5   5  170.91    8.25
  -8  -5   5  189.71    7.74
  -8  -5   4   26.52    2.44
   8  -5  -4   31.67    3.39
  -8  -5   4   27.42    3.40
   8  -5  -3   79.99    4.81
  -8  -5   3   77.82    4.59
  -8  -5   3   77.92    4.07
   8  -5  -2   75.15    4.64
  -8  -5   2   80.47    4.63
  -8  -5   2   76.52    4.11
   8  -5  -1   97.02    5.23
  -8  -5   1   98.60    5.13
  -8  -5   1   96.56    4.83
  -8   5   1   98.02    5.28
   8  -5   0   30.25    3.07
  -8  -5   0   35.93    2.79
  -8  -5   0   36.01    3.35
  -8  -5   0   40.12    3.08
  -8   5   0   35.93    3.34
  -8   5  -1   26.35    3.17
   8  -5   1   29.66    2.92
  -8  -5  -1   31.68    2.65
  -8  -5  -1   36.50    3.21
  -8  -5  -1   30.47    2.81
  -8  -5  -2    4.84    2.34
  -8   5  -2    1.16    2.80
   8  -5   2    1.62    2.30
  -8  -5  -2    1.71    2.02
  -8  -5  -2    1.91    2.18
   8  -5   3  201.32    8.51
  -8  -5  -3  208.92    8.51
  -8  -5  -3  195.36    8.54
  -8   5  -3  192.33    8.88
  -8  -5  -3  201.26    8.70
  -8   5  -4    1.26    2.59
  -8  -5  -4    3.11    2.75
   8  -5   4    5.47    2.09
  -8  -5  -4    1.57    2.12
  -8  -5  -4    3.07    2.30
  -8   5  -5   70.67    3.89
  -8  -5  -5   78.81    4.27
  -8  -5  -5   70.78    3.98
  -8   5  -5   63.74    4.41
  -8  -5  -5   71.76    4.53
  -8  -5  -6    6.85    3.19
  -8   5  -6    8.47    2.16
  -8  -5  -6    8.54    2.47
  -8  -5  -6    7.67    2.17
  -8   5  -6    7.66    2.73
  -8  -5  -7  197.13    8.58
  -8  -5  -7  194.46    8.23
  -8   5  -7  186.24    8.20
  -8   5  -7  199.28    8.73
  -8  -5  -7  211.66    8.87
  -8  -5  -8   11.07    3.25
  -8   5  -8    9.89    2.18
  -8  -5  -8    8.96    2.64
  -8   5  -8    7.66    2.58
  -8  -5  -9    8.07    3.56
  -8   5  -9    4.44    2.16
  -8  -5  -9    7.17    2.67
  -8   5  -9    6.06    2.69
  -8  -5 -10   29.20    3.99
  -8  -5 -10   36.20    3.41
  -8   5 -10   29.04    2.71
  -8   5 -10   25.27    2.97
  -8  -5 -11    8.22    3.71
  -8   5 -11   10.10    2.27
  -8  -5 -11    8.62    3.08
  -8   5 -11    4.47    2.43
  -8   5 -12  149.23    6.58
  -8  -5 -12  152.59    7.22
  -8  -5 -12  155.61    7.71
  -8   5 -13  213.31    8.65
  -8  -5 -13  209.23    9.27
  -8  -5 -13  208.39    9.66
  -8   5 -14   29.83    2.40
  -8  -5 -14   30.33    3.36
  -8  -5 -15  111.38    5.65
  -8  -5 -16   69.95    4.21
  -8  -5 -17  103.78    5.10
  -8  -5 -17   92.21    5.33
  -8  -5 -18  130.98    5.91
  -8  -5 -18  130.75    6.14
  -8  -5 -19    1.47    2.29
  -8  -5 -19    3.21    1.91
  -8  -5 -20  117.04    5.19
  -8  -5 -20  126.26    5.35
  -8  -5 -21    0.43    1.25
  -8  -5 -21    1.01    1.16
   8  -6 -25   -0.16    1.11
   8  -6 -25    1.20    1.29
   8  -6 -24    4.40    1.68
   8  -6 -24    1.02    1.79
   8  -6 -24    2.38    1.38
   8  -6 -23   -0.44    2.05
   8  -6 -23    3.58    1.89
   8  -6 -22   51.72    3.51
   8  -6 -22   49.35    3.67
   8  -6 -21    9.05    2.96
   8  -6 -21   13.17    3.07
   8  -6 -20    4.42    3.16
   8  -6 -20    4.27    3.31
   8  -6 -19   26.38    4.00
   8  -6 -19   20.58    3.89
   8  -6 -18   19.45    3.80
  -8  -6  18   16.41    2.35
   8  -6 -17   51.31    4.72
  -8  -6  17   49.02    3.46
  -8  -6  16   35.17    3.28
  -8  -6  15  203.23    8.58
  -8   6  15  184.20    7.96
  -8   6  14    3.06    1.97
  -8  -6  14    2.43    3.19
   8  -6 -13  652.65   25.12
  -8  -6  13  662.65   24.49
  -8   6  13  604.56   24.09
   8  -6 -12   39.58    5.41
  -8  -6  12   50.41    4.13
  -8   6  12   43.30    3.28
   8  -6 -11  594.93   23.00
  -8  -6  11  597.69   22.53
  -8   6  11  554.34   22.23
   8  -6 -10   53.75    5.21
  -8  -6  10   63.56    4.59
  -8   6  10   62.93    4.03
  -8  -6   9   75.03    4.78
   8  -6  -9   67.24    5.34
  -8   6   9   63.82    4.13
  -8   6   8   26.81    3.05
   8  -6  -8   21.17    4.02
  -8  -6   8   28.32    3.81
   8  -6  -7  146.16    7.60
   8   6  -7  153.71    6.68
  -8  -6   7  149.48    7.37
  -8   6   7  147.77    7.09
   8  -6  -6  317.03   13.39
  -8   6   6  328.84   13.29
   8  -6  -5  553.66   21.48
  -8   6   5  546.92   21.41
  -8   6   4   26.75    3.37
   8  -6  -4   29.63    3.33
  -8  -6   4   29.09    3.64
  -8  -6   4   29.81    2.37
   8  -6  -3  634.41   24.57
  -8  -6   3  638.77   24.58
  -8  -6   3  642.91   24.09
  -8   6   3  635.80   24.65
  -8  -6   2    8.61    1.95
   8  -6  -2    5.85    2.82
  -8  -6   2    6.05    3.13
   8  -6  -1  454.98   18.33
  -8  -6   1  478.05   18.43
  -8  -6   1  472.07   18.01
   8  -6   0   53.87    3.82
  -8  -6   0   53.50    4.08
  -8   6   0   54.37    4.35
  -8  -6   0   58.61    3.51
  -8  -6  -1  286.27   11.42
   8  -6   1  263.34   11.18
  -8  -6  -1  277.08   10.90
  -8   6  -1  259.83   11.59
  -8  -6  -1  276.85   11.07
  -8   6  -2   29.71    3.59
   8  -6   2   34.20    2.93
  -8  -6  -2   34.72    2.67
  -8  -6  -2   39.54    3.45
  -8  -6  -2   37.14    3.08
  -8   6  -3   15.96    3.17
  -8  -6  -3   20.00    2.66
  -8  -6  -3   22.46    2.43
  -8  -6  -3   18.08    2.93
  -8  -6  -4  157.74    6.90
  -8  -6  -4  153.79    7.16
  -8   6  -4  151.87    7.48
  -8  -6  -4  162.61    7.19
  -8  -6  -5  311.38   12.08
  -8  -6  -5  291.69   12.18
  -8   6  -5  294.89   12.54
  -8  -6  -5  305.21   12.38
  -8  -6  -6   56.78    3.53
  -8  -6  -6   42.34    3.37
  -8   6  -6   47.65    3.99
  -8  -6  -6   54.78    4.06
  -8  -6  -7  105.26    4.98
  -8  -6  -7   92.76    4.84
  -8   6  -7   94.40    5.42
  -8  -6  -7   93.58    5.31
  -8  -6  -8    3.59    3.04
  -8  -6  -8    2.71    2.21
  -8  -6  -8    3.14    1.92
  -8   6  -8    1.65    2.68
  -8  -6  -9    9.56    3.43
  -8  -6  -9   12.20    2.57
  -8   6  -9   10.38    2.90
  -8   6 -10   59.66    4.09
  -8  -6 -10   65.70    4.05
  -8  -6 -10   56.85    4.71
  -8  -6 -11    4.42    3.34
  -8  -6 -11    5.98    2.39
  -8   6 -11    4.80    2.46
  -8  -6 -12   -2.02    3.26
  -8  -6 -12    4.75    2.39
  -8   6 -12    1.83    2.09
  -8  -6 -13   34.81    3.93
  -8  -6 -13   39.72    3.28
  -8  -6 -14   42.02    3.91
  -8  -6 -14   39.00    3.25
  -8  -6 -15   60.60    3.66
  -8  -6 -15   53.63    4.22
  -8  -6 -16   43.53    3.07
  -8  -6 -16   44.36    3.56
  -8  -6 -17   13.25    2.11
  -8  -6 -18   77.63    3.77
  -8  -6 -19    3.65    1.32
  -8  -6 -20   17.52    1.42
  -8  -6 -20   21.19    1.82
  -8  -6 -21    2.61    0.96
   8  -7 -24   63.16    3.21
   8  -7 -23   74.93    3.46
   8  -7 -23   63.35    3.36
   8  -7 -22   99.03    4.51
   8  -7 -22   82.89    4.35
   8  -7 -21    5.99    2.30
   8  -7 -21   12.41    2.62
   8  -7 -20    7.58    2.47
   8  -7 -20    7.85    3.00
   8  -7 -19   53.28    4.41
   8  -7 -18   54.99    4.16
   8  -7 -17   26.00    3.56
  -8  -7  17   27.17    2.53
   8  -7 -16   33.90    3.78
  -8  -7  16   34.24    3.00
   8  -7 -15  213.42    9.76
  -8  -7  15  218.40    9.24
  -8  -7  14  166.32    7.23
  -8   7  14  146.69    6.59
   8  -7 -13  654.01   24.64
  -8  -7  13  647.37   24.15
  -8   7  13  597.00   23.70
  -8   7  12   31.37    2.85
   8  -7 -12   32.80    5.14
  -8  -7  12   36.82    3.80
   8  -7 -11  267.05   12.45
  -8  -7  11  296.17   11.86
  -8   7  11  275.20   11.39
  -8   7  10    4.89    2.55
   8  -7 -10    1.24    4.08
  -8  -7  10   -0.08    3.32
  -8   7   9    3.99    2.61
   8  -7  -9    2.06    4.01
  -8  -7   9    3.16    3.44
  -8   7   8    1.90    2.54
   8  -7  -8    0.09    3.58
  -8  -7   8    6.52    3.32
  -8   7   7   27.33    3.24
   8  -7  -7   28.10    3.97
  -8  -7   7   27.51    3.82
  -8   7   6   -2.16    2.86
   8  -7  -6    0.52    3.15
  -8   7   5   13.60    3.13
   8  -7  -5   11.62    3.52
   8  -7  -4   83.57    5.18
  -8   7   4   89.50    5.16
  -8   7   3    2.96    3.08
   8  -7  -3    3.41    2.94
  -8  -7   3    3.64    3.38
  -8   7   2    7.03    3.14
   8  -7  -2    5.63    2.70
  -8  -7   2    9.14    3.23
   8  -7  -1   62.59    4.01
  -8  -7   1   67.14    4.64
  -8  -7   1   67.98    3.59
   8  -7   0  142.41    6.88
  -8  -7   0  158.60    7.46
  -8  -7   0  156.94    6.64
  -8   7  -1    3.24    3.22
  -8  -7  -1    3.00    1.90
  -8  -7  -1    1.46    3.17
  -8  -7  -2    5.85    2.27
  -8  -7  -2    8.88    3.06
  -8   7  -2    4.42    3.32
  -8  -7  -3   97.98    5.41
  -8   7  -3   96.78    5.64
  -8  -7  -3   98.70    5.00
  -8  -7  -4   11.98    2.59
  -8  -7  -4    9.85    2.74
  -8   7  -4   12.50    3.29
  -8  -7  -5  141.11    6.78
  -8   7  -5  141.53    7.11
  -8  -7  -5  150.46    6.75
  -8  -7  -6   23.67    3.13
  -8  -7  -6   23.81    2.85
  -8   7  -6   14.93    3.19
  -8  -7  -7  132.28    5.88
  -8   7  -7  135.04    6.57
  -8  -7  -7  118.53    6.06
  -8  -7  -7  136.99    6.36
  -8  -7  -8  129.62    5.76
  -8   7  -8  114.89    6.30
  -8  -7  -8  122.45    5.89
  -8  -7  -8  137.81    6.25
  -8  -7  -9  190.43    7.91
  -8   7  -9  192.37    8.44
  -8  -7  -9  176.16    7.89
  -8  -7  -9  199.71    8.47
  -8   7 -10  271.48   11.51
  -8  -7 -10  276.26   11.09
  -8  -7 -10  286.50   11.61
  -8  -7 -11  221.96    9.08
  -8   7 -11  217.91    9.41
  -8  -7 -11  226.16    9.58
  -8   7 -12  150.24    7.19
  -8  -7 -12  168.11    7.00
  -8  -7 -12  175.34    7.60
  -8   7 -13   72.97    4.11
  -8  -7 -13   84.47    4.06
  -8  -7 -13   83.78    4.73
  -8  -7 -14  126.69    6.24
  -8  -7 -14  134.97    5.74
  -8  -7 -15   18.91    2.70
  -8  -7 -15   19.08    2.00
  -8  -7 -16   87.93    4.05
  -8  -7 -16   94.76    4.64
  -8  -7 -17    5.39    1.98
  -8  -7 -17    2.52    1.21
  -8  -7 -18    6.07    1.66
  -8  -7 -18    3.98    0.98
  -8  -7 -19   21.01    1.74
  -8  -7 -20   17.73    1.30
   8  -8 -23  124.92    4.82
   8  -8 -23  108.73    4.92
   8  -8 -22   54.98    2.89
   8  -8 -21  108.93    4.57
   8  -8 -21   85.35    4.20
   8  -8 -20    5.86    1.68
   8  -8 -19  110.27    5.21
   8  -8 -18    8.38    2.33
   8  -8 -17  430.69   15.80
  -8  -8  17  378.59   15.06
   8  -8 -17  388.48   15.52
   8  -8 -16   11.96    2.66
   8  -8 -16   11.38    3.55
  -8  -8  16    7.23    1.99
   8  -8 -15  281.41   11.44
  -8  -8  15  257.00   10.72
   8  -8 -15  258.99   11.05
   8  -8 -14   50.45    3.88
  -8  -8  14   53.25    3.74
   8  -8 -13   39.82    3.56
  -8  -8  13   43.55    3.54
  -8   8  13   39.03    2.67
  -8  -8  12  123.84    6.11
  -8   8  12  118.80    5.54
  -8  -8  11   19.88    3.36
  -8   8  11   16.31    2.36
  -8   8  10    4.67    2.21
   8  -8 -10   -4.17    3.92
  -8  -8  10    3.19    3.05
   8  -8  -9  152.33    8.16
  -8   8   9  166.25    7.39
  -8  -8   9  165.08    7.81
  -8   8   8   22.20    2.96
   8  -8  -8   20.30    3.91
  -8  -8   8   27.61    3.95
  -8   8   7    0.32    2.60
   8  -8  -7    0.26    3.50
  -8  -8   7   -0.77    3.61
   8  -8  -6  178.45    8.41
  -8   8   6  178.91    8.20
  -8  -8   6  188.47    8.68
   8  -8  -5   42.03    3.92
  -8   8   5   47.23    3.90
  -8   8   4    3.00    3.14
   8  -8  -4    6.99    2.75
  -8   8   3   -1.22    3.05
   8  -8  -3   -1.34    2.50
  -8  -8   3   -1.12    3.75
   8  -8  -2   21.49    2.95
  -8  -8   2   26.46    3.87
  -8   8   2   29.73    3.70
  -8  -8   1    6.73    3.51
  -8   8   1    5.18    3.13
  -8  -8   0    6.74    3.45
  -8  -8  -1    4.90    3.32
  -8  -8  -2   25.17    3.32
  -8  -8  -2   30.45    2.49
  -8   8  -2   25.68    3.89
  -8  -8  -3   26.13    2.48
  -8  -8  -3   21.45    3.50
  -8   8  -3   25.41    3.73
  -8  -8  -4    6.80    2.16
  -8  -8  -4   -1.87    2.91
  -8   8  -4    0.88    3.26
  -8  -8  -5    7.19    2.29
  -8  -8  -5    9.45    2.84
  -8   8  -5    7.47    3.34
  -8   8  -6  128.09    6.45
  -8  -8  -6  117.13    6.04
  -8  -8  -6  129.19    5.85
  -8   8  -7  246.06   10.48
  -8  -8  -7  231.35   10.12
  -8  -8  -7  257.52   10.14
  -8  -8  -8    2.89    2.43
  -8  -8  -8    6.67    2.30
  -8   8  -8    4.81    2.63
  -8   8  -9  346.12   13.71
  -8  -8  -9  317.91   13.28
  -8  -8  -9  360.33   13.52
  -8  -8 -10    1.59    2.40
  -8   8 -10    3.06    2.34
  -8   8 -11  145.85    6.86
  -8  -8 -11  162.45    6.91
  -8  -8 -12   16.75    2.63
  -8   8 -12   12.93    2.25
  -8   8 -13  116.85    5.54
  -8  -8 -13  138.09    5.82
  -8  -8 -14    4.12    2.10
  -8  -8 -15   86.45    4.21
  -8  -8 -16   11.49    1.84
  -8  -8 -17  132.89    5.52
  -8  -8 -18    1.17    1.03
   8  -9 -21   20.79    1.70
   8  -9 -20    3.58    1.55
   8  -9 -20    2.01    1.52
   8  -9 -19   74.49    3.90
   8  -9 -18   -1.66    2.25
   8  -9 -17  106.85    5.29
   8  -9 -16   19.53    2.96
   8  -9 -15   66.39    4.31
  -8  -9  15   61.74    3.47
   8  -9 -14    0.37    3.05
  -8  -9  14    7.96    2.12
   8  -9 -13   68.68    4.67
  -8  -9  13   66.86    4.00
   8  -9 -12   17.61    3.31
  -8  -9  12   20.11    2.70
  -8  -9  11   23.76    3.10
  -8   9  11   17.30    2.07
  -8  -9  10   10.82    3.12
  -8   9  10    9.32    2.18
  -8  -9   9    9.11    3.12
  -8   9   9    6.61    2.20
  -8  -9   8   14.70    3.41
  -8   9   8    9.52    2.44
  -8  -9   7    3.55    3.47
  -8   9   7    7.66    2.48
  -8  -9   6  255.78   10.97
  -8   9   6  249.94   10.57
  -8  -9   5   12.84    3.76
  -8   9   5    7.00    2.82
  -8   9   4  154.69    7.30
  -8   9   3  147.91    7.21
  -8  -9   2    2.53    3.65
  -8   9   2    0.42    3.03
  -8  -9   1    2.51    3.53
  -8   9   1   -2.65    3.17
  -8  -9   0    8.09    3.52
  -8   9   0    7.38    3.33
  -8  -9  -1  263.38   11.25
  -8  -9  -2    5.34    3.32
  -8  -9  -3   42.34    3.88
  -8   9  -3   44.07    4.20
  -8  -9  -4   14.69    3.06
  -8   9  -4   12.57    3.29
  -8   9  -5   72.55    4.66
  -8  -9  -5   65.98    4.43
  -8  -9  -5   71.28    3.64
  -8  -9  -6   13.90    2.03
  -8  -9  -6    8.57    2.74
  -8   9  -6   11.70    3.07
  -8  -9  -7   25.91    2.89
  -8   9  -7   26.28    3.22
  -8  -9  -7   28.35    2.42
  -8  -9  -8   17.23    2.12
  -8  -9  -8   10.72    2.31
  -8   9  -8   11.65    2.77
  -8  -9  -9   10.93    1.99
  -8  -9  -9    7.06    1.92
  -8   9  -9    8.83    2.38
  -8   9 -10   72.43    4.13
  -8  -9 -10   72.24    3.72
  -8  -9 -11    4.67    1.77
  -8   9 -11    5.36    1.96
  -8   9 -12   32.65    2.48
  -8  -9 -12   34.59    2.45
  -8  -9 -13    6.42    1.65
  -8   9 -13    1.96    1.33
  -8  -9 -14   22.69    1.90
  -8  -9 -15    5.61    1.25
  -8  -9 -16   41.29    2.11
   8 -10 -19   16.37    1.45
   8 -10 -18    7.57    1.36
   8 -10 -18   14.00    1.70
   8 -10 -17   -0.46    1.52
   8 -10 -17    2.37    1.68
   8 -10 -16   20.42    2.34
   8 -10 -15   -0.48    2.09
   8 -10 -14    5.63    2.27
  -8 -10  14    7.70    1.66
   8 -10 -13   13.37    2.56
  -8 -10  13   14.96    2.04
   8 -10 -12    1.62    2.58
  -8 -10  12    2.04    2.05
   8 -10 -11  129.89    6.29
  -8 -10  11  141.87    6.24
   8 -10 -10   83.59    4.55
  -8  10  10   75.10    3.86
   8 -10  -9   18.78    2.71
  -8 -10   9   22.35    3.15
  -8  10   9   17.90    2.17
   8 -10  -8   76.02    4.29
  -8 -10   8   80.41    4.64
  -8  10   8   74.35    4.04
   8 -10  -7  255.45   10.84
  -8 -10   7  278.97   11.28
  -8  10   7  273.65   10.88
  -8  10   6   37.31    2.97
  -8 -10   6   34.56    3.75
  -8 -10   5  254.20   10.66
  -8  10   5  244.09   10.29
  -8  10   4  153.70    7.00
  -8 -10   4  147.04    7.33
  -8  10   3  353.06   14.15
  -8  10   2   47.11    3.77
  -8  10   1  836.05   31.25
  -8 -10   1  812.77   31.31
  -8  10   0   80.08    4.83
  -8 -10   0   73.38    4.86
  -8  10  -1  400.32   16.33
  -8 -10  -1  422.10   16.37
  -8 -10  -2  100.41    5.56
  -8 -10  -3  182.47    8.14
  -8 -10  -4  146.77    6.76
  -8  10  -4  141.41    6.88
  -8  10  -5  221.97    9.38
  -8 -10  -5  218.95    9.29
  -8 -10  -6    4.49    2.31
  -8  10  -6    5.60    2.53
  -8 -10  -7    8.33    2.28
  -8  10  -7    9.03    2.45
  -8  10  -8    2.60    2.12
  -8 -10  -8    5.18    1.93
  -8  10  -9    4.88    2.03
  -8 -10  -9    5.29    1.64
  -8  10 -10   17.73    2.13
  -8  10 -11   -0.37    1.54
  -8  10 -12    3.70    1.27
  -8  10 -13    3.24    0.91
   8 -11 -16   -0.32    1.03
   8 -11 -15   41.46    2.31
   8 -11 -14    8.96    1.55
   8 -11 -13   56.29    2.93
  -8 -11  13   55.17    2.74
   8 -11 -12    2.44    1.53
  -8 -11  12    0.63    1.47
  -8 -11  11  169.48    6.43
   8 -11 -11  135.76    6.22
   8 -11 -10    2.52    1.60
  -8 -11  10    4.23    1.99
  -8 -11   9    4.22    2.16
  -8 -11   8    8.25    2.40
  -8  11   8    3.87    1.41
  -8 -11   7    4.63    2.47
  -8  11   7    0.83    1.59
  -8 -11   6   18.85    2.85
  -8  11   6   13.36    1.99
  -8  11   5   53.12    3.23
  -8 -11   5   52.68    3.86
  -8 -11   4    7.95    2.89
  -8  11   4    6.39    2.11
  -8  11   3    4.00    2.26
  -8  11   2    5.69    2.38
  -8  11   1  123.26    5.69
  -8 -11   1  108.70    5.82
  -8 -11   0    6.43    2.81
  -8  11   0    1.76    2.36
  -8 -11  -1   89.75    5.05
  -8  11  -1   92.20    4.84
  -8 -11  -2   -0.13    2.56
  -8  11  -2    1.36    2.53
  -8 -11  -3  253.07   10.36
  -8 -11  -4   56.25    3.56
  -8  11  -5  172.65    7.36
  -8 -11  -5  166.10    7.20
  -8 -11  -6   31.97    2.60
  -8  11  -6   30.14    2.72
  -8  11  -7   49.05    3.09
  -8 -11  -7   48.96    2.90
  -8  11  -8    1.28    1.73
  -8 -11  -8   -0.83    1.31
  -8  11  -9   57.37    2.85
  -8 -11  -9   43.98    2.42
  -8  11 -10   -0.31    1.22
  -8  11 -11   19.09    1.49
   8 -12 -14   40.86    2.12
   8 -12 -13    0.78    1.09
   8 -12 -12   31.32    2.04
  -8 -12  11   16.20    1.33
   8 -12 -11   12.37    1.58
  -8 -12  10   33.11    1.96
   8 -12 -10   25.55    2.11
  -8 -12   9    3.58    1.38
   8 -12  -9    3.17    1.49
  -8 -12   8   31.90    2.22
   8 -12  -8   22.76    2.07
  -8 -12   7   18.27    2.04
   8 -12  -7   10.81    1.60
  -8 -12   6    7.87    1.95
  -8  12   6    4.60    1.14
  -8 -12   5    3.90    2.03
  -8  12   5    3.85    1.33
  -8 -12   4   21.88    2.50
  -8  12   4   20.06    1.87
  -8  12   3   52.72    2.91
  -8 -12   3   52.44    3.35
  -8  12   2   48.30    2.87
  -8  12   1   58.30    3.19
  -8  12   0   64.89    3.59
  -8 -12   0   73.56    3.86
  -8  12  -1   50.53    3.00
  -8 -12  -1   49.08    3.19
  -8  12  -2  152.05    6.69
  -8 -12  -2  165.95    6.79
  -8  12  -3   43.22    2.81
  -8 -12  -3   44.85    2.87
  -8 -12  -4    5.45    1.75
  -8 -12  -5   17.67    1.84
  -8  12  -6    3.11    1.42
  -8 -12  -6    3.53    1.34
  -8  12  -7    0.15    1.17
  -8 -12  -7   -0.59    1.08
  -8  12  -8    5.60    1.14
  -8  12  -9   20.19    1.41
  -8 -13   7    2.48    0.96
  -8 -13   6    9.24    1.27
  -8 -13   5   36.54    2.14
  -8 -13   4    1.18    1.31
  -8  13   3   22.58    1.42
  -8 -13   3   28.02    1.92
  -8  13   2    2.72    0.93
  -8 -13   2    3.12    1.42
  -8  13   1    2.19    0.99
  -8  13   0    4.12    1.12
  -8  13  -1   19.88    1.52
  -8 -13  -1   20.92    1.75
  -8  13  -2   21.70    1.56
  -8 -13  -2   20.44    1.66
  -8  13  -3    4.36    1.03
  -8 -13  -3    4.07    1.12
  -8  13  -4   22.99    1.49
  -8 -13  -4   19.16    1.40
   9   0 -25    0.89    1.52
   9   0 -24   49.43    3.37
   9   0 -23   -1.18    2.58
   9   0 -22  251.73   10.91
   9   0 -21    0.62    3.31
   9   0 -20  233.63   10.77
   9   0 -19    0.48    2.83
  -9   0  19   -0.25    2.88
  -9   0  18  102.94    5.79
   9   0 -18   92.25    5.64
   9   0 -17   -6.26    3.51
  -9   0  17   -1.57    3.30
   9   0 -16   10.04    3.73
  -9   0  16   12.86    3.78
   9   0 -15    1.21    3.61
  -9   0  15    0.28    3.73
   9   0 -14   58.39    4.81
  -9   0  14   54.19    4.74
   9   0 -13    1.38    3.59
  -9   0  13    1.30    3.57
   9   0 -12   32.95    4.17
   9   0 -11   -2.23    3.42
   9   0 -10   43.44    4.55
   9   0  -9    0.17    3.45
  -9   0   9    0.08    3.12
   9   0  -8   82.27    5.33
  -9   0   8   78.59    5.00
   9   0  -7   -0.32    3.32
  -9   0   7   -1.50    2.88
   9   0  -6  143.91    7.15
  -9   0   6  141.55    6.82
   9   0  -5   -0.69    3.09
  -9   0   5   -3.22    2.70
  -9   0   5    0.78    2.76
  -9   0   4    1.33    2.73
  -9   0   4    3.28    2.42
  -9   0   3   -2.27    2.69
  -9   0   3    1.21    2.35
  -9   0   2    1.59    2.20
  -9   0   1    0.61    2.11
  -9   0   0    3.70    2.86
  -9   0   0    5.59    2.04
  -9   0  -1    2.30    2.72
  -9   0  -1    1.44    1.81
  -9   0  -2  131.74    5.76
  -9   0  -2  122.01    6.18
  -9   0  -3   -0.55    2.82
  -9   0  -4   85.13    4.90
  -9   0  -5    2.24    2.98
  -9   0  -6  134.99    6.60
  -9   0  -7   -0.43    2.97
  -9   0  -8   99.81    5.81
  -9   0  -8   93.43    5.31
  -9   0  -9   -1.02    2.92
  -9   0  -9    4.18    3.62
  -9   0 -10  838.46   32.09
  -9   0 -10  846.94   31.87
  -9   0 -11    2.64    3.04
  -9   0 -11    3.44    3.53
  -9   0 -12   30.50    3.49
  -9   0 -12   33.62    4.21
  -9   0 -13   -2.41    2.89
  -9   0 -13    2.31    3.42
  -9   0 -14 1057.34   38.49
  -9   0 -14  997.12   38.19
  -9   0 -15    0.47    2.43
  -9   0 -15    5.12    3.30
  -9   0 -16  714.15   26.07
  -9   0 -16  663.90   25.72
  -9   0 -17    2.31    1.79
  -9   0 -17    6.86    2.66
  -9   0 -18  131.01    5.68
  -9   0 -18  109.41    5.02
  -9   0 -19    1.57    1.07
  -9   0 -19    1.31    2.09
  -9   0 -20   80.23    3.88
  -9   0 -21    0.24    1.21
   9  -1 -26    6.73    1.29
   9  -1 -25  117.21    5.34
   9   1 -24    3.01    1.63
   9  -1 -24    3.60    2.43
   9   1 -23   44.44    3.29
   9  -1 -23   47.46    3.89
   9   1 -22   10.61    2.81
   9  -1 -22   12.84    3.63
   9   1 -21  175.40    8.20
   9  -1 -21  172.22    8.68
   9   1 -20   26.24    3.82
   9  -1 -20   32.14    4.47
  -9  -1  20   27.57    3.07
   9  -1 -19  319.47   13.56
  -9  -1  19  330.50   13.34
   9  -1 -18   76.60    5.36
   9   1 -18   79.74    4.76
  -9  -1  18   81.23    5.14
   9  -1 -17  207.16    9.90
   9   1 -17  219.26    9.59
  -9  -1  17  219.12    9.72
  -9   1  17  211.07    9.75
  -9  -1  16  326.61   12.96
   9  -1 -16  296.98   13.08
   9   1 -16  296.43   12.80
  -9   1  16  297.84   12.97
   9  -1 -15  147.53    7.91
   9   1 -15  149.42    7.48
  -9  -1  15  159.19    7.76
  -9   1  15  150.23    7.76
   9  -1 -14   81.03    5.81
   9   1 -14   79.98    5.31
  -9   1  14   90.94    5.64
  -9  -1  14   87.41    5.59
   9  -1 -13   89.88    5.94
   9   1 -13   84.83    5.48
  -9   1  13   85.09    5.68
  -9  -1  13   90.53    5.58
   9  -1 -12  198.15    9.49
   9   1 -12  212.19    9.45
  -9  -1  12  211.91    9.51
   9  -1 -11    9.23    4.03
   9   1 -11    6.06    3.55
   9  -1 -10  506.29   20.34
   9   1 -10  510.97   20.15
  -9   1  10  513.82   20.08
   9   1  -9   51.34    4.35
   9  -1  -9   49.33    4.84
  -9   1   9   61.23    4.34
  -9  -1   9   48.60    4.22
   9  -1  -8  330.49   14.18
   9   1  -8  348.92   14.18
  -9   1   8  353.21   14.04
  -9  -1   8  344.01   14.05
   9  -1  -7   21.22    3.88
   9   1  -7   22.98    3.57
  -9   1   7   22.15    3.00
  -9  -1   7   17.11    3.09
   9   1  -6   75.63    4.95
  -9  -1   6   74.81    4.63
  -9   1   6   79.29    4.66
   9   1  -5  101.68    5.59
  -9  -1   5  106.72    5.45
  -9   1   5  103.25    5.35
  -9  -1   5  102.48    5.39
  -9  -1   4    3.80    2.61
   9   1  -4    0.96    3.20
  -9   1   4    2.59    2.31
  -9  -1   4    1.53    2.32
  -9  -1   3   15.93    2.80
  -9   1   3   16.35    2.46
   9  -1  -3   13.38    3.27
  -9  -1   3   10.64    2.53
  -9   1   2   40.83    3.58
   9  -1  -2   47.25    3.97
  -9   1   2   45.48    3.23
  -9  -1   2   47.36    3.23
  -9  -1   2   46.53    3.56
   9  -1  -1   56.41    4.09
  -9  -1   1   56.87    3.99
  -9   1   1   54.19    3.45
  -9  -1   1   49.87    3.49
  -9   1   1   53.81    3.88
  -9  -1   1   56.78    3.91
   9  -1   0  290.37   12.11
  -9  -1   0  292.02   11.83
  -9  -1   0  296.77   12.12
  -9   1   0  285.16   11.77
  -9   1   0  299.92   11.99
  -9  -1   0  304.20   12.03
  -9   1  -1   46.66    4.03
  -9  -1  -1   51.32    4.11
  -9   1  -1   53.29    3.23
  -9  -1  -1   52.03    3.29
  -9   1  -1   53.64    3.72
  -9   1  -2  368.06   15.06
  -9  -1  -2  362.21   15.05
  -9  -1  -2  389.25   14.70
  -9   1  -2  378.07   14.88
  -9   1  -3   50.36    4.00
  -9  -1  -3   55.02    4.08
  -9  -1  -3   46.63    3.02
  -9   1  -3   51.05    3.84
  -9   1  -4  504.53   19.14
  -9  -1  -4  488.98   19.19
  -9   1  -4  474.39   18.96
  -9   1  -5   38.31    3.91
  -9  -1  -5   42.03    4.04
  -9   1  -5   44.09    3.55
  -9  -1  -5   48.30    3.82
  -9   1  -5   42.07    3.33
  -9   1  -6   84.21    5.31
  -9  -1  -6   92.59    5.58
  -9   1  -6   90.31    5.02
  -9  -1  -6   93.08    5.34
  -9   1  -6   90.27    4.88
  -9   1  -7    2.27    2.55
  -9  -1  -7    2.76    3.08
  -9   1  -7    2.73    3.13
  -9  -1  -7    4.07    3.46
  -9   1  -8  196.20    8.84
  -9   1  -8  185.00    8.55
  -9  -1  -8  206.01    8.78
  -9   1  -9   47.61    4.32
  -9   1  -9   45.19    3.78
  -9  -1  -9   52.61    4.16
  -9   1 -10  142.07    7.12
  -9   1 -10  135.83    6.64
  -9  -1 -10  144.24    7.00
  -9   1 -11    0.07    2.48
  -9  -1 -11    3.15    3.20
  -9   1 -11    4.35    3.47
  -9   1 -12   67.23    4.73
  -9   1 -12   65.23    4.23
  -9  -1 -12   71.90    4.71
  -9   1 -13   26.67    2.95
  -9  -1 -13   29.91    3.43
  -9   1 -13   31.44    3.80
  -9   1 -14    8.90    2.35
  -9  -1 -14   12.73    2.99
  -9   1 -14   13.31    3.06
  -9  -1 -15   86.84    5.35
  -9   1 -15   92.96    4.97
  -9   1 -15   80.27    4.31
  -9  -1 -15   89.73    4.73
  -9   1 -16   23.61    2.30
  -9  -1 -16   29.88    3.04
  -9   1 -16   26.72    3.19
  -9  -1 -16   34.68    3.57
  -9   1 -17   18.10    1.81
  -9  -1 -17   19.63    2.50
  -9   1 -17   19.22    2.92
  -9  -1 -17   26.57    3.17
  -9   1 -18   47.57    3.23
  -9  -1 -18   55.96    3.55
  -9  -1 -18   46.41    2.95
  -9  -1 -19    2.31    1.38
  -9   1 -19    2.06    1.86
  -9  -1 -19    1.46    2.15
  -9   1 -20  154.45    5.77
  -9  -1 -20  154.26    5.96
  -9   1 -21    1.51    1.01
  -9  -1 -21    2.09    1.39
   9  -2 -26   45.89    2.58
   9  -2 -25    1.54    1.75
   9  -2 -24    5.49    2.52
   9  -2 -23    0.59    2.93
   9   2 -22   20.70    2.53
   9  -2 -22   17.99    3.69
   9  -2 -22   21.48    2.53
   9   2 -21    2.06    2.41
   9  -2 -21    4.37    3.90
   9   2 -20    6.51    2.88
   9  -2 -20    8.54    4.03
  -9  -2  20    5.62    2.48
   9   2 -19   34.55    3.74
   9  -2 -19   34.03    4.20
  -9  -2  19   36.55    3.49
   9  -2 -18   29.44    4.09
  -9  -2  18   31.40    3.60
   9  -2 -17    6.07    4.13
  -9  -2  17    6.79    3.07
   9  -2 -16  210.69   10.41
   9   2 -16  218.70    9.59
  -9   2  16  218.11   10.20
  -9  -2  16  233.93    9.90
   9  -2 -15   11.23    4.57
   9   2 -15   16.76    3.11
  -9   2  15   12.41    3.99
  -9  -2  15   19.15    3.70
   9  -2 -14  220.98   10.43
   9   2 -14  224.29    9.72
  -9   2  14  215.43   10.13
  -9  -2  14  226.41    9.95
   9  -2 -13   30.26    4.74
   9   2 -13   33.93    3.79
  -9  -2  13   37.73    4.06
   9  -2 -12  371.74   15.92
   9   2 -12  388.99   15.70
  -9  -2  12  400.92   15.79
   9  -2 -11   64.44    5.21
   9   2 -11   66.01    4.72
  -9   2  11   62.84    4.79
  -9  -2  11   59.69    4.82
   9  -2 -10   23.75    4.34
   9   2 -10   17.82    3.22
  -9   2  10   18.21    3.60
   9  -2  -9  791.39   30.45
   9   2  -9  783.98   30.21
  -9   2   9  809.23   30.32
   9   2  -8   62.11    4.54
  -9   2   8   72.43    4.55
  -9  -2   8   68.52    4.60
   9   2  -7   96.40    5.48
  -9   2   7   95.00    5.42
  -9  -2   7   93.49    5.41
  -9  -2   6 1069.69   40.07
   9   2  -6 1065.55   40.11
  -9   2   6 1068.06   40.09
  -9  -2   6 1070.87   39.95
   9  -2  -5  102.99    5.74
   9   2  -5  106.91    5.67
  -9   2   5   93.26    5.22
  -9  -2   5   96.60    5.31
  -9  -2   5   95.84    5.12
   9  -2  -4 1060.19   40.43
  -9   2   4 1094.16   40.34
  -9  -2   4 1051.75   40.28
  -9  -2   4 1099.63   40.25
   9  -2  -3  173.32    8.01
  -9   2   3  178.75    7.56
  -9  -2   3  161.87    7.54
  -9  -2   3  164.82    7.56
   9  -2  -2  940.24   36.44
  -9   2   2  987.41   36.34
  -9  -2   2  966.44   36.31
  -9   2   2  970.18   36.34
  -9  -2   2  977.72   36.32
  -9   2   1   35.27    3.24
  -9  -2   1   38.26    3.36
   9  -2  -1   41.17    3.70
  -9   2   1   37.60    2.88
  -9  -2   1   31.76    3.31
  -9  -2   1   33.03    3.15
   9  -2   0  435.06   16.73
  -9  -2   0  431.46   16.74
  -9   2   0  414.05   16.45
  -9  -2   0  424.25   16.52
  -9   2   0  412.31   16.58
  -9  -2   0  427.96   16.68
   9  -2   1   64.03    4.10
  -9   2  -1   57.43    4.18
  -9  -2  -1   60.70    4.12
  -9  -2  -1   58.32    3.55
  -9   2  -1   53.12    3.87
  -9  -2  -1   57.41    4.11
   9  -2   2  237.82   10.36
  -9   2  -2  250.26   10.35
  -9  -2  -2  237.19   10.46
  -9  -2  -2  248.15   10.02
  -9   2  -2  245.98   10.22
  -9  -2  -2  252.23   10.39
  -9   2  -3   32.87    3.24
  -9  -2  -3   39.62    3.68
   9  -2   3   36.09    3.62
  -9   2  -3   36.85    3.55
  -9  -2  -3   37.52    2.75
  -9  -2  -3   37.97    3.68
   9  -2   4  263.71   11.11
  -9   2  -4  268.45   11.18
  -9  -2  -4  278.43   11.35
  -9   2  -4  262.86   10.97
  -9   2  -4  266.61   11.17
  -9   2  -5   14.12    2.83
  -9   2  -5   12.95    2.67
   9  -2   5   13.68    3.01
  -9   2  -5   13.80    3.11
  -9  -2  -5   14.37    3.27
  -9   2  -6   33.32    3.24
  -9   2  -6   40.67    3.60
  -9  -2  -6   32.68    3.81
  -9   2  -6   33.27    3.04
  -9  -2  -7  215.81    9.71
  -9   2  -7  209.30    9.40
  -9   2  -7  223.16    9.24
  -9   2  -7  228.64    9.60
  -9  -2  -8  107.98    6.00
  -9   2  -8  103.92    5.69
  -9   2  -8   99.58    5.31
  -9  -2  -8  108.59    5.91
  -9   2  -9   28.11    3.04
  -9  -2  -9   29.15    3.80
   9  -2   9   32.47    2.91
  -9   2  -9   29.31    3.68
  -9  -2  -9   28.82    4.09
  -9   2 -10   23.28    2.92
  -9  -2 -10   28.04    3.93
   9  -2  10   26.58    2.59
  -9   2 -10   25.06    3.42
  -9  -2 -10   22.35    4.00
  -9   2 -11    7.85    2.41
  -9  -2 -11    9.45    3.45
  -9   2 -11   12.10    3.14
  -9  -2 -11   10.71    3.92
  -9   2 -12  399.67   16.05
  -9  -2 -12  393.59   16.23
  -9   2 -12  394.90   15.62
  -9  -2 -12  420.55   16.10
  -9   2 -13   51.83    4.10
  -9  -2 -13   47.14    4.51
  -9   2 -13   46.77    3.21
  -9  -2 -13   55.60    4.24
  -9   2 -14   41.10    3.58
  -9  -2 -14   41.89    4.37
  -9   2 -14   43.53    2.92
  -9  -2 -14   50.58    3.91
  -9   2 -15    8.56    1.78
  -9  -2 -15   13.00    2.94
  -9   2 -15    7.48    2.41
  -9   2 -16   38.01    3.28
  -9  -2 -16   47.01    3.45
  -9  -2 -17   19.86    2.56
  -9   2 -17   18.30    2.42
  -9  -2 -18    7.97    2.05
  -9   2 -18    7.99    1.93
  -9   2 -19   46.99    2.61
  -9  -2 -19   44.24    2.62
  -9  -2 -20    0.81    1.16
  -9   2 -20    1.12    1.06
  -9  -2 -21    1.54    1.34
   9  -3 -26    9.89    1.39
   9  -3 -25    1.08    1.64
   9  -3 -24   40.74    3.24
   9  -3 -23    6.78    2.91
   9  -3 -23    7.22    1.89
   9  -3 -22  297.95   11.99
   9  -3 -22  302.91   12.65
   9  -3 -21    1.92    3.78
   9  -3 -21    2.09    2.65
  -9  -3  20  349.08   13.84
   9   3 -19   11.00    2.56
  -9  -3  19   13.80    2.73
   9   3 -18  427.10   17.20
   9  -3 -18  421.60   17.59
  -9  -3  18  448.16   17.16
   9  -3 -17   23.34    4.71
  -9  -3  17   31.42    3.62
   9  -3 -16  307.56   13.86
  -9  -3  16  330.79   13.32
   9  -3 -15   22.29    4.99
  -9  -3  15   27.86    3.74
   9  -3 -14  306.76   13.26
   9   3 -14  293.66   12.43
  -9  -3  14  317.58   12.85
   9  -3 -13    4.70    4.21
   9   3 -13    9.91    2.83
  -9  -3  13    6.51    3.48
   9  -3 -12 1383.04   51.07
   9   3 -12 1407.12   50.65
  -9  -3  12 1435.45   50.86
   9  -3 -11   -0.95    4.35
   9   3 -11   -2.29    2.76
  -9   3  11    0.09    3.71
  -9  -3  11   -0.79    3.29
   9   3 -10   10.98    2.93
  -9   3  10   11.37    3.49
   9   3  -9  492.79   19.22
  -9   3   9  487.09   19.37
   9   3  -8  242.91   10.33
  -9   3   8  242.81   10.54
   9  -3  -7  386.64   16.01
   9   3  -7  384.36   15.59
  -9  -3   7  396.15   15.67
  -9   3   7  393.44   15.72
   9  -3  -6   61.04    4.79
   9   3  -6   65.82    4.32
  -9   3   6   65.70    4.29
  -9  -3   6   59.07    4.23
  -9  -3   6   57.41    3.86
   9  -3  -5  511.47   20.42
  -9   3   5  514.95   20.24
  -9  -3   5  525.21   20.24
  -9  -3   5  526.10   20.05
  -9  -3   4    2.16    2.36
   9  -3  -4   -0.08    3.47
  -9   3   4   -0.23    2.49
  -9  -3   4    3.72    2.70
   9  -3  -3  124.77    6.62
  -9   3   3  128.55    6.12
  -9  -3   3  126.18    6.31
  -9  -3   3  130.75    6.11
   9  -3  -2   42.50    4.08
  -9   3   2   44.25    3.26
  -9  -3   2   42.99    3.49
  -9  -3   2   43.85    3.44
   9  -3  -1  217.97    9.81
  -9   3   1  232.29    9.45
  -9  -3   1  224.44    9.59
  -9  -3   1  225.53    9.58
   9  -3   0  382.91   15.44
  -9  -3   0  389.74   15.29
  -9   3   0  381.10   15.06
  -9  -3   0  389.97   15.25
  -9   3   0  373.54   15.17
  -9  -3   0  396.12   15.32
   9  -3   1   75.84    4.68
  -9  -3  -1   78.02    4.70
  -9  -3  -1   79.00    4.43
  -9   3  -1   74.30    4.52
  -9  -3  -1   84.16    4.74
   9  -3   2  449.16   17.07
  -9  -3  -2  435.81   17.13
  -9  -3  -2  434.23   16.90
  -9   3  -2  412.97   16.91
  -9  -3  -2  443.61   17.15
  -9   3  -3   21.69    2.81
  -9  -3  -3   27.28    3.33
  -9   3  -3   19.65    2.96
   9  -3   3   25.51    3.16
  -9   3  -3   24.72    3.15
  -9  -3  -3   22.95    3.12
  -9  -3  -3   22.72    2.50
   9  -3   4   96.25    4.99
  -9   3  -4   92.83    5.06
  -9  -3  -4   91.48    5.16
  -9  -3  -4   92.83    4.58
  -9   3  -4   84.61    4.77
  -9  -3  -4   98.62    5.41
  -9   3  -4   88.65    4.99
  -9   3  -5   13.38    2.64
  -9  -3  -5   21.98    3.59
  -9   3  -5   17.74    2.78
   9  -3   5   21.91    2.84
  -9   3  -5   14.39    2.96
  -9  -3  -5   14.16    3.35
  -9   3  -6    7.14    2.48
  -9   3  -6    9.81    2.53
  -9  -3  -6   15.42    3.39
   9  -3   6    8.56    2.58
  -9   3  -6    7.30    2.83
  -9  -3  -6    8.74    3.09
  -9   3  -7    8.88    2.57
  -9   3  -7    6.20    2.24
   9  -3   7    7.12    2.23
  -9   3  -7    2.92    2.83
  -9  -3  -7    8.28    3.03
  -9  -3  -8   45.72    4.21
   9  -3   8   49.38    3.29
  -9   3  -8   46.17    3.85
  -9   3  -8   49.60    3.56
  -9   3  -8   45.98    3.27
  -9   3  -9    1.56    2.17
  -9   3  -9    0.50    2.84
  -9  -3  -9    4.04    3.33
  -9   3  -9    0.65    2.29
  -9   3 -10    3.36    2.29
  -9   3 -10    5.00    2.84
  -9  -3 -10    7.35    3.48
  -9   3 -11    4.26    2.03
  -9  -3 -11    6.43    3.68
  -9   3 -11    4.09    2.81
  -9  -3 -11    4.10    3.39
  -9   3 -12  111.65    5.53
  -9  -3 -12  105.15    6.07
  -9   3 -12  100.79    4.93
  -9  -3 -12  116.78    6.17
  -9  -3 -13   37.78    3.77
  -9   3 -13   31.56    3.25
  -9  -3 -13   34.45    3.89
  -9   3 -13   32.40    2.48
  -9  -3 -14    5.77    2.99
  -9   3 -14    4.64    2.34
  -9  -3 -14    8.87    3.31
  -9   3 -15  140.30    6.41
  -9  -3 -15  146.28    6.88
  -9  -3 -15  142.57    6.79
  -9  -3 -16    7.15    2.77
  -9   3 -16   -2.38    1.97
  -9  -3 -16    3.94    2.81
  -9  -3 -17    7.11    2.27
  -9   3 -17    1.90    1.76
  -9  -3 -17    6.62    2.57
  -9  -3 -18    2.88    2.02
  -9   3 -18    2.18    1.37
  -9  -3 -18    2.33    2.09
  -9  -3 -19   -0.58    1.52
  -9  -3 -19    1.99    1.97
  -9   3 -19    1.68    1.05
  -9  -3 -20    2.13    1.18
  -9  -3 -20    2.68    1.53
  -9  -3 -21   10.53    1.30
   9  -4 -24   32.50    1.86
   9  -4 -23    3.29    1.76
   9  -4 -22   24.96    2.71
   9  -4 -21  116.27    5.75
  -9  -4  20   79.54    4.13
   9  -4 -20   82.47    5.75
   9  -4 -19   81.48    5.79
  -9  -4  19   78.83    4.44
  -9  -4  18  163.71    7.46
   9  -4 -17   -1.99    4.56
  -9  -4  17    3.03    2.79
   9  -4 -16    0.49    4.41
  -9  -4  16    4.66    3.09
   9  -4 -15   71.31    6.09
  -9  -4  15   82.91    5.12
   9  -4 -14  144.49    8.75
  -9  -4  14  167.89    7.84
   9  -4 -13  103.68    7.17
  -9  -4  13  116.54    6.23
  -9  -4  12  199.04    8.97
   9   4 -12  191.91    8.47
   9   4 -11   66.32    4.20
  -9  -4  11   53.22    4.65
   9   4 -10   17.88    3.06
  -9  -4  10   18.60    3.55
   9  -4  -9   14.03    4.48
   9   4  -9   12.09    2.97
  -9   4   9   13.83    3.49
   9  -4  -8   -1.10    3.63
   9   4  -8    2.43    2.84
  -9   4   8    1.34    3.31
   9  -4  -7   23.72    4.26
   9   4  -7   18.30    3.21
  -9   4   7   18.38    3.31
  -9  -4   7   18.26    3.43
   9  -4  -6  114.27    6.65
   9   4  -6  114.62    5.89
  -9   4   6  112.87    6.03
  -9  -4   6  119.96    6.10
  -9  -4   6  116.24    5.51
  -9  -4   5   15.89    2.70
   9  -4  -5   22.55    3.77
  -9   4   5   14.91    3.03
  -9  -4   5   17.17    3.22
  -9  -4   4   -1.70    2.44
   9  -4  -4    1.84    3.42
  -9   4   4    1.28    2.45
  -9  -4   4    1.73    2.74
   9  -4  -3   56.45    4.39
  -9   4   3   51.70    3.81
  -9  -4   3   63.20    3.70
  -9  -4   3   60.04    4.09
  -9  -4   2   10.32    2.50
   9  -4  -2    9.23    3.19
  -9  -4   2   11.69    2.99
   9  -4  -1   67.92    4.52
  -9  -4   1   70.86    4.40
  -9  -4   1   66.12    4.14
  -9  -4   0   32.78    3.13
  -9   4   0   29.47    3.48
   9  -4   0   29.51    3.51
  -9  -4   0   28.33    3.02
  -9  -4   0   27.67    3.01
  -9  -4  -1    4.02    2.58
  -9   4  -1    0.17    2.65
   9  -4   1   -0.37    2.83
  -9  -4  -1    3.77    2.44
  -9  -4  -1    0.79    2.42
  -9  -4  -2   36.46    3.59
  -9   4  -2   39.30    3.66
   9  -4   2   41.28    3.45
  -9  -4  -2   42.63    3.36
  -9  -4  -2   42.87    3.20
   9  -4   3  127.21    6.04
  -9  -4  -3  128.07    6.12
  -9  -4  -3  123.32    5.79
  -9   4  -3  118.57    5.81
  -9   4  -3  123.77    6.20
  -9  -4  -3  119.69    6.21
   9  -4   4   45.92    3.44
  -9  -4  -4   46.30    3.62
  -9  -4  -4   46.37    3.19
  -9   4  -4   42.54    3.67
  -9  -4  -4   45.81    4.02
   9  -4   5  212.40    8.63
  -9   4  -5  196.49    8.72
  -9  -4  -5  206.64    8.86
  -9  -4  -5  195.74    8.41
  -9   4  -5  204.41    8.96
  -9   4  -5  191.09    8.45
  -9  -4  -5  212.88    9.08
   9  -4   6  101.05    4.97
  -9   4  -6   97.42    5.17
  -9  -4  -6   99.93    5.50
  -9   4  -6   89.15    5.35
  -9   4  -6   99.35    4.94
  -9  -4  -6  112.41    5.72
  -9   4  -7  146.48    6.90
  -9  -4  -7  162.40    7.24
  -9   4  -7  146.29    7.14
  -9   4  -7  143.33    6.63
  -9  -4  -7  164.26    7.39
  -9   4  -8   91.02    5.06
  -9  -4  -8   96.95    5.45
  -9   4  -8   82.52    4.98
  -9   4  -8   95.73    4.60
  -9  -4  -8  101.30    5.70
  -9   4  -9   72.41    4.28
  -9  -4  -9   74.34    4.75
  -9   4  -9   64.99    4.32
  -9   4  -9   67.86    3.80
  -9  -4  -9   77.02    5.13
  -9   4 -10  293.89   11.39
  -9  -4 -10  294.80   11.76
  -9   4 -10  258.21   11.36
  -9   4 -10  279.06   11.01
  -9  -4 -10  266.80   11.80
  -9   4 -11  629.74   24.26
  -9  -4 -11  649.54   24.56
  -9   4 -12   19.04    2.63
  -9  -4 -12   23.81    3.19
  -9   4 -13  126.70    5.90
  -9  -4 -13  133.61    6.39
  -9   4 -14  358.14   14.41
  -9  -4 -14  396.36   14.86
  -9  -4 -14  370.09   14.85
  -9   4 -15   81.67    4.15
  -9  -4 -15   95.33    4.86
  -9  -4 -15   90.98    5.03
  -9  -4 -16  123.92    5.48
  -9  -4 -16  116.24    5.55
  -9  -4 -17  139.95    6.27
  -9  -4 -17  143.01    6.34
  -9  -4 -18   14.10    2.12
  -9  -4 -18   12.08    2.13
  -9  -4 -19  192.98    7.63
  -9  -4 -19  185.17    7.59
  -9  -4 -20   11.41    1.31
  -9  -4 -20    9.06    1.30
   9  -5 -24   58.67    3.17
   9  -5 -23  108.44    4.74
   9  -5 -23  104.48    5.09
   9  -5 -22    4.30    2.50
   9  -5 -22    0.16    1.95
   9  -5 -21  169.16    7.62
   9  -5 -21  181.20    8.00
   9  -5 -20   28.91    3.73
   9  -5 -20   26.01    3.20
  -9  -5  20   21.09    2.01
   9  -5 -19   36.18    4.19
  -9  -5  19   31.75    2.66
   9  -5 -18   37.52    4.43
  -9  -5  18   30.92    2.92
  -9  -5  17  189.99    8.36
  -9   5  16   20.68    2.27
   9  -5 -16   15.60    4.58
  -9  -5  16   24.03    3.05
  -9   5  15   11.23    2.23
  -9  -5  15   10.22    3.22
  -9  -5  14   15.94    3.48
  -9  -5  13  229.92   10.15
  -9  -5  12   11.82    3.59
   9  -5 -11  401.70   17.45
  -9  -5  11  437.02   17.01
   9  -5 -10  160.49    8.54
   9   5 -10  164.35    7.23
  -9  -5  10  159.32    7.93
   9  -5  -9    4.91    4.05
   9   5  -9    9.46    2.62
  -9  -5   9   10.44    3.51
   9  -5  -8   56.52    5.06
   9   5  -8   51.02    3.79
   9  -5  -7  169.73    8.26
   9   5  -7  164.94    7.54
   9  -5  -6  236.68   10.79
  -9  -5   6  248.12   10.55
  -9  -5   5    2.28    2.15
   9  -5  -5    3.79    3.59
  -9  -5   5    4.41    3.07
   9  -5  -4  205.37    9.39
  -9  -5   4  208.86    9.27
  -9  -5   4  206.50    8.66
  -9  -5   3    2.78    2.18
   9  -5  -3    2.81    3.01
  -9  -5   3    1.14    3.17
   9  -5  -2  392.68   15.28
  -9  -5   2  376.03   15.14
  -9  -5   2  383.49   14.85
  -9   5   2  348.91   15.29
   9  -5  -1   81.40    4.83
  -9  -5   1   75.26    4.78
  -9  -5   1   75.72    4.36
  -9   5   1   75.52    4.94
   9  -5   0  298.00   12.12
  -9  -5   0  295.30   12.07
  -9  -5   0  291.22   11.88
  -9   5   0  285.95   12.31
   9  -5   1  330.38   13.42
  -9  -5  -1  342.90   13.16
  -9  -5  -1  324.13   13.38
  -9   5  -1  326.53   13.66
  -9  -5  -1  326.54   13.30
   9  -5   2  183.60    8.31
  -9  -5  -2  204.45    8.24
  -9  -5  -2  186.56    8.34
  -9   5  -2  173.93    8.54
  -9  -5  -2  194.96    8.31
   9  -5   3   40.06    3.41
  -9  -5  -3   48.16    3.47
  -9  -5  -3   42.53    3.31
  -9   5  -3   43.01    3.92
  -9  -5  -3   43.61    3.60
   9  -5   4   35.57    3.15
  -9  -5  -4   40.78    3.42
  -9  -5  -4   36.72    3.08
  -9   5  -4   41.67    3.64
  -9  -5  -4   36.54    3.73
  -9   5  -5   23.01    3.24
  -9  -5  -5   22.48    3.47
  -9  -5  -5   22.73    2.92
  -9  -5  -5   23.72    2.56
  -9  -5  -6   14.62    3.35
  -9  -5  -6   11.69    2.78
  -9  -5  -6   13.04    2.21
  -9   5  -6   10.17    2.76
  -9  -5  -7    8.83    3.44
  -9  -5  -7    6.15    2.86
  -9   5  -7    5.10    2.90
  -9  -5  -8   73.64    4.36
  -9   5  -8   68.34    4.46
  -9  -5  -8   74.15    4.86
  -9  -5  -9   10.47    3.49
  -9  -5  -9    8.91    2.70
  -9   5  -9    7.75    2.53
  -9   5 -10  125.33    6.24
  -9  -5 -10  136.90    6.46
  -9  -5 -10  141.17    6.72
  -9  -5 -11   83.64    4.81
  -9  -5 -11   90.68    5.35
  -9  -5 -12   32.15    3.87
  -9  -5 -12   34.90    3.25
  -9  -5 -13    4.24    3.18
  -9  -5 -13    2.96    2.48
  -9  -5 -14    3.21    2.19
  -9  -5 -15    4.13    2.04
  -9  -5 -16    5.87    2.08
  -9  -5 -17   38.75    2.67
  -9  -5 -17   45.60    2.98
  -9  -5 -18   80.09    3.68
  -9  -5 -18   77.66    3.80
  -9  -5 -19    1.43    1.30
  -9  -5 -19    1.88    1.12
   9  -6 -23   13.84    1.69
   9  -6 -23   13.70    1.50
   9  -6 -22    0.78    1.76
   9  -6 -22    1.45    1.67
   9  -6 -21    4.59    2.26
   9  -6 -21    6.52    2.30
   9  -6 -20   13.08    2.72
   9  -6 -20   13.96    2.78
   9  -6 -19    2.13    2.81
   9  -6 -19    4.51    3.07
  -9  -6  19    5.71    1.57
   9  -6 -18   30.50    3.70
  -9  -6  18   31.48    2.61
   9  -6 -17  124.97    6.60
  -9  -6  17  120.90    5.75
  -9  -6  16   19.67    2.78
  -9  -6  15  208.08    8.72
  -9   6  15  187.87    8.07
  -9   6  14   26.84    2.58
  -9  -6  14   27.71    3.50
   9  -6 -13   74.94    6.04
  -9  -6  13   88.76    5.15
  -9   6  13   79.51    4.41
   9  -6 -12  100.22    6.79
  -9  -6  12   98.70    5.83
  -9   6  12   96.75    5.11
  -9  -6  11  100.14    5.77
  -9   6  11   95.69    5.16
   9  -6 -10  237.11   10.72
  -9  -6  10  239.53   10.27
  -9   6  10  223.97    9.96
   9  -6  -9  223.76   10.26
  -9  -6   9  230.26    9.92
  -9   6   9  206.14    9.49
   9  -6  -8  241.92   11.06
   9   6  -8  245.38   10.05
  -9  -6   8  236.23   10.65
  -9   6   8  247.23   10.48
   9  -6  -7  437.22   17.71
   9   6  -7  431.82   17.06
  -9   6   7  450.27   17.51
   9   6  -6   49.77    3.53
   9  -6  -6   44.36    4.36
  -9   6   6   47.97    4.38
   9  -6  -5  376.55   15.59
  -9  -6   5  379.22   15.56
  -9   6   5  393.93   15.59
  -9  -6   4   12.72    2.13
  -9   6   4   11.30    3.49
   9  -6  -4   12.73    3.53
  -9  -6   4   12.14    3.63
   9  -6  -3  284.51   12.03
  -9  -6   3  294.95   12.17
  -9  -6   3  285.52   11.49
   9  -6  -2   76.00    4.81
  -9  -6   2   74.00    4.98
  -9  -6   2   79.50    4.21
   9  -6  -1  448.46   17.50
  -9  -6   1  462.25   17.66
  -9   6   1  427.10   17.75
  -9  -6   1  438.17   17.19
   9  -6   0  202.01    9.16
  -9  -6   0  213.80    9.38
  -9   6   0  216.06    9.65
  -9  -6   0  219.37    8.98
  -9  -6  -1   13.05    2.65
  -9   6  -1   16.00    3.41
   9  -6   1   12.55    2.61
  -9  -6  -1   11.34    2.94
  -9   6  -2   12.09    3.42
  -9  -6  -2   16.42    2.79
   9  -6   2   13.04    2.48
  -9  -6  -2   13.76    2.83
  -9  -6  -3  118.65    5.44
  -9  -6  -3  110.86    5.83
  -9   6  -3  112.40    6.16
  -9  -6  -3  117.30    5.79
  -9  -6  -4   25.37    3.10
  -9  -6  -4   26.21    2.60
  -9  -6  -4   23.82    2.93
  -9   6  -4   25.74    3.42
  -9  -6  -5  186.52    7.80
  -9  -6  -5  163.93    7.82
  -9   6  -5  171.95    8.32
  -9  -6  -6   37.94    3.01
  -9  -6  -6   34.47    2.87
  -9  -6  -6   37.07    3.52
  -9   6  -6   27.96    3.42
  -9  -6  -7  114.07    5.32
  -9  -6  -7  103.29    5.14
  -9   6  -7  103.34    5.73
  -9  -6  -7  118.82    5.72
  -9  -6  -8    4.99    2.98
  -9  -6  -8    3.09    2.29
  -9   6  -8   -2.69    2.51
  -9  -6  -9   32.16    3.36
  -9  -6  -9   28.64    2.81
  -9   6  -9   27.06    2.96
  -9  -6 -10    6.19    2.93
  -9  -6 -10    6.90    2.35
  -9   6 -10    4.82    2.22
  -9  -6 -11    3.58    2.89
  -9  -6 -11    2.42    2.22
  -9   6 -11    3.98    2.04
  -9  -6 -12   38.45    2.95
  -9  -6 -12   44.65    3.56
  -9  -6 -13   52.21    3.23
  -9  -6 -13   53.36    3.82
  -9  -6 -14  159.90    6.81
  -9  -6 -14  165.28    7.12
  -9  -6 -15   25.61    2.21
  -9  -6 -15   33.99    2.84
  -9  -6 -16   13.17    2.05
  -9  -6 -16    7.69    1.57
  -9  -6 -17   28.15    1.82
   9  -7 -22   21.75    1.78
   9  -7 -21    8.46    1.68
   9  -7 -21   10.29    1.89
   9  -7 -20   81.78    4.18
   9  -7 -20   73.13    3.96
   9  -7 -19    7.53    2.25
   9  -7 -19    8.43    2.59
  -9  -7  18  198.75    8.05
   9  -7 -18  201.73    8.63
  -9  -7  17  118.10    5.30
   9  -7 -17  112.96    5.87
   9  -7 -16  354.58   14.13
  -9  -7  16  341.63   13.66
   9  -7 -15  188.53    8.52
  -9  -7  15  183.29    8.05
  -9  -7  14  439.07   16.25
  -9   7  14  391.35   15.72
   9  -7 -13  348.97   14.78
  -9  -7  13  371.18   14.28
  -9   7  13  343.53   13.83
   9  -7 -12  125.96    7.43
  -9  -7  12  140.16    6.66
  -9   7  12  133.43    6.14
   9  -7 -11  171.35    8.82
  -9  -7  11  185.19    8.30
  -9   7  11  179.22    7.86
  -9   7  10   33.84    3.25
   9  -7 -10   36.21    4.57
  -9  -7  10   35.28    4.03
  -9   7   9   17.76    2.87
   9  -7  -9   20.63    4.32
  -9  -7   9   28.42    3.97
   9  -7  -8  130.98    7.52
  -9  -7   8  148.07    7.36
  -9   7   8  148.73    6.95
  -9   7   7    0.83    2.88
   9  -7  -7    1.76    3.72
   9  -7  -6   66.45    5.14
   9   7  -6   76.12    4.09
  -9   7   6   73.25    4.80
   9  -7  -5  101.54    6.05
  -9  -7   5  106.15    6.24
  -9   7   5  112.94    5.96
  -9   7   4   44.10    4.17
  -9  -7   4   43.81    4.55
   9  -7  -3   86.06    5.19
  -9  -7   3   85.73    5.68
  -9   7   3   96.45    5.60
  -9  -7   2    8.14    1.91
   9  -7  -2    7.75    2.87
  -9  -7   2    8.32    3.45
   9  -7  -1   59.11    4.03
  -9  -7   1   61.71    4.56
  -9  -7   1   63.09    3.52
  -9   7   0    2.72    3.58
  -9  -7   0   10.53    2.22
   9  -7   0    5.34    2.51
  -9  -7   0   10.35    3.18
  -9  -7  -1   20.48    2.49
  -9  -7  -1   16.21    3.34
  -9   7  -1   22.54    3.76
  -9  -7  -2   17.62    2.39
  -9  -7  -2   16.82    3.27
  -9   7  -2   17.56    3.65
  -9  -7  -3  190.92    8.29
  -9   7  -3  168.18    8.47
  -9  -7  -3  191.85    7.98
  -9  -7  -4    9.78    2.55
  -9  -7  -4    6.17    2.75
  -9   7  -4    8.46    3.11
  -9  -7  -5  194.10    8.67
  -9   7  -5  199.84    9.09
  -9  -7  -5  216.87    8.76
  -9  -7  -6   13.98    2.80
  -9  -7  -6   10.10    2.26
  -9   7  -6    8.82    2.84
  -9   7  -7  161.79    7.61
  -9  -7  -7  159.53    7.14
  -9  -7  -7  181.59    7.48
  -9  -7  -8    0.95    2.45
  -9  -7  -8    4.10    1.80
  -9   7  -8    2.36    2.42
  -9  -7  -9  197.75    8.16
  -9   7  -9  187.02    8.55
  -9  -7 -10    7.40    2.63
  -9  -7 -10    1.49    1.61
  -9   7 -10    4.00    2.16
  -9  -7 -11  103.95    4.56
  -9  -7 -11  111.46    5.14
  -9  -7 -12    7.47    2.40
  -9  -7 -12    1.55    1.52
  -9  -7 -13    6.44    2.13
  -9  -7 -13    4.36    1.34
  -9  -7 -14    3.12    1.99
  -9  -7 -14    0.45    1.23
  -9  -7 -15    4.43    1.76
  -9  -7 -16    0.49    1.48
  -9  -7 -17   41.51    2.24
   9  -8 -21   10.85    1.45
   9  -8 -21   12.33    1.42
   9  -8 -19   10.53    1.44
   9  -8 -18    0.44    1.52
   9  -8 -18    1.61    2.15
   9  -8 -17    3.34    1.73
   9  -8 -17    2.65    2.55
  -9  -8  17    3.56    1.30
   9  -8 -16   25.49    2.50
   9  -8 -16   22.90    3.21
  -9  -8  16   28.63    2.31
   9  -8 -15   -0.07    2.10
   9  -8 -15   -0.07    2.99
  -9  -8  15    1.25    1.91
   9  -8 -14   10.63    2.43
  -9  -8  14    8.98    2.41
   9  -8 -13   13.81    2.58
  -9  -8  13   11.26    2.72
  -9   8  13   12.53    1.77
  -9  -8  12   53.06    3.79
  -9   8  12   45.11    2.98
  -9  -8  11    0.82    3.05
  -9   8  11    1.35    2.00
  -9  -8  10  141.19    6.81
  -9   8  10  134.76    6.29
  -9   8   9   23.17    2.82
   9  -8  -9   20.09    3.59
  -9  -8   9   20.07    3.71
  -9   8   8   29.36    3.07
   9  -8  -8   25.51    3.83
  -9  -8   8   30.23    3.87
   9  -8  -7  116.68    6.33
  -9  -8   7  128.44    6.61
  -9   8   7  120.48    6.06
  -9   8   6    3.69    2.84
   9  -8  -6    1.89    2.85
   9  -8  -5   51.60    4.08
  -9   8   5   60.14    4.29
   9  -8  -4  251.80   11.00
  -9  -8   4  269.75   11.49
  -9   8   4  268.47   11.21
   9  -8  -3    0.21    2.49
  -9  -8   3    2.33    3.60
  -9   8   3    2.83    3.19
  -9  -8   2  115.82    6.27
  -9   8   2  111.34    6.24
  -9  -8   1   27.94    3.71
  -9  -8   0   10.21    3.19
  -9  -8  -1    2.34    3.15
  -9   8  -1    3.27    3.23
  -9  -8  -2   31.41    3.47
  -9  -8  -2   34.91    2.56
  -9   8  -2   28.22    3.80
  -9  -8  -3   62.29    4.27
  -9   8  -3   64.27    4.62
  -9  -8  -3   70.97    3.68
  -9  -8  -4   18.28    2.26
  -9  -8  -4   16.71    2.82
  -9   8  -4   17.51    3.17
  -9  -8  -5   31.68    2.97
  -9   8  -5   34.46    3.55
  -9  -8  -5   40.65    2.82
  -9  -8  -6    2.50    2.05
  -9  -8  -6    3.92    2.17
  -9   8  -6    1.37    2.62
  -9  -8  -7   23.57    2.49
  -9  -8  -7   19.32    2.34
  -9   8  -7   21.33    2.97
  -9   8  -8   70.85    4.17
  -9  -8  -8   73.11    3.95
  -9   8  -9  329.56   13.59
  -9  -8  -9  355.44   13.42
  -9  -8 -10    4.03    1.98
  -9   8 -10    3.26    1.86
  -9   8 -11  301.32   12.71
  -9  -8 -11  358.03   12.80
  -9  -8 -12    1.38    1.73
  -9   8 -12    1.62    1.23
  -9  -8 -13  232.09    9.16
  -9  -8 -14   41.28    2.40
  -9  -8 -15  113.12    4.71
  -9  -8 -16    6.80    0.98
   9  -9 -19   23.97    1.65
   9  -9 -19   17.34    1.61
   9  -9 -18   30.30    2.25
   9  -9 -17   29.93    2.48
   9  -9 -16  138.85    6.19
   9  -9 -15    8.44    2.24
  -9  -9  15   10.12    1.66
  -9  -9  14   79.33    4.03
   9  -9 -14   86.51    4.51
   9  -9 -13    6.71    2.64
  -9  -9  13    7.15    2.14
   9  -9 -12   71.04    4.12
  -9  -9  12   71.34    3.92
  -9   9  12   60.75    3.16
   9  -9 -11   12.04    2.83
  -9  -9  11   13.08    2.73
  -9   9  11   12.61    1.76
  -9  -9  10   81.22    4.51
  -9   9  10   69.34    3.80
  -9  -9   9   56.62    4.18
  -9   9   9   55.45    3.46
  -9  -9   8    6.71    3.12
  -9   9   8    2.17    2.13
  -9  -9   7   38.91    3.81
  -9   9   7   28.21    2.88
  -9  -9   6   18.25    3.44
  -9   9   6   13.01    2.77
  -9   9   5   80.06    4.65
  -9   9   4    3.10    2.76
  -9  -9   3   39.28    4.00
  -9   9   3   33.55    3.55
  -9  -9   2   26.65    3.72
  -9   9   2   18.70    3.25
  -9  -9   1  214.27    9.23
  -9   9   1  207.13    9.30
  -9  -9   0   22.67    3.33
  -9  -9  -1  317.73   12.92
  -9   9  -2   66.03    4.53
  -9  -9  -2   71.77    4.44
  -9   9  -3  131.55    6.56
  -9  -9  -3  138.27    6.41
  -9  -9  -4   15.35    2.68
  -9   9  -4   12.63    2.82
  -9   9  -5  161.55    7.51
  -9  -9  -5  172.32    7.28
  -9   9  -6   47.38    3.53
  -9  -9  -6   48.95    3.13
  -9  -9  -6   46.09    2.63
  -9   9  -7   53.65    3.44
  -9  -9  -7   49.88    3.03
  -9  -9  -7   50.71    2.79
  -9  -9  -8    0.11    1.40
  -9   9  -8    0.76    1.84
  -9   9  -9   30.63    2.51
  -9  -9  -9   31.38    2.07
  -9  -9 -10    3.43    1.35
  -9   9 -10    1.94    1.53
  -9  -9 -11   15.48    1.53
  -9   9 -11   15.90    1.58
  -9  -9 -12    9.74    1.26
  -9  -9 -13   27.93    1.59
   9 -10 -17   18.31    1.37
   9 -10 -16    2.78    1.19
   9 -10 -15    6.37    1.53
   9 -10 -14   20.36    2.00
  -9 -10  14   18.85    1.62
   9 -10 -13   15.59    2.00
  -9 -10  13   17.24    1.81
   9 -10 -12    7.47    1.92
  -9 -10  12    6.06    1.78
   9 -10 -11   48.86    3.15
  -9 -10  11   60.05    3.31
   9 -10 -10   10.72    2.09
  -9 -10  10   14.96    2.34
  -9  10  10   13.01    1.47
   9 -10  -9   92.52    4.51
  -9  10   9   88.65    4.31
   9 -10  -8    2.88    1.78
  -9 -10   8    1.07    2.44
  -9  10   8    3.78    1.68
  -9 -10   7   79.77    4.40
  -9  10   7   68.64    3.76
  -9 -10   6    5.71    2.57
  -9  10   6    6.40    2.04
  -9  10   5  183.77    7.86
  -9  10   4    5.93    2.34
  -9  10   3  234.70    9.71
  -9 -10   3  229.92    9.86
  -9 -10   2   13.90    2.92
  -9  10   2   15.46    2.72
  -9  10   1  353.83   14.15
  -9 -10   1  355.96   14.18
  -9  10   0   50.78    3.73
  -9 -10   0   53.07    3.91
  -9 -10  -1  199.40    8.54
  -9 -10  -2  103.03    5.20
  -9 -10  -3   34.59    2.93
  -9  10  -3   30.15    3.10
  -9  10  -4   54.52    3.53
  -9 -10  -4   51.89    3.31
  -9  10  -5   58.43    3.46
  -9 -10  -5   53.16    3.24
  -9  10  -6   91.80    4.47
  -9 -10  -6   88.90    4.26
  -9  10  -7   75.43    3.68
  -9 -10  -7   64.32    3.30
  -9  10  -8   28.07    2.26
  -9  10  -9    2.64    1.29
  -9  10 -10    8.24    1.29
  -9 -11  12   -0.16    1.04
  -9 -11  11   12.38    1.45
  -9 -11  10   10.83    1.69
  -9 -11   9   53.59    3.04
  -9 -11   8   -0.29    1.76
  -9  11   8    0.34    1.03
  -9  11   7   60.72    3.14
  -9 -11   7   75.58    3.71
  -9 -11   6   12.79    2.24
  -9  11   6   12.41    1.66
  -9 -11   5   15.39    2.40
  -9  11   5    9.47    1.65
  -9  11   4  104.64    4.80
  -9  11   3   -0.66    1.67
  -9 -11   2   17.01    2.46
  -9  11   2   16.12    2.10
  -9 -11   1    6.07    2.22
  -9  11   1    7.23    1.87
  -9 -11   0   16.68    2.36
  -9  11   0   17.16    2.15
  -9 -11  -1   12.53    2.19
  -9  11  -1   14.35    2.11
  -9 -11  -2    3.57    1.96
  -9 -11  -3   21.06    2.17
  -9 -11  -4    0.04    1.49
  -9  11  -4    3.57    1.74
  -9  11  -5   60.25    3.07
  -9 -11  -5   53.85    2.86
  -9  11  -6    9.31    1.53
  -9 -11  -6    7.37    1.25
  -9  11  -7  101.91    4.41
  -9  11  -8    2.15    0.99
  -9  11  -9    1.93    0.81
  -9 -12   9   11.28    1.20
  -9 -12   8    5.56    1.19
  -9 -12   7   37.17    2.17
  -9 -12   6   13.51    1.58
  -9  12   5   10.83    1.10
  -9 -12   5   15.39    1.70
  -9 -12   4   13.24    1.71
  -9  12   4   10.36    1.24
  -9  12   3    8.75    1.26
  -9  12   2   35.27    2.07
  -9  12   1   70.12    3.41
  -9 -12   1   79.40    3.59
  -9  12   0   94.97    4.28
  -9 -12   0  104.72    4.41
  -9  12  -1    0.75    1.11
  -9 -12  -1    2.76    1.33
  -9  12  -2   84.83    3.84
  -9 -12  -2   88.22    3.82
  -9  12  -3   10.82    1.40
  -9 -12  -3   13.09    1.27
  -9 -12  -4   17.85    1.34
  -9  12  -5    8.78    1.06
  -9  12  -6   17.09    1.20
  10   0 -24    1.69    1.25
  10   0 -23   -0.75    1.65
  10   0 -22   11.11    2.36
  10   0 -21    2.42    2.62
  10   0 -20   10.91    3.12
  10   0 -19   -4.43    2.58
  10   0 -18  165.62    7.86
 -10   0  18  180.58    8.10
  10   0 -17   -2.55    3.04
 -10   0  17   -2.42    3.31
  10   0 -16  369.52   15.18
 -10   0  16  373.38   15.25
  10   0 -15   -2.53    3.49
 -10   0  15    0.46    3.72
  10   0 -14   34.07    4.31
 -10   0  14   32.79    4.35
  10   0 -13    1.36    3.97
  10   0 -12  346.17   14.52
  10   0 -11    0.09    4.15
 -10   0  11   -1.12    3.83
  10   0 -10  329.00   13.90
 -10   0  10  326.50   13.73
  10   0  -9   -1.63    4.25
 -10   0   9    0.72    3.56
  10   0  -8   71.75    5.59
 -10   0   8   76.33    5.12
  10   0  -7    4.52    3.92
 -10   0   7    4.15    3.30
  10   0  -6   30.71    4.58
 -10   0   6   33.39    3.64
  10   0  -5    1.27    4.15
 -10   0   5    1.49    2.76
 -10   0   4  113.61    5.81
 -10   0   3   -3.60    3.46
 -10   0   3    3.54    2.70
 -10   0   2  107.75    5.42
  10   0  -1    0.80    3.68
 -10   0   1    0.74    2.20
  10   0   0   62.81    4.87
 -10   0   0   61.34    3.81
 -10   0  -1    1.26    3.30
 -10   0  -1    0.27    1.91
 -10   0  -2   54.22    4.20
 -10   0  -3   -0.37    3.18
 -10   0  -4  152.65    7.37
 -10   0  -5    1.84    3.13
 -10   0  -5    0.41    2.15
 -10   0  -6  224.90    9.81
 -10   0  -7    3.77    3.34
 -10   0  -8  378.91   16.27
 -10   0  -8  424.56   16.13
 -10   0  -9    1.96    2.94
 -10   0  -9   -1.65    3.54
 -10   0 -10  152.95    7.28
 -10   0 -10  142.74    6.95
 -10   0 -11    2.02    2.57
 -10   0 -11    1.20    3.40
 -10   0 -12  309.14   12.57
 -10   0 -12  304.40   12.34
 -10   0 -13   -1.37    2.27
 -10   0 -13   -2.11    3.04
 -10   0 -14   48.48    3.68
 -10   0 -14   49.20    3.26
 -10   0 -15    0.74    1.76
 -10   0 -15    0.23    2.53
 -10   0 -16  296.89   10.76
 -10   0 -16  247.05   10.31
 -10   0 -17   -0.87    1.11
 -10   0 -17    1.36    1.87
 -10   0 -18  154.82    6.41
 -10   0 -19    1.92    1.15
  10  -1 -24    1.69    1.43
  10   1 -23   17.94    1.70
  10  -1 -23   18.37    2.27
  10   1 -22   53.68    3.33
  10  -1 -22   59.28    3.87
  10  -1 -21  115.92    5.33
  10   1 -21  123.43    5.82
  10  -1 -21  127.87    6.31
  10   1 -20   14.13    2.85
  10  -1 -20   14.42    3.53
  10   1 -19  467.83   18.32
  10  -1 -19  450.88   18.03
 -10  -1  19  464.28   18.03
  10  -1 -18  121.42    6.22
  10   1 -18  106.13    5.56
 -10  -1  18  116.94    6.02
  10  -1 -17  310.10   13.18
  10   1 -17  304.22   12.78
 -10   1  17  317.15   13.14
 -10  -1  17  328.83   13.08
  10  -1 -16   28.83    4.21
  10   1 -16   28.42    3.54
 -10   1  16   26.72    4.05
 -10  -1  16   26.86    3.76
  10   1 -15   53.83    4.19
 -10   1  15   47.69    4.61
 -10  -1  15   58.52    4.53
  10  -1 -14   26.43    4.39
  10   1 -14   25.67    3.78
 -10  -1  14   25.08    4.26
  10  -1 -13  198.02    9.48
  10   1 -13  191.21    9.20
 -10  -1  13  200.43    9.33
  10  -1 -12    0.09    4.23
  10   1 -12    0.71    3.61
  10  -1 -11   83.58    5.95
  10   1 -11   79.83    5.49
 -10   1  11   73.46    5.47
  10  -1 -10   86.24    6.18
  10   1 -10   91.11    5.80
 -10   1  10   92.46    5.63
 -10  -1  10   88.69    5.77
  10  -1  -9   12.08    4.47
  10   1  -9   17.91    4.10
 -10   1   9   18.81    3.72
 -10  -1   9   18.59    3.77
  10  -1  -8  386.53   15.98
  10   1  -8  388.96   15.86
 -10   1   8  394.56   15.78
 -10  -1   8  381.85   15.71
  10   1  -7   88.37    5.59
 -10   1   7   93.53    5.44
 -10  -1   7   86.39    5.49
  10   1  -6   16.17    4.02
 -10   1   6   10.20    3.14
 -10  -1   6    8.16    3.12
 -10  -1   5   62.93    4.52
  10   1  -5   64.03    5.03
 -10   1   5   68.82    4.48
  10   1  -4   84.79    5.41
 -10   1   4   83.36    4.81
 -10  -1   4   76.33    4.87
 -10  -1   4   80.04    4.99
  10  -1  -3  120.92    6.64
  10   1  -3  106.99    6.44
 -10   1   3  112.58    5.75
 -10  -1   3  114.31    5.89
 -10  -1   3  123.11    6.19
  10  -1  -2   67.27    5.04
 -10   1   2   67.41    4.13
 -10  -1   2   70.02    4.31
 -10   1   2   58.89    4.70
 -10  -1   2   66.44    4.59
  10  -1  -1  387.00   15.93
 -10   1   1  385.46   15.54
 -10  -1   1  400.85   15.61
 -10   1   1  384.47   15.74
 -10  -1   1  411.92   15.79
  10  -1   0  273.21   11.53
 -10   1   0  271.12   11.02
 -10  -1   0  265.00   11.05
 -10   1   0  280.74   11.35
 -10  -1   0  260.26   11.38
  10  -1   1  161.79    7.75
 -10  -1  -1  164.32    7.71
 -10  -1  -1  152.43    7.06
 -10   1  -1  166.14    7.56
  10  -1   2  173.97    7.82
 -10   1  -2  163.81    7.92
 -10  -1  -2  165.41    7.84
 -10  -1  -2  159.69    7.16
 -10   1  -2  165.64    7.73
  10  -1   3   82.47    5.11
 -10   1  -3   81.15    5.21
 -10  -1  -3   92.48    5.31
 -10   1  -3   71.79    5.01
  10  -1   4   94.10    5.52
 -10   1  -4  106.97    5.65
 -10  -1  -4   93.58    5.84
 -10   1  -4   90.37    5.21
 -10   1  -4   88.72    5.10
  10  -1   5   56.65    4.29
 -10   1  -5   53.17    4.53
 -10  -1  -5   54.00    4.71
 -10   1  -5   55.75    4.08
 -10  -1  -5   61.58    4.33
 -10   1  -5   50.42    3.73
 -10   1  -6   10.10    2.90
 -10  -1  -6    6.99    3.38
 -10   1  -6    9.72    2.38
 -10   1  -6    8.24    3.29
 -10  -1  -6   11.35    3.68
 -10   1  -7    9.82    3.15
 -10  -1  -7    9.01    3.57
 -10   1  -7    9.30    3.52
 -10  -1  -7    9.21    4.00
  10  -1   8   91.29    4.88
 -10   1  -8   85.69    5.38
 -10   1  -8   86.67    5.08
 -10  -1  -8   92.98    5.37
  10  -1   9   72.36    4.33
 -10   1  -9   80.89    5.10
 -10   1  -9   76.04    4.55
 -10  -1  -9   81.81    5.00
  10  -1  10   48.67    3.47
 -10   1 -10   48.39    4.19
 -10   1 -10   53.00    3.67
 -10  -1 -10   54.06    4.05
  10  -1  11  161.10    7.17
 -10   1 -11  174.72    7.77
 -10   1 -11  169.36    7.43
 -10  -1 -11  176.13    7.75
 -10   1 -12    3.94    2.42
 -10  -1 -12    3.98    2.71
 -10   1 -12    7.43    3.10
 -10   1 -13   48.52    3.79
 -10   1 -13   42.23    3.14
 -10  -1 -13   48.24    3.42
 -10   1 -14   87.67    4.58
 -10   1 -14   77.06    4.03
 -10  -1 -14   84.13    4.41
 -10   1 -15   39.31    3.15
 -10  -1 -15   36.62    3.19
 -10   1 -15   37.62    2.42
 -10  -1 -15   39.00    2.83
 -10  -1 -16   22.69    2.16
 -10   1 -16   20.77    2.39
 -10  -1 -16   23.51    2.68
 -10   1 -16   17.18    1.55
 -10   1 -17  102.20    4.52
 -10  -1 -17  102.87    4.69
 -10  -1 -17   91.32    4.26
 -10   1 -18  103.96    4.34
 -10  -1 -18  111.88    4.56
 -10   1 -19   43.21    2.24
 -10  -1 -19   49.63    2.49
  10  -2 -24   33.35    2.31
  10  -2 -23    8.89    2.10
  10  -2 -22   48.89    2.76
  10  -2 -22   67.08    3.95
  10   2 -21    7.41    1.74
  10  -2 -21   11.61    3.09
  10  -2 -21    8.49    2.00
  10   2 -20    5.35    2.12
  10  -2 -20    6.77    3.37
  10   2 -19   34.81    3.17
 -10  -2  19   30.85    3.11
  10  -2 -18   51.85    4.38
 -10  -2  18   48.46    3.78
  10  -2 -17   15.14    3.62
 -10  -2  17   20.09    3.31
  10  -2 -16   31.64    4.48
  10   2 -16   32.02    3.26
 -10  -2  16   35.22    3.90
  10  -2 -15   12.32    4.03
  10   2 -15    9.96    2.88
 -10   2  15   12.02    3.91
 -10  -2  15   15.94    3.66
  10  -2 -14   28.51    4.79
  10   2 -14   27.81    3.43
 -10  -2  14   22.62    3.98
  10  -2 -13    1.32    4.42
  10   2 -13    5.29    3.21
 -10  -2  13    3.72    3.67
  10  -2 -12  234.00   10.80
  10   2 -12  234.14   10.15
 -10   2  12  233.93   10.53
 -10  -2  12  223.58   10.29
  10  -2 -11    4.36    4.46
  10   2 -11   -0.68    3.52
 -10   2  11    0.38    3.56
  10  -2 -10  124.75    7.53
  10   2 -10  132.42    6.93
 -10   2  10  130.23    6.95
 -10   2   9    1.84    3.48
  10   2  -9   -0.51    3.49
 -10  -2   9    2.84    3.70
  10   2  -8   73.63    5.16
 -10   2   8   83.55    5.14
 -10  -2   8   75.52    5.23
  10   2  -7   62.75    4.79
 -10   2   7   60.76    4.61
 -10  -2   7   61.33    4.53
  10   2  -6  135.08    7.26
 -10   2   6  147.99    7.01
 -10  -2   6  140.89    6.95
  10  -2  -5   13.46    4.12
  10   2  -5   17.68    3.89
 -10   2   5   14.22    3.15
 -10  -2   5   13.18    3.20
  10  -2  -4  248.07   10.97
  10   2  -4  246.77   10.91
 -10   2   4  254.44   10.66
 -10  -2   4  250.36   10.66
 -10  -2   4  248.89   10.59
  10  -2  -3   80.99    5.67
  10   2  -3   92.20    5.67
 -10   2   3   88.71    4.83
 -10  -2   3   80.10    4.94
 -10  -2   3   88.96    5.23
  10  -2  -2   48.74    4.61
 -10   2   2   49.99    3.67
 -10  -2   2   54.40    3.95
 -10  -2   2   58.49    4.19
  10  -2  -1  107.89    6.17
 -10   2   1  106.83    5.48
 -10  -2   1  111.51    5.70
 -10  -2   1  122.74    5.92
 -10   2   0    8.56    3.28
 -10  -2   0    6.99    3.32
  10  -2   0    5.05    3.62
 -10   2   0    6.76    2.09
 -10  -2   0    3.29    2.24
  10  -2   1   53.09    4.34
 -10  -2  -1   58.05    4.42
 -10  -2  -1   45.46    3.40
 -10   2  -1   52.37    4.15
 -10  -2  -1   56.93    4.33
 -10   2  -2    5.42    3.02
 -10  -2  -2    5.69    3.24
  10  -2   2    3.41    3.14
 -10  -2  -2    3.78    3.10
 -10  -2  -2    5.21    2.13
  10  -2   3   71.12    4.79
 -10  -2  -3   70.12    4.92
 -10  -2  -3   75.03    3.93
 -10   2  -3   70.12    4.60
 -10  -2  -3   76.83    5.08
 -10   2  -3   69.68    4.48
  10  -2   4   83.37    5.01
 -10   2  -4   73.56    5.09
 -10  -2  -4   88.98    5.33
 -10   2  -4   80.89    4.69
 -10   2  -4   77.42    4.77
  10  -2   5   69.65    4.54
 -10   2  -5   61.84    4.57
 -10  -2  -5   64.65    4.83
 -10   2  -5   62.09    4.09
 -10   2  -5   64.71    4.14
 -10   2  -6   59.42    4.50
 -10  -2  -6   59.41    4.84
 -10   2  -6   60.49    4.02
 -10   2  -6   60.49    4.16
 -10   2  -7   21.95    3.06
  10  -2   7   20.97    3.06
 -10   2  -7   21.59    3.53
 -10  -2  -7   26.21    4.00
 -10   2  -7   17.75    2.65
 -10   2  -8   15.76    2.93
 -10  -2  -8   15.79    3.78
  10  -2   8   15.97    2.70
 -10   2  -8   18.20    3.46
 -10  -2  -8   18.86    3.80
 -10   2  -9   18.07    2.91
 -10  -2  -9   19.73    3.77
  10  -2   9   23.52    2.61
 -10   2  -9   18.20    3.32
 -10  -2  -9   17.97    3.85
 -10   2 -10    3.98    2.31
 -10  -2 -10    4.66    3.28
  10  -2  10    3.79    1.97
 -10   2 -10    3.58    2.74
 -10  -2 -10    4.88    3.46
 -10   2 -11    1.95    2.10
 -10  -2 -11    5.80    3.13
 -10   2 -11    2.90    2.84
 -10  -2 -11   -0.44    3.37
 -10   2 -12   10.57    2.10
 -10  -2 -12    8.06    2.96
 -10   2 -12   11.55    2.91
 -10  -2 -12    9.56    3.26
 -10  -2 -13   39.73    3.46
 -10   2 -13   33.75    3.07
 -10  -2 -13   41.47    3.63
 -10   2 -13   35.68    2.57
 -10   2 -14    9.91    1.62
 -10  -2 -14   10.83    2.73
 -10   2 -14   10.65    2.39
 -10  -2 -14   13.31    2.97
 -10  -2 -15   19.34    2.51
 -10   2 -15   20.24    2.34
 -10   2 -16  202.53    8.10
 -10  -2 -16  195.29    8.11
 -10   2 -17   23.71    1.96
 -10  -2 -17   26.75    2.03
 -10  -2 -18   23.16    1.69
  10  -3 -24  117.80    5.09
  10  -3 -23   32.49    2.58
  10  -3 -22  137.80    5.97
  10  -3 -22  152.27    6.62
  10  -3 -21   90.07    4.48
  10  -3 -21   90.47    5.09
 -10  -3  20   84.98    4.26
 -10  -3  19    3.69    2.35
  10   3 -18  203.54    8.71
  10  -3 -18  197.08    9.31
 -10  -3  18  218.70    8.99
  10  -3 -17    4.52    3.56
 -10  -3  17    9.07    2.95
  10  -3 -16  217.03   10.00
 -10  -3  16  209.16    9.39
  10  -3 -15    1.66    4.30
 -10  -3  15   12.23    3.39
  10  -3 -14  224.47   10.52
  10   3 -14  217.17    9.46
 -10  -3  14  235.12   10.05
  10   3 -13   38.76    3.51
  10  -3 -13   36.71    4.87
 -10  -3  13   41.52    4.29
  10  -3 -12   18.20    5.03
  10   3 -12   20.40    3.35
 -10   3  12   16.50    4.13
 -10  -3  12   11.36    3.94
  10   3 -11   45.80    4.22
 -10   3  11   50.65    4.68
  10   3 -10  158.93    7.76
 -10   3  10  170.09    8.00
  10   3  -9   26.33    3.65
 -10   3   9   26.42    4.00
 -10  -3   9   29.75    4.33
  10  -3  -8  101.20    6.69
  10   3  -8  106.29    5.91
 -10   3   8   93.72    5.78
 -10  -3   8  100.64    5.97
  10  -3  -7  127.28    7.31
  10   3  -7  121.51    6.43
 -10   3   7  110.50    6.33
 -10  -3   7  125.73    6.55
  10  -3  -6  145.58    7.59
  10   3  -6  135.28    7.11
 -10   3   6  133.07    6.85
 -10  -3   6  145.40    7.11
  10  -3  -5  368.47   15.26
  10   3  -5  371.28   14.88
 -10   3   5  363.58   14.84
 -10  -3   5  364.11   14.88
 -10  -3   4    1.54    2.74
  10  -3  -4    3.49    4.00
  10   3  -4    6.54    3.64
 -10   3   4    2.65    2.65
 -10  -3   4    5.40    3.04
  10  -3  -3  204.94    9.75
 -10   3   3  215.57    9.27
 -10  -3   3  213.89    9.41
 -10  -3   3  219.66    9.33
 -10  -3   2    0.52    2.96
  10  -3  -2   -1.17    3.71
 -10   3   2   -0.30    2.26
 -10  -3   2   -1.02    2.70
  10  -3  -1  125.09    6.68
 -10   3   1  121.06    5.87
 -10  -3   1  125.60    6.17
 -10  -3   1  124.43    6.35
  10  -3   0  300.06   12.82
 -10  -3   0  301.74   12.55
 -10  -3   0  324.49   12.68
  10  -3   1  156.06    7.54
 -10  -3  -1  159.58    7.05
 -10  -3  -1  152.64    7.42
 -10   3  -1  149.72    7.41
  10  -3   2  325.26   13.51
 -10  -3  -2  356.36   13.55
 -10  -3  -2  330.06   13.19
 -10   3  -2  312.31   13.28
 -10  -3  -2  350.82   13.54
 -10   3  -2  312.10   13.53
  10  -3   3  307.20   12.32
 -10  -3  -3  311.43   12.40
 -10  -3  -3  295.28   11.89
 -10   3  -3  287.36   12.05
 -10  -3  -3  301.48   12.42
 -10   3  -3  281.90   12.28
  10  -3   4   72.84    4.66
 -10  -3  -4   84.09    4.88
 -10   3  -4   69.94    4.40
 -10   3  -4   71.33    4.69
 -10  -3  -4   80.17    5.08
  10  -3   5  107.16    5.45
 -10  -3  -5  103.87    5.81
 -10   3  -5  105.36    5.60
 -10   3  -5   97.43    5.36
 -10  -3  -5  105.13    5.86
  10  -3   6  146.10    6.64
 -10   3  -6  134.88    6.80
 -10  -3  -6  149.85    7.13
 -10   3  -6  136.37    6.79
 -10   3  -6  141.51    6.60
 -10  -3  -6  144.81    7.19
  10  -3   7  124.49    5.77
 -10   3  -7  130.07    6.08
 -10  -3  -7  127.39    6.42
 -10   3  -7  107.53    5.87
 -10   3  -7  118.55    5.72
  10  -3   8   51.34    3.27
 -10   3  -8   50.99    3.84
 -10  -3  -8   46.24    4.20
 -10   3  -8   45.45    3.44
 -10   3  -8   51.95    3.47
 -10   3  -9  207.00    8.70
 -10  -3  -9  206.68    9.01
 -10   3  -9  192.71    8.39
 -10   3 -10    8.19    2.10
 -10   3 -10    7.72    2.71
 -10  -3 -10   10.10    3.32
 -10   3 -11    6.71    1.99
 -10  -3 -11    9.46    3.30
 -10   3 -11    9.40    2.51
 -10  -3 -11    6.08    3.11
 -10  -3 -12   33.47    3.58
 -10   3 -12   32.50    2.91
 -10  -3 -12   33.46    3.46
 -10   3 -12   26.26    2.20
 -10  -3 -13    4.22    2.83
 -10   3 -13    4.31    2.15
 -10  -3 -13    4.29    2.87
 -10  -3 -14    2.88    2.56
 -10   3 -14    5.76    1.99
 -10  -3 -14    6.98    2.58
 -10  -3 -15   13.33    2.25
 -10   3 -15   15.12    1.88
 -10  -3 -15   14.36    2.55
 -10  -3 -16  145.09    6.22
 -10  -3 -16  139.21    6.09
 -10  -3 -17  113.68    4.77
 -10  -3 -17   97.64    4.57
 -10  -3 -18    8.80    1.30
 -10  -3 -19   12.52    1.19
  10  -4 -22    0.75    1.43
  10  -4 -21   25.56    2.44
  10  -4 -20    9.45    3.04
  10  -4 -20    9.09    2.51
 -10  -4  20    2.75    1.58
  10  -4 -19    4.42    3.25
 -10  -4  19    3.64    1.92
 -10  -4  18   -0.79    2.22
 -10   4  17    8.94    1.80
  10  -4 -17   10.78    3.88
 -10  -4  17   14.65    2.81
  10  -4 -16    5.05    3.92
 -10  -4  16    9.55    2.98
  10  -4 -15   84.37    6.01
 -10  -4  15   85.98    5.18
  10  -4 -14   32.05    4.76
 -10  -4  14   38.68    3.85
 -10  -4  13  242.75   10.57
  10   4 -12   81.30    4.54
 -10  -4  12   77.74    5.37
  10   4 -11    7.69    2.78
 -10  -4  11   10.57    3.80
  10  -4 -10  162.95    8.79
  10   4 -10  164.86    7.61
  10  -4  -9    3.74    4.68
  10   4  -9    2.45    3.05
  10  -4  -8   63.40    5.42
  10   4  -8   64.36    4.41
 -10  -4   8   57.58    4.94
  10  -4  -7  200.97    9.47
  10   4  -7  197.97    8.90
 -10  -4   7  201.32    9.21
  10  -4  -6   34.19    4.69
  10   4  -6   34.69    3.68
 -10  -4   6   32.57    3.90
  10  -4  -5    1.79    3.92
  10   4  -5    5.87    3.27
 -10  -4   5   -0.08    3.14
 -10  -4   4    2.03    2.47
  10  -4  -4    4.92    3.73
 -10  -4   4    5.63    3.28
  10  -4  -3   47.72    4.65
 -10  -4   3   43.30    3.90
 -10  -4   3   43.54    3.52
 -10  -4   2    4.83    2.80
 -10   4   2    3.10    3.42
  10  -4  -2    2.60    3.38
 -10  -4   2    2.87    2.90
 -10  -4   1   15.19    3.07
 -10   4   1   10.24    3.29
  10  -4  -1   11.77    3.67
 -10  -4   1   10.29    2.93
  10  -4   0   76.92    5.13
 -10  -4   0   89.09    4.91
 -10  -4   0   85.62    4.94
 -10   4   0   86.99    5.29
  10  -4   1  123.54    6.29
 -10  -4  -1  110.13    5.85
 -10  -4  -1  125.38    6.22
 -10   4  -1  123.16    6.29
 -10  -4  -2   27.10    3.63
 -10   4  -2   24.05    3.37
  10  -4   2   20.91    3.16
 -10  -4  -2   19.98    2.70
 -10  -4  -3   34.39    3.86
  10  -4   3   37.05    3.60
 -10  -4  -3   40.26    3.45
 -10  -4  -3   39.04    3.15
 -10   4  -3   45.62    3.69
 -10  -4  -4    7.89    3.29
 -10   4  -4    4.87    2.75
  10  -4   4    9.32    2.93
 -10  -4  -4   12.15    3.03
 -10  -4  -4    9.49    2.21
  10  -4   5  129.53    6.10
 -10  -4  -5  130.49    6.33
 -10   4  -5  118.65    6.37
 -10  -4  -5  129.98    6.62
  10  -4   6  145.14    6.45
 -10  -4  -6  149.83    6.83
 -10   4  -6  128.17    6.75
 -10  -4  -6  151.75    7.19
 -10  -4  -7   64.66    4.35
 -10   4  -7   60.57    4.04
 -10  -4  -7   68.08    4.76
 -10  -4  -8  207.20    8.54
 -10  -4  -8  194.39    8.64
 -10  -4  -9  382.19   14.97
 -10  -4  -9  370.19   15.10
 -10  -4 -10  181.59    7.54
 -10  -4 -10  150.79    7.53
 -10  -4 -11   59.73    4.00
 -10  -4 -12   92.20    4.81
 -10  -4 -13   77.57    4.27
 -10  -4 -14   55.01    3.41
 -10  -4 -14   52.61    3.45
 -10  -4 -15  137.36    5.92
 -10  -4 -15  132.93    5.99
 -10  -4 -16  259.03   10.33
 -10  -4 -16  268.88   10.38
 -10  -4 -17   36.17    2.17
 -10  -4 -17   33.87    2.21
 -10  -4 -18   34.40    1.90
 -10  -4 -18   32.94    1.87
  10  -5 -23  129.18    5.36
  10  -5 -22   -0.25    1.47
  10  -5 -22    1.19    1.23
  10  -5 -21   10.95    2.23
  10  -5 -21   12.05    1.91
  10  -5 -20   -1.99    2.42
  10  -5 -20    1.74    2.23
  10  -5 -19   14.12    2.99
  10  -5 -19   12.04    2.69
 -10  -5  19   11.57    1.85
  10  -5 -18    5.66    3.07
 -10  -5  18    2.84    1.99
 -10  -5  17   47.02    3.38
  10  -5 -16   33.20    4.29
 -10  -5  16   42.27    3.46
 -10   5  16   35.38    2.51
 -10  -5  15  157.43    6.98
 -10   5  15  138.77    6.40
 -10   5  14   12.43    2.24
 -10  -5  14    9.07    3.26
 -10  -5  13  278.08   11.38
 -10   5  13  258.06   10.91
  10  -5 -12  158.92    8.38
 -10  -5  12  160.36    7.72
 -10   5  12  152.71    7.12
 -10   5  11   14.15    2.96
  10  -5 -11    8.14    4.49
 -10  -5  11   17.28    3.67
 -10   5  10   43.26    3.87
  10   5 -10   43.98    3.32
  10  -5 -10   41.45    5.09
 -10  -5  10   39.34    4.51
 -10   5   9  324.90   13.51
  10  -5  -9  335.00   14.10
  10   5  -9  327.64   13.20
 -10   5   8  345.92   14.26
  10  -5  -8  349.23   14.66
  10   5  -8  345.29   13.86
  10  -5  -7   69.17    5.57
  10   5  -7   72.45    4.61
 -10  -5   7   80.98    5.34
 -10   5   7   76.38    5.09
  10  -5  -6   85.71    6.05
  10   5  -6   91.13    5.19
 -10  -5   6   96.33    5.72
 -10   5   6   97.58    5.78
  10  -5  -5    0.17    3.67
  10   5  -5    3.72    2.94
 -10  -5   5    1.52    3.36
  10  -5  -4  264.73   11.59
 -10  -5   4  268.30   11.41
 -10  -5   4  269.57   10.91
 -10  -5   3   13.18    2.74
 -10   5   3   11.53    3.71
  10  -5  -3   11.66    3.58
 -10  -5   3   15.70    3.48
  10  -5  -2  239.05   10.31
 -10  -5   2  232.97   10.24
 -10  -5   2  243.62    9.94
 -10   5   2  233.97   10.50
  10  -5  -1   61.20    4.59
 -10  -5   1   65.26    4.43
 -10  -5   1   65.06    4.14
 -10   5   1   67.11    4.80
  10  -5   0  454.77   18.18
 -10  -5   0  443.11   18.08
 -10   5   0  467.12   18.36
 -10  -5   0  481.38   18.05
  10  -5   1  145.90    6.93
 -10  -5  -1  136.28    6.70
 -10   5  -1  138.79    7.04
 -10  -5  -1  147.52    6.77
  10  -5   2  269.26   11.08
 -10  -5  -2  264.51   11.05
 -10   5  -2  254.04   11.40
 -10  -5  -2  279.66   11.15
  10  -5   3  273.56   11.08
 -10  -5  -3  257.08   10.95
 -10   5  -3  265.49   11.36
 -10  -5  -3  282.79   11.24
 -10  -5  -4  228.61    9.24
 -10  -5  -4  206.05    9.08
 -10   5  -4  216.12    9.55
 -10  -5  -4  228.04    9.48
 -10  -5  -5    1.34    3.05
 -10  -5  -5    2.18    2.54
 -10  -5  -5    0.60    1.84
 -10   5  -5    1.84    2.64
 -10  -5  -6  336.20   13.13
 -10   5  -6  315.38   13.32
 -10  -5  -6  332.19   13.33
 -10  -5  -7    4.96    3.08
 -10  -5  -7    5.39    2.55
 -10   5  -7    5.68    2.49
 -10  -5  -8  343.08   13.27
 -10  -5  -8  360.15   13.48
 -10  -5  -9   27.15    3.34
 -10  -5  -9   24.25    2.78
 -10   5  -9   21.93    2.51
 -10  -5 -10  141.80    6.42
 -10  -5 -10  140.50    6.68
 -10  -5 -11   21.23    3.10
 -10  -5 -11   19.35    2.49
 -10  -5 -12   15.15    2.73
 -10  -5 -12   12.87    2.19
 -10  -5 -13    0.85    2.34
 -10  -5 -13    0.37    1.80
 -10  -5 -14   24.91    2.21
 -10  -5 -15   59.06    3.00
 -10  -5 -16   79.58    3.56
 -10  -5 -17   11.18    1.31
  10  -6 -21   11.32    1.62
  10  -6 -21   10.55    1.49
  10  -6 -20   14.27    1.97
  10  -6 -20   15.35    2.04
  10  -6 -19   10.00    2.30
  10  -6 -19    9.76    2.34
 -10  -6  19    7.93    1.22
  10  -6 -18    4.83    2.39
  10  -6 -18    3.74    2.51
 -10  -6  18    6.12    1.56
  10  -6 -17   76.13    4.54
 -10  -6  17   73.07    3.90
  10  -6 -16   16.75    2.96
 -10  -6  16   15.52    2.39
 -10  -6  15   56.41    3.63
 -10   6  15   44.36    2.78
 -10   6  14    4.36    1.87
  10  -6 -14    1.66    3.73
 -10  -6  14    2.74    2.81
 -10   6  13    3.09    2.00
  10  -6 -13    4.53    3.67
 -10  -6  13    3.87    2.97
  10  -6 -12   49.07    4.89
 -10  -6  12   47.91    4.09
 -10   6  12   48.28    3.41
  10  -6 -11   37.16    4.74
 -10  -6  11   37.64    4.12
 -10   6  11   38.15    3.23
  10  -6 -10  142.92    7.83
 -10  -6  10  152.26    7.36
 -10   6  10  144.61    6.91
  10  -6  -9  235.47   10.55
 -10   6   9  228.73    9.90
 -10   6   8   12.08    3.18
  10  -6  -8   13.02    3.92
  10   6  -8   14.01    2.45
  10  -6  -7  410.34   16.54
  10   6  -7  406.69   15.87
 -10   6   7  400.87   16.30
 -10   6   6   29.42    3.83
  10  -6  -6   26.55    3.89
  10   6  -6   29.02    3.09
 -10  -6   6   28.09    3.97
  10  -6  -5   59.35    4.81
  10   6  -5   63.48    4.03
 -10  -6   5   71.11    4.95
 -10   6   5   64.79    4.74
  10  -6  -4   15.28    3.49
  10   6  -4   25.77    3.22
 -10  -6   4   20.64    3.77
 -10  -6   3   22.21    2.53
  10  -6  -3   22.10    3.49
 -10  -6   3   19.61    3.48
  10  -6  -2  113.25    5.88
 -10  -6   2  113.80    5.96
 -10   6   2   95.62    6.14
 -10  -6   2  110.37    5.25
  10  -6  -1   57.19    4.24
 -10  -6   1   68.65    4.41
 -10   6   1   57.00    4.73
 -10  -6   1   67.98    3.86
 -10  -6   0    8.89    2.46
 -10   6   0   10.95    3.55
  10  -6   0    6.79    2.66
 -10  -6   0    9.35    2.94
 -10  -6  -1   15.81    2.64
 -10   6  -1   13.72    3.40
  10  -6   1    8.34    2.50
 -10  -6  -1   14.33    2.92
 -10  -6  -2   19.87    2.96
 -10  -6  -2   25.04    2.96
 -10   6  -2   22.01    3.47
 -10  -6  -3   11.14    2.75
 -10  -6  -3   12.73    2.56
 -10   6  -3    7.66    2.92
 -10  -6  -4    3.58    2.69
 -10  -6  -4    4.75    2.16
 -10   6  -4    1.39    2.74
 -10  -6  -5   17.92    2.89
 -10  -6  -5   15.00    2.22
 -10   6  -5   13.03    2.93
 -10  -6  -6  155.61    6.58
 -10  -6  -6  162.16    6.95
 -10  -6  -7   11.97    2.77
 -10  -6  -7   10.58    2.15
 -10   6  -7    9.02    2.45
 -10  -6  -8  117.63    5.13
 -10   6  -8   99.50    5.30
 -10  -6  -8  114.28    5.44
 -10  -6  -9   17.39    2.73
 -10  -6  -9   18.03    2.16
 -10   6  -9   14.91    2.25
 -10  -6 -10    9.37    2.50
 -10  -6 -10   10.35    1.88
 -10   6 -10    4.41    1.64
 -10  -6 -11   23.33    2.70
 -10  -6 -11   26.25    2.16
 -10  -6 -12   24.61    2.52
 -10  -6 -12   20.92    1.93
 -10  -6 -13   12.63    2.16
 -10  -6 -13   10.39    1.50
 -10  -6 -14   31.25    1.91
 -10  -6 -14   31.97    2.36
 -10  -6 -15    2.39    1.39
 -10  -6 -15    2.79    0.94
 -10  -6 -16   39.33    2.12
  10  -7 -20   61.50    3.03
  10  -7 -19   65.71    3.29
 -10  -7  18  175.69    7.08
  10  -7 -18  186.61    7.49
 -10  -7  17   90.40    4.08
  10  -7 -17   86.11    4.45
  10  -7 -16  410.42   15.84
 -10  -7  16  414.16   15.55
  10  -7 -16  385.05   15.72
  10  -7 -15  123.17    6.06
 -10  -7  15  130.36    5.78
  10  -7 -14   83.11    4.64
 -10  -7  14   86.05    4.53
 -10   7  14   78.73    3.84
 -10  -7  13  114.29    5.51
 -10   7  13  103.46    4.89
  10  -7 -12   81.02    5.35
 -10  -7  12   82.43    4.76
 -10   7  12   80.10    4.18
 -10   7  11    8.49    2.36
  10  -7 -11    6.50    3.45
 -10  -7  11    7.33    3.11
  10  -7 -10  123.69    6.65
 -10  -7  10  123.24    6.30
 -10   7  10  122.15    5.84
 -10   7   9    3.67    2.46
  10  -7  -9   -0.16    3.35
 -10  -7   9    3.77    3.46
 -10   7   8   30.48    3.23
  10  -7  -8   28.51    3.69
  10  -7  -7   43.17    4.22
 -10   7   7   47.93    3.85
  10  -7  -6  384.38   15.68
  10   7  -6  386.58   15.07
 -10  -7   6  392.24   15.66
 -10   7   6  392.50   15.62
 -10   7   5    1.00    2.98
  10  -7  -5    3.00    2.97
  10   7  -5    7.28    2.36
 -10  -7   5    1.53    3.38
 -10   7   4   21.52    3.62
  10  -7  -4   18.98    3.23
  10   7  -4   25.88    2.83
 -10  -7   4   23.12    3.69
  10  -7  -3    1.52    2.76
 -10  -7   3    9.17    3.23
  10  -7  -2  121.55    6.13
 -10  -7   2  131.22    6.46
 -10  -7   1    6.48    1.92
  10  -7  -1    5.80    2.49
 -10  -7   1    8.69    3.25
 -10   7   1    2.64    3.04
 -10  -7   0    4.91    1.96
 -10  -7   0    6.82    2.79
 -10   7   0    5.39    3.22
 -10  -7  -1   25.97    2.48
 -10  -7  -1   23.34    3.01
 -10   7  -1   24.11    3.46
 -10  -7  -2    0.70    2.02
 -10  -7  -2    0.69    2.50
 -10   7  -2    2.43    2.92
 -10  -7  -3  144.98    6.66
 -10   7  -3  141.05    6.92
 -10  -7  -3  151.39    6.48
 -10  -7  -4    6.19    2.25
 -10  -7  -4    2.40    2.12
 -10   7  -4    0.46    2.69
 -10  -7  -5   94.73    4.72
 -10   7  -5   91.72    5.14
 -10  -7  -5  107.41    4.90
 -10  -7  -6    3.96    2.28
 -10  -7  -6    1.37    1.65
 -10   7  -6   -0.35    2.47
 -10   7  -7  171.51    7.91
 -10  -7  -7  197.83    7.83
 -10  -7  -8   21.69    2.35
 -10   7  -8   18.70    2.31
 -10   7  -9  108.44    5.21
 -10  -7  -9  124.40    5.28
 -10   7 -10   95.92    4.63
 -10  -7 -10  119.50    4.95
 -10  -7 -11   19.01    2.09
 -10  -7 -12  129.50    5.53
 -10  -7 -13    2.56    1.39
 -10  -7 -14    4.80    1.23
 -10  -7 -15   55.80    2.55
  10  -8 -19    1.02    0.97
  10  -8 -18   13.49    1.71
  10  -8 -17  103.41    4.71
  10  -8 -16   24.32    2.49
 -10  -8  16   26.21    1.85
  10  -8 -16   21.46    1.80
  10  -8 -15  118.82    5.48
 -10  -8  15  125.55    5.17
  10  -8 -15  106.39    5.02
  10  -8 -14  105.79    5.07
 -10  -8  14  106.90    4.75
 -10   8  13   76.20    3.71
  10  -8 -13   84.05    4.20
  10  -8 -12  101.81    4.85
 -10   8  12   93.84    4.52
 -10  -8  11  132.99    6.04
 -10   8  11  120.15    5.54
 -10  -8  10   21.68    3.10
 -10   8  10   17.56    2.26
 -10  -8   9   27.23    3.20
 -10   8   9   25.15    2.58
  10  -8  -8    2.36    2.92
 -10  -8   8    5.06    3.18
 -10   8   8    1.12    2.18
  10  -8  -7   95.92    5.46
 -10   8   7  111.06    5.36
  10  -8  -6   47.32    3.80
 -10   8   6   50.57    3.67
  10  -8  -5   13.05    2.71
 -10  -8   5   18.05    3.41
 -10   8   5   13.79    2.87
  10  -8  -4   14.00    2.61
  10   8  -4   18.66    2.15
 -10  -8   4   18.83    3.30
 -10   8   4   11.06    2.95
  10   8  -3   41.91    2.87
 -10  -8   3   45.46    3.83
 -10   8   3   40.02    3.68
 -10  -8   2   70.30    4.46
 -10  -8   1    2.48    2.67
 -10  -8   0    2.28    2.63
 -10   8   0    1.54    2.97
 -10  -8  -1   93.50    4.86
 -10   8  -1   83.48    5.00
 -10  -8  -2   42.44    3.35
 -10   8  -2   47.64    3.69
 -10  -8  -3   48.34    3.27
 -10   8  -3   49.46    3.67
 -10  -8  -3   44.15    2.71
 -10  -8  -4    1.77    1.59
 -10  -8  -4    2.53    2.01
 -10   8  -4    1.50    2.41
 -10   8  -5  132.17    6.21
 -10  -8  -5  131.03    5.86
 -10  -8  -5  138.45    5.74
 -10  -8  -6    7.35    1.67
 -10  -8  -6    8.17    1.68
 -10   8  -6    6.50    2.10
 -10   8  -7   65.55    3.71
 -10  -8  -7   73.71    3.49
 -10  -8  -8    1.12    1.50
 -10   8  -8    2.04    1.63
 -10   8  -9   24.84    2.01
 -10  -8  -9   31.11    2.02
 -10  -8 -10    4.38    1.34
 -10   8 -10    3.38    1.09
 -10  -8 -11   76.67    3.44
 -10  -8 -12   37.48    1.99
  10  -9 -16   14.30    1.48
  10  -9 -15    5.77    1.48
 -10  -9  15    6.96    1.10
  10  -9 -14   47.68    2.90
 -10  -9  14   55.38    2.72
  10  -9 -13    0.14    1.78
 -10  -9  13    0.36    1.64
  10  -9 -12   75.05    3.95
 -10  -9  12   78.84    3.95
  10  -9 -11   -1.37    2.08
 -10  -9  11   -0.27    2.00
 -10   9  11    2.66    1.14
  10  -9 -10   13.51    2.16
 -10  -9  10   16.11    2.36
 -10   9  10    9.40    1.65
  10  -9  -9    5.63    2.06
 -10  -9   9    2.71    2.36
 -10   9   9    2.50    1.58
  10  -9  -8   35.17    2.78
 -10  -9   8   43.76    3.29
 -10   9   8   40.20    2.75
 -10  -9   7    3.57    2.67
 -10   9   7    6.12    2.02
 -10   9   6   63.63    3.71
 -10   9   5   29.27    2.85
 -10  -9   4  400.34   15.62
 -10   9   4  394.29   15.56
 -10  -9   3  357.85   14.10
 -10   9   3  351.56   14.05
 -10  -9   2   11.62    2.72
 -10   9   2    6.90    2.61
  10   9  -1  311.81   12.37
 -10  -9   1  339.95   12.91
 -10  -9   0   20.57    2.71
 -10   9  -1  285.28   12.02
 -10  -9  -1  311.78   11.96
 -10   9  -2   90.29    4.78
 -10  -9  -2   96.59    4.66
 -10   9  -3  106.57    5.21
 -10  -9  -3  107.88    4.99
 -10   9  -4   56.99    3.47
 -10  -9  -4   54.84    3.14
 -10   9  -5   31.32    2.52
 -10  -9  -5   32.52    2.26
 -10   9  -6    3.20    1.71
 -10   9  -7   52.24    2.86
 -10   9  -8   10.12    1.39
 -10   9  -9   53.54    2.60
 -10 -10  12   17.43    1.57
 -10 -10  11   33.48    2.19
 -10 -10  10    1.59    1.56
 -10  10   9   44.35    2.42
 -10 -10   9   57.99    3.02
 -10 -10   8    5.63    1.91
 -10  10   8    3.34    1.28
 -10  10   7  169.80    7.16
 -10 -10   7  188.19    7.48
 -10  10   6    6.39    1.56
 -10  10   5   27.66    2.27
 -10  10   4   41.62    2.77
 -10 -10   4   46.23    3.15
 -10 -10   3    7.29    2.21
 -10  10   3    8.16    1.93
 -10 -10   2   18.42    2.35
 -10  10   2   18.07    2.21
 -10  10   1   59.19    3.46
 -10 -10   1   62.89    3.53
 -10 -10   0   19.08    2.23
 -10 -10  -1   12.30    1.92
 -10  10  -2   28.81    2.47
 -10 -10  -2   33.30    2.32
 -10  10  -3   33.29    2.50
 -10 -10  -3   34.92    2.29
 -10 -10  -4   10.11    1.37
 -10  10  -4   10.17    1.72
 -10  10  -5   24.94    1.90
 -10 -10  -5   19.61    1.50
 -10  10  -6   56.94    2.82
 -10  10  -7    0.07    0.99
 -10  10  -8   42.63    2.07
 -10 -11   9   31.29    1.84
 -10 -11   8    2.11    1.21
 -10 -11   7    2.35    1.31
 -10 -11   6   15.25    1.66
 -10  11   6   11.40    1.13
 -10  11   5    4.69    1.11
 -10  11   4    1.12    1.04
 -10  11   3   23.91    1.76
 -10 -11   3   26.40    2.01
 -10  11   2   74.58    3.56
 -10 -11   2   84.14    3.73
 -10 -11   1    0.69    1.38
 -10  11   1    1.43    1.30
 -10  11   0   26.05    1.91
 -10 -11   0   28.03    1.92
 -10 -11  -1    8.66    1.34
 -10  11  -1    8.86    1.38
 -10 -11  -2   16.74    1.37
 -10 -11  -3    0.85    0.90
 -10  11  -3    0.51    1.03
 -10  11  -4   41.47    2.16
 -10  11  -5   18.03    1.24
  11   0 -22   26.33    1.86
  11   0 -21    2.39    1.73
  11   0 -20  103.95    5.12
  11   0 -19    3.12    2.40
  11   0 -18  583.44   22.15
  11   0 -17   -1.08    2.52
 -11   0  17    1.48    2.85
  11   0 -16  227.76    9.60
 -11   0  16  212.91    9.64
  11   0 -15   -1.13    3.12
 -11   0  15    0.99    3.41
  11   0 -14  881.87   33.42
  11   0 -13   -0.25    3.48
  11   0 -12  895.77   33.92
 -11   0  12  888.53   33.94
  11   0 -11    4.62    3.93
 -11   0  11    2.15    3.75
  11   0 -10  678.58   25.98
 -11   0  10  659.11   25.87
  11   0  -9   -2.94    4.46
 -11   0   9   -0.80    3.56
  11   0  -8  310.93   13.11
 -11   0   8  299.48   12.84
  11   0  -7   -2.91    4.51
 -11   0   7   -0.61    3.17
  11   0  -6    8.21    4.57
 -11   0   6   13.08    3.40
 -11   0   5    1.44    2.89
 -11   0   4  229.61    9.90
 -11   0   3    1.13    2.72
  11   0  -2    8.40    4.38
 -11   0   2    4.01    2.57
  11   0  -1    1.08    4.26
 -11   0   1    0.81    2.29
  11   0   0  167.40    8.40
 -11   0   0  174.54    7.57
 -11   0  -1   -1.74    3.64
  11   0   1    0.72    3.86
 -11   0  -2    6.11    3.54
  11   0   2    9.56    3.70
 -11   0  -3    3.45    3.59
 -11   0  -3   -0.89    2.23
  11   0   3    3.07    3.75
  11   0   4  249.57   10.55
 -11   0  -4  263.53   10.44
 -11   0  -4  225.59   10.10
 -11   0  -5    0.21    3.26
  11   0   5    2.53    3.40
  11   0   6  182.79    8.14
 -11   0  -6  181.67    8.18
 -11   0  -7   -0.33    2.97
  11   0   7    3.77    2.91
 -11   0  -8   39.70    3.42
  11   0   8   32.10    3.21
 -11   0  -9    0.79    2.55
  11   0   9    0.52    2.48
 -11   0  -9    1.16    2.97
  11   0  10   80.92    4.34
 -11   0 -10   94.80    5.04
 -11   0 -10   89.56    4.73
 -11   0 -11   -0.32    2.18
  11   0  11   -0.05    1.86
 -11   0 -11    4.40    2.77
  11   0  12   50.92    2.89
 -11   0 -12   57.33    3.33
 -11   0 -13   -0.30    1.64
 -11   0 -13    2.29    2.30
 -11   0 -14  124.35    5.24
 -11   0 -14  107.47    4.85
 -11   0 -15    0.76    1.07
 -11   0 -15    1.48    1.70
  11  -1 -22   75.48    3.65
  11   1 -21   51.51    2.90
  11  -1 -21   63.77    3.35
  11   1 -20   82.48    4.11
  11  -1 -20   82.94    4.54
  11   1 -19   79.20    4.38
  11  -1 -19   87.66    4.80
  11  -1 -18    5.31    2.51
 -11  -1  18    4.20    2.52
  11  -1 -17   56.32    4.12
  11   1 -17   55.67    3.56
 -11  -1  17   62.83    4.14
  11  -1 -16   89.57    5.28
  11   1 -16   85.92    4.79
 -11  -1  16   87.26    5.11
  11  -1 -15   90.17    5.68
  11   1 -15   94.00    5.21
 -11  -1  15   97.48    5.59
  11  -1 -14    9.54    3.77
  11   1 -14   12.00    3.04
 -11  -1  14   12.24    3.45
  11  -1 -13    9.23    4.10
  11   1 -13    6.23    3.21
 -11   1  13    3.23    3.56
  11  -1 -12   92.24    5.79
  11   1 -12   86.69    5.39
 -11   1  12   76.09    5.33
  11  -1 -11   38.08    4.88
  11   1 -11   44.39    4.36
 -11   1  11   45.82    4.45
 -11  -1  11   48.40    4.51
  11  -1 -10    8.28    4.19
  11   1 -10    5.92    3.72
 -11   1  10    1.07    3.42
 -11  -1  10    5.32    3.76
  11  -1  -9   87.85    6.15
  11   1  -9   86.52    5.60
 -11   1   9   78.50    5.36
 -11  -1   9   82.18    5.50
  11  -1  -8  126.98    7.30
  11   1  -8  127.31    7.22
 -11   1   8  133.88    6.76
 -11  -1   8  123.06    6.77
 -11   1   7   93.66    5.49
 -11  -1   7   95.97    5.51
  11   1  -6  135.08    7.82
 -11   1   6  151.58    7.29
 -11  -1   6  153.43    7.35
  11   1  -5   19.71    4.25
 -11   1   5   21.33    3.40
 -11  -1   5   22.74    3.50
  11  -1  -4   40.92    5.07
  11   1  -4   39.24    4.95
 -11  -1   4   43.89    3.92
 -11   1   4   41.54    3.60
  11  -1  -3   29.11    4.71
 -11   1   3   26.86    3.11
 -11  -1   3   24.56    3.23
 -11  -1   2   59.98    4.64
  11  -1  -2   53.14    5.15
 -11   1   2   50.13    3.70
 -11  -1   2   57.22    3.99
  11  -1  -1   92.72    6.21
 -11   1   1   92.67    4.99
 -11  -1   1  101.27    5.16
 -11  -1   1  110.08    5.98
  11  -1   0   66.36    5.26
  11   1   0   74.71    5.46
 -11  -1   0   73.02    4.10
 -11   1   0   74.77    5.17
 -11  -1   0   64.29    5.09
 -11   1  -1   16.08    3.73
  11  -1   1   15.77    3.87
  11   1   1   13.80    4.42
 -11  -1  -1   13.73    2.16
  11  -1   2  112.06    6.16
  11   1   2  107.67    6.39
 -11   1  -2  105.70    6.00
 -11   1  -2  108.33    5.66
 -11   1  -3   15.05    3.40
 -11   1  -3   14.05    2.75
  11  -1   3   16.68    3.54
  11  -1   4   38.77    3.98
 -11   1  -4   44.23    3.89
 -11   1  -4   36.44    3.19
  11  -1   5   94.97    5.23
 -11  -1  -5   90.97    5.40
 -11   1  -5   83.31    4.71
 -11   1  -5   96.88    5.21
 -11  -1  -5   87.14    5.40
  11  -1   6   81.89    4.99
 -11  -1  -6   97.17    5.61
 -11   1  -6   90.75    5.12
 -11  -1  -6  100.93    5.41
  11  -1   7  210.47    9.08
 -11   1  -7  210.41    9.29
 -11  -1  -7  222.48    9.43
 -11   1  -7  208.54    9.05
 -11  -1  -7  213.33    9.26
 -11   1  -8   17.53    2.82
 -11  -1  -8   18.48    3.13
  11  -1   8   18.73    2.78
 -11   1  -8   20.90    3.40
  11  -1   9  257.96   10.82
 -11   1  -9  287.83   11.24
 -11   1  -9  266.03   10.91
 -11  -1  -9  277.82   11.14
 -11   1 -10   14.11    2.48
 -11  -1 -10   18.48    2.89
  11  -1  10   11.63    2.05
 -11   1 -10   16.24    2.83
  11   1  11  225.14    9.59
 -11   1 -11  249.61    9.92
 -11   1 -11  235.29    9.64
 -11  -1 -11  252.62    9.85
 -11   1 -12    0.98    1.67
 -11  -1 -12    0.76    2.18
  11   1  12    0.34    1.69
 -11   1 -12    3.86    2.42
  11   1  13   51.32    2.88
 -11   1 -13   64.07    3.46
 -11   1 -13   55.85    2.97
 -11  -1 -13   60.14    3.25
 -11   1 -14    2.62    1.14
 -11  -1 -14    2.41    1.60
 -11   1 -14    3.66    1.83
 -11  -1 -15   33.79    2.41
 -11  -1 -15   30.81    2.02
 -11  -1 -16    2.53    0.91
 -11  -1 -16    2.65    1.33
  11  -2 -22   50.56    2.84
  11  -2 -21   -0.57    1.82
  11  -2 -20    3.57    2.35
  11  -2 -20    6.71    1.63
  11   2 -19    3.10    1.58
  11  -2 -19    6.04    2.73
  11   2 -18   11.90    2.24
  11  -2 -18   10.86    2.65
 -11  -2  18    9.67    2.44
  11  -2 -17   56.43    4.23
 -11  -2  17   65.38    4.06
  11  -2 -16    9.84    3.42
  11   2 -16    7.11    2.11
 -11  -2  16   10.41    2.99
  11  -2 -15  107.72    6.00
  11   2 -15  103.11    5.24
 -11  -2  15  102.77    5.70
  11  -2 -14  105.37    6.49
  11   2 -14  113.64    5.72
 -11  -2  14  120.99    6.30
  11   2 -13   51.80    3.91
  11  -2 -13   51.21    5.04
 -11   2  13   49.92    4.70
  11  -2 -12    3.67    4.02
  11   2 -12    3.94    2.93
 -11   2  12   -0.09    3.53
  11   2 -11   51.83    4.24
  11  -2 -11   41.33    5.24
 -11   2  11   45.24    4.32
  11  -2 -10  302.81   12.96
  11   2 -10  306.26   12.60
 -11   2  10  290.74   12.59
 -11  -2  10  296.74   12.62
  11   2  -9   43.35    4.34
 -11  -2   9   50.70    4.42
 -11   2   9   41.02    4.25
  11   2  -8  215.32   10.24
 -11   2   8  231.12   10.15
 -11  -2   8  242.07   10.29
  11   2  -7  131.57    7.01
 -11   2   7  131.31    6.69
 -11  -2   7  129.92    6.85
 -11   2   6   29.87    3.61
  11  -2  -6   32.52    5.13
  11   2  -6   31.48    4.58
 -11  -2   6   32.54    3.87
  11  -2  -5   12.10    4.66
  11   2  -5   17.95    4.17
 -11   2   5   16.03    3.27
 -11  -2   5   16.70    3.40
  11  -2  -4    3.73    4.20
  11   2  -4    8.33    4.24
 -11   2   4    6.22    2.79
 -11  -2   4    6.85    3.13
  11  -2  -3   26.01    4.46
  11   2  -3   30.82    4.78
 -11   2   3   36.89    3.27
 -11  -2   3   31.76    3.56
 -11  -2   3   36.96    3.87
  11  -2  -2   43.09    4.74
  11   2  -2   52.73    5.25
 -11   2   2   56.40    3.67
 -11  -2   2   45.60    3.87
 -11  -2   2   51.70    4.39
 -11  -2   1    4.64    3.34
  11  -2  -1    2.87    3.93
 -11   2   1    5.59    2.15
 -11  -2   1    4.15    2.67
 -11  -2   0   29.70    3.81
  11  -2   0   30.78    4.06
 -11  -2   0   25.10    2.80
  11  -2   1   93.66    5.65
 -11  -2  -1   91.47    4.65
 -11  -2  -1  100.08    5.60
 -11   2  -1   79.82    4.99
  11  -2   2  516.36   20.37
 -11  -2  -2  548.31   20.41
 -11   2  -2  501.23   20.32
 -11  -2  -3   12.54    3.83
 -11   2  -3    7.31    2.54
  11  -2   3   10.93    3.46
 -11   2  -3    8.74    2.99
  11  -2   4  306.79   12.14
 -11   2  -4  272.86   11.98
 -11   2  -4  304.94   12.02
 -11   2  -5   13.79    2.94
 -11   2  -5   16.95    2.65
  11  -2   5   14.84    2.93
 -11  -2  -5   18.34    3.43
  11  -2   6   68.57    4.08
 -11  -2  -6   69.82    4.61
 -11   2  -6   56.07    3.73
 -11   2  -6   62.05    4.11
 -11   2  -7   26.43    2.90
  11  -2   7   21.36    2.81
 -11  -2  -7   28.96    3.49
  11  -2   8   44.52    3.15
 -11  -2  -8   48.41    3.80
 -11   2  -8   42.96    3.29
 -11  -2  -8   44.42    3.96
 -11  -2  -9  118.28    5.83
 -11   2  -9  113.01    5.43
 -11  -2  -9  120.73    5.83
 -11   2 -10    9.70    2.09
 -11  -2 -10   16.12    2.82
 -11  -2 -10   11.35    2.94
 -11  -2 -11  105.21    5.10
 -11   2 -11   97.07    4.64
 -11  -2 -11  105.94    5.13
 -11  -2 -12   48.02    3.39
 -11  -2 -12   48.72    3.24
 -11  -2 -13    2.00    1.95
  11   2  13    0.50    1.54
 -11  -2 -13    1.82    2.08
  11   2  14   46.12    2.47
 -11  -2 -14   55.33    3.14
 -11  -2 -14   53.36    2.92
 -11  -2 -15   42.93    2.52
 -11  -2 -15   35.13    2.24
 -11  -2 -16    5.15    1.04
 -11  -2 -16    4.68    1.35
  11  -3 -22   16.19    1.67
  11  -3 -21    0.43    1.69
  11  -3 -21    1.09    0.97
  11  -3 -20  116.15    5.06
  11  -3 -20  112.95    5.54
 -11  -3  19   16.24    2.01
 -11  -3  18  177.33    6.88
 -11   3  18  144.15    6.29
  11  -3 -17   26.16    3.40
 -11  -3  17   28.16    2.90
  11  -3 -16   66.34    4.77
 -11  -3  16   68.40    4.31
  11  -3 -15   -1.42    3.70
 -11  -3  15    3.41    2.95
  11  -3 -14   20.55    4.06
  11   3 -14   23.95    2.57
 -11  -3  14   22.05    3.49
  11  -3 -13  238.48   10.60
  11   3 -13  231.02    9.87
 -11  -3  13  249.34   10.38
  11  -3 -12   30.31    4.62
  11   3 -12   31.41    3.27
  11   3 -11   33.15    3.54
  11   3 -10   35.43    3.87
 -11  -3  10   46.18    4.55
  11   3  -9   27.38    3.87
 -11  -3   9   26.19    3.93
  11  -3  -8    8.45    4.34
  11   3  -8    7.94    3.56
 -11  -3   8    8.95    3.63
  11  -3  -7  103.23    6.43
  11   3  -7   94.84    5.78
 -11  -3   7   93.34    5.65
  11  -3  -6   59.15    5.13
  11   3  -6   56.51    4.71
 -11  -3   6   47.10    4.48
  11  -3  -5  123.78    6.88
  11   3  -5  112.10    6.42
 -11  -3   5  113.25    6.22
  11  -3  -4    6.15    4.22
  11   3  -4    4.82    3.89
 -11  -3   4    4.62    3.20
  11  -3  -3  238.85   10.59
  11   3  -3  235.88   10.46
 -11  -3   3  230.53   10.08
 -11  -3   3  240.52   10.08
  11  -3  -2  131.17    7.44
  11   3  -2  154.02    7.74
 -11  -3   2  147.89    7.04
 -11  -3   2  160.41    7.17
  11  -3  -1  302.26   12.88
  11   3  -1  293.79   12.92
 -11  -3   1  310.89   12.49
 -11  -3   1  316.99   12.61
 -11   3   1  305.85   12.77
  11  -3   0   80.68    5.38
 -11  -3   0   77.72    4.46
 -11  -3   0   86.72    5.01
 -11   3   0   73.70    4.95
  11  -3   1   52.94    4.23
 -11  -3  -1   51.10    3.43
 -11  -3  -1   51.98    4.25
 -11   3  -1   45.60    3.97
 -11  -3  -2   27.97    3.61
 -11   3  -2   25.04    3.27
  11  -3   2   28.72    3.51
 -11  -3  -2   25.75    2.52
  11  -3   3   49.67    3.95
 -11   3  -3   40.82    3.67
 -11  -3  -3   51.96    4.00
 -11  -3  -4   19.18    3.71
 -11   3  -4   17.98    2.73
  11  -3   4   13.24    2.95
  11  -3   5  214.83    9.08
 -11  -3  -5  221.49    9.30
 -11   3  -5  207.39    9.16
 -11  -3  -5  216.11    9.43
 -11  -3  -6   14.42    3.47
  11  -3   6    8.29    2.33
 -11  -3  -6   10.46    3.05
 -11   3  -6    9.76    2.30
  11  -3   7   68.86    3.80
 -11  -3  -7   69.53    4.46
 -11  -3  -8   19.37    3.16
 -11  -3  -9   73.47    4.41
 -11  -3 -10   82.60    4.42
 -11  -3 -11    5.04    2.51
 -11  -3 -11    9.34    2.40
 -11  -3 -12   33.22    2.73
 -11  -3 -12   34.99    2.83
 -11  -3 -13    5.62    1.99
 -11  -3 -13    4.81    1.88
 -11  -3 -14   32.30    2.25
 -11  -3 -14   28.29    2.18
 -11  -3 -15    1.92    1.28
 -11  -3 -15    3.29    1.36
 -11  -3 -16   30.37    1.75
  11  -4 -21   37.34    2.45
  11  -4 -20   14.94    2.11
  11  -4 -20   15.86    1.78
  11  -4 -19   40.04    2.75
 -11  -4  19   35.81    2.34
  11  -4 -19   41.13    3.16
  11  -4 -18   26.24    2.97
 -11  -4  18   19.21    2.10
 -11  -4  17   48.78    3.24
 -11   4  17   45.42    2.55
  11  -4 -16   41.13    3.90
 -11  -4  16   47.69    3.36
 -11   4  16   36.98    2.59
  11  -4 -15  245.73   10.13
 -11  -4  15  236.51    9.71
 -11   4  15  212.42    9.20
  11  -4 -14  202.25    9.49
 -11  -4  14  230.51    9.32
 -11   4  14  202.33    8.76
 -11  -4  13   96.39    5.51
  11   4 -12  119.47    5.67
 -11  -4  12  128.42    6.54
  11   4 -11  181.14    7.87
  11  -4 -10  423.83   17.02
  11   4 -10  413.96   16.40
  11  -4  -9  176.53    8.59
  11   4  -9  176.32    7.95
 -11  -4   9  184.24    8.41
  11  -4  -8  227.42   10.18
  11   4  -8  221.50    9.75
 -11  -4   8  231.44   10.04
  11  -4  -7   61.69    5.24
  11   4  -7   61.08    4.37
 -11  -4   7   60.13    4.64
  11  -4  -6    8.42    3.97
  11   4  -6    7.77    3.42
 -11  -4   6    9.89    3.41
  11  -4  -5  228.39   10.61
  11   4  -5  235.55   10.17
 -11  -4   5  242.97   10.28
  11   4  -4   47.11    4.24
  11  -4  -4   46.51    4.71
 -11  -4   4   48.79    4.24
 -11   4   4   53.51    4.51
 -11   4   3    6.50    3.35
  11  -4  -3    3.46    3.57
  11   4  -3    2.75    3.62
 -11  -4   3    4.00    3.01
 -11  -4   2    7.46    2.87
 -11   4   2    5.91    3.31
  11  -4  -2    4.45    3.42
  11   4  -2    7.80    3.80
 -11  -4   2    7.26    2.81
  11  -4  -1   76.74    4.96
 -11  -4   1   65.60    4.44
 -11  -4   1   75.07    4.60
 -11   4   1   75.22    4.77
  11  -4   0  264.55   11.21
 -11  -4   0  255.18   10.87
 -11  -4   0  290.36   11.10
 -11   4   0  248.63   11.13
 -11  -4  -1   27.10    3.36
 -11   4  -1   28.48    3.39
  11  -4   1   37.08    3.75
 -11  -4  -1   31.76    2.96
 -11  -4  -2    2.68    2.92
 -11   4  -2   -1.79    2.71
  11  -4   2    0.35    2.71
 -11  -4  -2    0.38    2.06
  11  -4   3  132.86    6.14
 -11  -4  -3  119.32    5.66
 -11   4  -3  116.62    6.14
 -11  -4  -3  143.00    6.33
  11  -4   4   44.02    3.37
 -11   4  -4   42.15    3.50
 -11  -4  -4   50.62    3.88
 -11  -4  -5    3.84    2.97
  11  -4   5    8.40    2.21
 -11   4  -5    5.38    2.46
 -11   4  -6  108.28    5.59
 -11  -4  -6  127.20    5.94
 -11  -4  -7   56.88    3.59
 -11   4  -7   47.76    3.25
 -11  -4  -7   58.69    3.86
 -11  -4  -8   24.05    3.05
 -11  -4  -8   25.86    2.72
 -11  -4  -9    8.41    2.58
 -11  -4  -9    5.76    2.26
 -11  -4 -10   15.43    2.62
 -11  -4 -10   15.35    2.31
 -11  -4 -11    9.46    2.05
 -11  -4 -12   44.48    2.79
 -11  -4 -13    5.67    1.57
 -11  -4 -14    0.99    1.50
 -11  -4 -14    5.38    1.33
 -11  -4 -15   58.06    2.80
  11  -5 -20    2.95    1.38
  11  -5 -20    1.95    1.18
  11  -5 -19    6.59    1.80
  11  -5 -19    6.72    1.68
 -11  -5  19    5.89    1.10
  11  -5 -18   30.97    2.61
 -11  -5  18   28.41    2.12
  11  -5 -18   34.04    2.79
  11  -5 -17    8.31    2.48
 -11  -5  17    2.41    1.70
 -11  -5  16   68.93    3.58
 -11   5  16   52.09    2.84
 -11  -5  15   45.52    3.29
 -11   5  15   38.11    2.55
 -11   5  14    9.48    1.94
 -11  -5  14   10.48    2.67
 -11   5  13    3.27    2.02
 -11  -5  13    2.57    2.87
 -11   5  12   11.34    2.39
  11  -5 -12   10.56    3.78
 -11  -5  12   13.03    3.09
  11  -5 -11   43.72    4.44
 -11   5  11   48.32    3.53
  11  -5 -10  353.35   14.15
  11   5 -10  334.84   13.35
 -11   5  10  337.96   13.69
 -11   5   9    4.01    2.89
  11  -5  -9    2.15    3.52
  11   5  -9    2.72    2.42
  11  -5  -8  352.76   14.68
  11   5  -8  353.82   14.09
 -11  -5   8  365.31   14.52
 -11   5   8  351.54   14.41
 -11   5   7   27.16    3.55
  11  -5  -7   21.60    3.86
  11   5  -7   27.82    3.13
 -11  -5   7   27.68    3.84
  11  -5  -6  103.98    5.92
  11   5  -6  108.77    5.49
 -11  -5   6   97.39    5.70
 -11   5   6   86.83    5.69
  11  -5  -5   29.36    3.89
  11   5  -5   28.90    3.46
 -11  -5   5   23.60    3.57
  11  -5  -4   62.74    4.70
  11   5  -4   69.46    4.54
 -11  -5   4   66.79    4.48
  11  -5  -3   58.77    4.48
  11   5  -3   63.62    4.49
 -11  -5   3   64.12    4.48
 -11   5   3   65.99    4.71
  11  -5  -2  225.67   10.02
  11   5  -2  231.92   10.04
 -11  -5   2  237.50    9.93
 -11  -5   2  241.02    9.69
 -11   5   2  226.17   10.11
  11  -5  -1  104.37    5.63
 -11  -5   1  103.04    5.40
 -11   5   1   99.84    5.71
 -11  -5   1  105.42    5.26
  11  -5   0  251.66   10.68
 -11  -5   0  246.40   10.53
 -11   5   0  246.54   10.84
 -11  -5   0  276.72   10.57
 -11  -5  -1    3.78    2.59
 -11   5  -1    2.89    2.68
  11  -5   1    6.90    2.65
 -11  -5  -1    4.89    2.33
  11  -5   2  583.12   22.41
 -11  -5  -2  575.09   22.35
 -11   5  -2  570.72   22.64
 -11  -5  -2  623.32   22.48
 -11  -5  -3    9.82    2.58
  11  -5   3    6.56    2.16
 -11  -5  -3    8.07    1.97
 -11   5  -3    7.21    2.55
 -11   5  -4  248.50   10.98
 -11  -5  -4  288.37   11.00
 -11  -5  -5    1.87    2.67
 -11   5  -5   -1.18    2.35
 -11   5  -6  282.42   12.22
 -11  -5  -6  335.44   12.35
 -11  -5  -7    1.53    2.45
 -11   5  -7    0.53    1.83
 -11  -5  -8  147.62    6.55
 -11  -5  -9    1.75    2.07
 -11  -5 -10   23.10    2.49
 -11  -5 -11   61.97    3.39
 -11  -5 -12    8.00    1.72
 -11  -5 -13   27.98    1.99
  11  -6 -19   12.13    1.40
  11  -6 -19   12.38    1.44
  11  -6 -18   58.91    3.01
 -11  -6  18   50.07    2.52
  11  -6 -18   55.05    3.00
  11  -6 -17    9.91    1.83
 -11  -6  17    9.09    1.55
  11  -6 -16    2.23    1.95
 -11  -6  16    3.18    1.66
 -11   6  15    0.29    1.09
  11  -6 -15    1.05    2.19
 -11  -6  15    0.11    1.91
 -11   6  14    7.92    1.58
 -11  -6  14   10.11    2.30
 -11   6  13    1.42    1.69
  11  -6 -13    2.82    2.94
 -11  -6  13    5.37    2.38
 -11   6  12   20.01    2.31
  11  -6 -12   18.18    3.35
 -11  -6  12   27.14    3.11
 -11   6  11   27.94    2.64
  11  -6 -11   25.54    3.73
 -11  -6  11   28.45    3.30
 -11   6  10    1.84    2.19
  11  -6 -10    1.42    3.24
 -11   6   9    3.75    2.62
  11  -6  -9    4.46    3.50
 -11   6   8    1.45    2.60
  11  -6  -8   -0.91    3.05
  11   6  -8    1.92    2.03
 -11  -6   8   -1.27    3.17
 -11   6   7   23.77    3.21
  11  -6  -7   20.81    3.59
  11   6  -7   21.95    2.53
 -11  -6   7   23.26    3.47
 -11   6   6   -0.08    2.79
  11  -6  -6    1.50    3.10
  11   6  -6    1.09    2.38
 -11  -6   6    0.83    2.97
 -11   6   5   23.18    3.41
  11  -6  -5   23.28    3.52
  11   6  -5   25.70    2.98
 -11  -6   5   29.77    3.52
  11  -6  -4  345.91   14.09
  11   6  -4  349.88   13.83
 -11  -6   4  346.77   14.04
  11  -6  -3  147.18    6.95
  11   6  -3  142.23    6.74
 -11  -6   3  147.24    6.89
 -11   6   2    2.79    2.85
  11  -6  -2   -1.60    2.64
  11   6  -2    3.00    2.74
 -11  -6   2    0.35    2.59
  11  -6  -1   90.10    4.97
 -11  -6   1  101.63    5.09
 -11   6   1   98.03    5.39
 -11  -6   1   92.07    4.65
 -11  -6   0   -0.70    2.12
  11  -6   0    1.91    2.21
 -11  -6   0   -0.53    2.46
 -11   6   0    2.17    2.75
 -11  -6  -1    3.52    2.21
 -11  -6  -1    5.72    2.29
 -11   6  -1    3.62    2.67
 -11  -6  -2   47.47    3.24
 -11   6  -2   52.14    3.69
 -11  -6  -2   53.29    3.40
 -11  -6  -3  116.43    5.52
 -11   6  -3  118.29    5.92
 -11   6  -4  116.89    5.98
 -11  -6  -4  136.48    5.80
 -11   6  -5   74.92    4.24
 -11  -6  -5   82.37    4.15
 -11   6  -6   56.05    3.47
 -11  -6  -6   68.88    3.62
 -11   6  -7   87.98    4.50
 -11  -6  -7  108.86    4.70
 -11  -6  -8    7.17    2.01
 -11   6  -8    4.34    1.39
 -11  -6  -9    7.87    1.86
 -11  -6 -10   95.38    4.34
 -11  -6 -11   30.76    2.08
 -11  -6 -12   25.79    1.86
 -11  -6 -13    3.91    1.05
  11  -7 -17   32.96    2.24
  11  -7 -16   18.80    1.97
 -11  -7  16   24.85    1.71
  11  -7 -16   20.21    1.77
  11  -7 -15   15.96    1.83
  11  -7 -15   18.55    2.25
 -11  -7  15   17.91    1.81
  11  -7 -14    3.59    1.72
 -11  -7  14    6.39    1.72
 -11   7  14    3.45    1.00
  11  -7 -13   22.70    2.23
 -11  -7  13   23.58    2.41
 -11   7  13   17.85    1.62
 -11  -7  12   49.64    3.23
 -11   7  12   39.68    2.60
 -11  -7  11    0.31    2.40
 -11   7  11    1.13    1.60
 -11   7  10    4.38    1.87
  11  -7 -10    2.25    2.76
 -11  -7  10    3.09    2.66
  11  -7  -9   68.71    4.45
 -11   7   9   72.72    3.94
 -11   7   8    7.75    2.31
 -11   7   7    3.63    2.38
  11  -7  -7    1.37    2.63
 -11  -7   7    3.79    2.86
  11  -7  -6  109.90    5.73
 -11  -7   6  117.11    5.90
 -11   7   6  117.68    5.80
 -11   7   5   18.84    2.86
  11  -7  -5   15.59    2.86
  11   7  -5   22.29    2.34
 -11  -7   5   19.84    3.10
  11  -7  -4  254.74   10.57
  11   7  -4  274.40   10.37
 -11  -7   4  268.79   10.75
  11  -7  -3   31.70    2.91
  11   7  -3   41.75    3.00
 -11  -7   3   39.53    3.43
  11  -7  -2    2.83    2.00
  11   7  -2    5.80    2.32
 -11  -7   2    0.59    2.48
 -11   7   2    3.70    2.67
  11   7  -1    7.55    2.52
 -11  -7   1    3.97    2.43
 -11   7   1    7.23    2.75
 -11  -7   0   17.36    2.52
 -11   7   0   19.11    2.92
 -11  -7  -1    2.34    1.60
 -11  -7  -1    3.63    2.00
 -11   7  -1    3.81    2.61
 -11  -7  -2    0.98    1.56
 -11  -7  -2    2.91    1.88
 -11   7  -2    1.57    2.30
 -11  -7  -3   33.38    2.46
 -11   7  -3   33.69    2.95
 -11  -7  -3   31.41    2.32
 -11  -7  -4    3.52    1.67
 -11  -7  -4    2.50    1.48
 -11   7  -4    3.96    1.94
 -11   7  -5   83.03    4.41
 -11  -7  -5   97.29    4.22
 -11   7  -6   25.13    2.19
 -11  -7  -6   23.83    2.07
 -11   7  -7   31.08    2.23
 -11  -7  -7   39.61    2.38
 -11   7  -8  101.00    4.80
 -11  -7  -8  137.65    5.03
 -11  -7  -9   23.29    1.78
 -11  -7 -10   47.76    2.42
 -11  -7 -11    4.69    0.99
  11  -8 -16    1.06    0.96
  11  -8 -15  179.87    7.17
  11  -8 -14   22.09    1.96
 -11  -8  14   27.74    1.83
  11  -8 -13  320.53   13.15
 -11  -8  13  367.63   13.22
  11  -8 -12   62.24    3.22
 -11  -8  12   72.21    3.30
 -11  -8  11  135.59    5.56
 -11   8  11  112.95    5.07
 -11  -8  10    9.90    2.30
 -11   8  10   10.34    1.62
 -11  -8   9  198.78    8.39
 -11   8   9  200.06    8.10
 -11   8   8    4.50    1.78
 -11   8   7   88.28    4.38
 -11  -8   6   21.67    2.78
 -11   8   6   24.77    2.53
 -11  -8   5  263.99   10.56
 -11   8   5  253.79   10.49
 -11  -8   4   20.37    2.70
 -11   8   4   19.11    2.62
  11   8  -3   79.95    3.71
 -11  -8   3   80.13    4.28
 -11   8   3   71.24    4.25
  11   8  -2    1.26    1.68
 -11  -8   2    3.38    2.22
  11   8  -1  178.54    7.14
 -11  -8   1  181.93    7.39
  11   8   0    6.18    1.93
 -11  -8   0    2.02    1.95
 -11   8   0    2.73    2.18
  11   8   1   55.99    3.12
 -11  -8  -1   49.84    3.05
 -11   8  -1   48.47    3.34
 -11  -8  -2    2.27    1.66
 -11   8  -2    0.73    1.92
 -11  -8  -3   21.28    1.91
 -11   8  -3   23.36    2.24
 -11   8  -4   15.68    1.95
 -11   8  -5   28.72    2.08
 -11   8  -6    6.51    1.42
 -11  -8  -7    6.11    0.95
 -11   8  -7    4.81    1.14
 -11  -9  12    9.50    1.23
 -11  -9  11   13.28    1.50
  11  -9 -10   28.44    1.82
 -11   9  10   29.06    1.69
 -11  -9   9   80.41    3.63
 -11   9   9   64.00    3.17
 -11   9   8   60.20    2.98
 -11   9   7  120.59    5.17
 -11  -9   6  126.38    5.54
 -11   9   6  121.91    5.36
 -11  -9   5  110.40    4.90
 -11   9   5   97.48    4.66
 -11  -9   4    8.02    2.00
 -11   9   4    6.96    1.80
 -11  -9   3  131.41    5.64
 -11   9   3  122.02    5.55
 -11  -9   2   86.37    4.08
 -11   9   2   78.68    4.09
 -11  -9   1  154.75    6.48
 -11   9   0   45.55    2.93
 -11  -9   0   51.24    2.80
  11   9   1   71.59    3.36
 -11   9  -1   82.48    3.83
 -11  -9  -1   77.18    3.60
  11   9   2   43.95    2.36
 -11   9  -2   47.24    2.66
 -11  -9  -2   41.89    2.39
  11   9   3   74.74    3.23
 -11   9  -3   75.02    3.41
  11   9   4   23.50    1.57
 -11   9  -4   17.05    1.56
  11   9   5   58.23    2.66
 -11   9  -5   52.41    2.66
  11   9   6   14.07    1.26
 -11   9  -6   10.69    1.11
 -11 -10   9   57.20    2.68
 -11 -10   8    5.86    1.22
 -11  10   7    3.90    0.84
 -11  10   6   51.77    2.46
 -11  10   5   35.08    1.96
 -11 -10   5   35.15    2.19
 -11  10   4   48.82    2.47
 -11 -10   4   50.87    2.62
 -11  10   3   16.32    1.50
 -11 -10   3   18.96    1.63
 -11 -10   2    0.95    1.20
 -11  10   2   -0.18    1.09
 -11  10   1  116.92    4.80
 -11 -10   1  111.35    4.73
 -11 -10   0   38.01    2.03
 -11  10  -1    3.31    1.08
 -11  10  -2    3.04    0.95
 -11  10  -3   28.81    1.65
  12   0 -19    0.80    1.38
  12   0 -18   27.81    2.37
  12   0 -17    0.39    1.66
  12   0 -16  390.08   15.09
  12   0 -15   -1.33    2.41
  12   0 -14  822.51   30.97
  12   0 -13    1.41    2.95
 -12   0  13   -3.14    2.90
  12   0 -12  682.98   25.53
 -12   0  12  651.52   25.51
  12   0 -11    0.59    3.16
 -12   0  11    2.30    3.09
  12   0 -10  286.23   11.95
 -12   0  10  276.99   11.72
  12   0  -9    0.95    3.55
 -12   0   9   -2.28    2.76
  12   0  -8  716.95   27.01
 -12   0   8  687.48   26.76
  12   0  -7   -2.18    4.02
 -12   0   7   -2.74    2.80
  12   0  -6  287.46   12.31
 -12   0   6  284.48   11.78
 -12   0   5   -0.30    2.63
 -12   0   4   24.91    2.93
 -12   0   3   -1.11    2.25
  12   0  -2   51.02    4.80
 -12   0   2   46.40    3.24
  12   0  -1   -2.74    3.73
 -12   0   1   -0.60    1.83
  12   0   0   -1.64    3.68
 -12   0  -1    0.93    2.19
  12   0   1    0.07    3.53
 -12   0  -2    7.49    2.20
  12   0   2   11.27    3.51
  12   0   3    0.96    3.01
 -12   0  -3   -2.41    3.05
  12   0   4   43.14    3.81
 -12   0  -4   42.67    3.56
 -12   0  -5   -1.22    2.73
  12   0   5   -1.61    2.82
 -12   0  -6   22.60    2.96
  12   0   6   16.29    2.78
 -12   0  -7    2.20    2.44
  12   0   7   -0.64    2.26
 -12   0  -8   10.78    2.26
  12   0   8   10.64    2.19
 -12   0  -9    0.57    1.90
  12   0   9    0.46    1.68
 -12   0 -10    0.21    1.67
  12   0  10    1.35    1.37
 -12   0 -11   -0.56    1.41
  12  -1 -20   56.96    2.85
  12  -1 -19   38.61    2.56
  12   1 -18   17.01    1.77
  12  -1 -18   16.91    2.20
  12   1 -17    5.32    1.89
  12  -1 -17    2.84    1.89
  12  -1 -16   13.95    2.52
  12   1 -16   13.80    1.92
 -12  -1  16   13.60    2.42
  12  -1 -15   50.60    3.68
  12   1 -15   51.86    3.34
 -12  -1  15   53.15    3.70
  12  -1 -14   19.92    3.19
  12   1 -14   21.22    2.78
  12  -1 -13   49.54    4.21
  12   1 -13   50.45    3.72
  12  -1 -12    3.34    3.29
  12   1 -12    1.94    2.91
 -12   1  12    2.46    2.98
 -12  -1  12    2.17    2.96
  12  -1 -11    0.60    3.45
  12   1 -11    3.73    3.00
 -12   1  11   -0.53    2.82
 -12  -1  11    0.38    3.03
  12  -1 -10  215.53    9.64
  12   1 -10  226.89    9.43
 -12   1  10  203.52    9.28
 -12  -1  10  211.14    9.36
  12  -1  -9    3.86    3.93
  12   1  -9    6.22    3.50
 -12   1   9    0.54    2.78
 -12  -1   9    3.69    3.17
  12  -1  -8  267.15   11.46
  12   1  -8  252.81   11.20
 -12   1   8  256.19   11.00
 -12  -1   8  271.98   11.13
  12   1  -7   42.22    4.48
 -12   1   7   44.95    3.75
 -12  -1   7   41.09    3.84
  12   1  -6   36.73    4.36
 -12   1   6   42.74    3.46
 -12  -1   6   41.79    3.62
  12   1  -5   19.57    4.04
 -12   1   5   12.65    2.74
 -12  -1   5   18.22    2.96
  12  -1  -4   70.36    5.27
  12   1  -4   67.75    5.26
 -12   1   4   69.36    4.23
 -12  -1   4   81.29    4.46
  12  -1  -3    8.54    3.76
 -12   1   3   10.61    2.24
 -12  -1   3   14.59    2.48
  12  -1  -2   36.42    4.32
 -12   1   2   37.43    2.89
 -12  -1   2   38.76    3.03
  12  -1  -1   -0.15    3.33
 -12  -1   1    2.81    1.97
 -12   1   0   29.00    2.94
  12  -1   0   24.53    3.67
  12   1   0   25.76    4.22
 -12   1  -1   17.25    2.60
 -12  -1  -1   17.65    2.49
  12  -1   1   17.53    3.51
  12   1   1   25.68    3.99
  12  -1   2   91.31    5.17
  12   1   2   97.36    5.42
 -12   1  -2   86.47    4.69
 -12   1  -3   19.42    2.42
  12  -1   3   20.78    3.24
  12   1   3   23.27    3.72
  12  -1   4   60.74    4.14
  12   1   4   65.58    4.38
 -12  -1  -4   55.26    4.17
  12  -1   5   38.83    3.26
  12   1   5   41.48    3.71
 -12  -1  -5   44.69    3.51
 -12  -1  -6    5.04    2.60
  12  -1   6    5.23    2.37
  12   1   6    6.89    2.75
  12  -1   7   68.35    3.79
  12   1   7   72.03    4.06
 -12  -1  -7   74.11    4.18
  12  -1   8   40.57    2.73
  12   1   8   42.91    3.06
 -12  -1  -8   48.46    3.21
  12  -1   9  187.37    7.86
  12   1   9  203.79    8.14
 -12  -1  -9  214.75    8.24
  12   1  10   47.11    2.80
 -12  -1 -10   54.47    3.07
  12   1  11   19.77    1.68
 -12  -1 -11   25.08    2.02
 -12  -1 -12   44.60    2.41
 -12  -1 -13   11.39    1.18
  12  -2 -20   17.71    1.62
  12  -2 -19   -0.20    1.53
  12  -2 -18   43.23    2.82
 -12   2  18   28.74    1.74
 -12   2  17    9.06    1.40
  12   2 -17    7.18    1.37
  12  -2 -17    7.17    1.99
 -12  -2  17    7.86    1.95
  12  -2 -16   -2.33    2.30
 -12  -2  16    0.35    2.11
  12  -2 -15   21.25    2.99
  12   2 -15   20.44    2.10
 -12  -2  15   24.47    2.75
  12  -2 -14   -1.45    2.98
  12   2 -14   -2.22    2.05
  12  -2 -13   -3.07    3.28
  12   2 -13    2.47    2.30
  12  -2 -12    6.21    3.43
  12   2 -12    5.10    2.59
 -12  -2  12    8.86    3.08
  12   2 -11   50.24    3.72
  12  -2 -11   44.24    4.54
 -12  -2  11   45.67    3.92
  12  -2 -10   10.18    3.88
  12   2 -10   11.49    3.06
 -12  -2  10    5.86    3.13
  12   2  -9    3.16    2.95
 -12  -2   9    0.85    2.95
  12   2  -8    4.65    3.45
 -12  -2   8    1.69    2.85
  12   2  -7   41.69    4.27
 -12  -2   7   42.98    3.74
  12  -2  -6   29.46    4.19
  12   2  -6   29.99    4.09
 -12  -2   6   33.84    3.49
  12  -2  -5  191.81    8.58
  12   2  -5  183.60    8.42
 -12  -2   5  177.42    8.18
  12  -2  -4  263.72   11.22
  12   2  -4  261.89   11.22
 -12  -2   4  258.38   10.82
  12  -2  -3    2.40    3.52
  12   2  -3    4.32    3.70
 -12  -2   3    5.18    2.46
  12   2  -2   52.51    4.53
  12  -2  -2   49.46    4.43
 -12  -2   2   51.72    3.49
 -12   2   2   45.04    3.92
 -12   2   1    1.69    2.43
  12  -2  -1   -2.08    3.44
 -12  -2   1    3.28    2.13
  12  -2   0  323.31   13.26
 -12  -2   0  320.50   12.74
 -12  -2   0  348.61   13.13
 -12   2   0  305.85   13.01
  12  -2   1   44.14    4.00
 -12  -2  -1   45.84    3.70
 -12   2  -1   38.10    3.33
  12  -2   2  173.51    7.75
  12   2   2  180.20    7.96
 -12   2  -2  157.99    7.49
 -12  -2  -2  175.02    7.75
 -12  -2  -3   12.56    3.03
 -12   2  -3   13.91    2.31
  12  -2   3   12.60    2.86
  12   2   3   15.24    3.52
  12  -2   4  428.19   15.87
  12   2   4  437.84   16.07
  12  -2   5   30.38    2.87
  12   2   5   31.64    3.36
  12  -2   6  405.97   15.92
  12   2   6  426.57   16.21
  12  -2   7   31.37    2.34
  12   2   7   29.45    2.92
  12   2   8  215.08    9.14
 -12  -2  -8  235.51    9.22
 -12  -2  -9   10.10    2.23
  12   2   9    7.15    2.00
  12   2  10  113.39    5.12
 -12  -2 -10  125.05    5.28
 -12  -2 -11   13.32    1.84
  12   2  11   14.56    1.66
 -12  -2 -12   73.88    3.41
 -12  -2 -13   39.60    2.09
  12  -3 -19    3.08    1.42
 -12   3  17    1.37    0.97
 -12  -3  17    3.11    1.63
 -12   3  16    2.14    1.35
  12  -3 -16    0.32    2.29
 -12  -3  16    0.05    1.90
  12  -3 -15   70.47    4.21
 -12   3  15   62.80    3.49
 -12   3  14    6.14    1.91
  12  -3 -14    4.23    2.85
 -12  -3  14    5.41    2.51
  12  -3 -13   82.86    4.88
  12   3 -13   77.12    3.94
  12  -3 -12    3.12    3.41
  12   3 -12    3.70    2.15
  12   3 -11   83.09    4.49
 -12  -3  11   89.99    5.04
  12   3 -10   61.24    4.04
 -12  -3  10   65.76    4.43
  12   3  -9   53.13    3.87
 -12  -3   9   44.55    3.84
  12  -3  -8  247.72   10.54
  12   3  -8  225.08   10.19
 -12  -3   8  253.36   10.31
  12  -3  -7    3.88    3.66
  12   3  -7    2.50    3.19
 -12  -3   7    8.21    2.84
 -12   3   6  111.87    5.95
  12  -3  -6  113.76    6.33
  12   3  -6  120.55    6.14
 -12  -3   6  112.37    5.79
 -12   3   5    9.02    3.04
  12  -3  -5   10.43    3.67
  12   3  -5    7.85    3.26
 -12  -3   5   12.48    2.80
  12  -3  -4  190.88    8.59
  12   3  -4  188.00    8.57
 -12  -3   4  188.14    8.22
 -12   3   4  182.95    8.42
 -12   3   3   11.08    2.89
  12  -3  -3    8.17    3.57
  12   3  -3   11.57    3.59
 -12  -3   3   14.97    2.55
  12  -3  -2  191.71    8.48
  12   3  -2  193.14    8.49
 -12  -3   2  184.88    7.98
 -12   3   2  173.99    8.18
 -12   3   1    7.39    2.61
  12  -3  -1    7.87    3.15
  12   3  -1    9.43    3.50
 -12  -3   1   10.42    2.32
 -12   3   0   28.44    2.99
  12  -3   0   29.80    3.33
  12   3   0   29.85    3.85
 -12  -3   0   24.53    2.39
 -12  -3   0   19.51    3.11
 -12  -3  -1   43.14    3.54
  12  -3   1   41.83    3.66
 -12   3  -1   40.70    3.24
 -12  -3  -2   15.46    3.04
 -12   3  -2   16.85    2.55
  12  -3   2   17.75    2.94
 -12  -3  -3    2.99    2.75
  12  -3   3    0.12    2.48
 -12   3  -3    1.69    2.00
 -12  -3  -4    8.84    2.81
  12  -3   4   11.21    2.35
  12   3   4    8.62    3.04
 -12   3  -4    5.88    1.95
 -12  -3  -5    5.32    2.50
  12  -3   5    5.89    1.89
  12   3   5    1.99    2.74
 -12   3  -5    2.68    1.57
  12   3   6  111.26    5.47
 -12  -3  -6  108.86    5.27
  12   3   7   33.20    3.00
  12   3   8   16.81    2.41
  12   3   9    4.08    2.00
  12   3  10   18.53    1.95
  12   3  11   32.04    2.11
 -12  -3 -11   36.16    2.23
  12   3  12   61.48    2.99
 -12  -3 -12   79.51    3.25
 -12  -3 -13    4.43    0.95
  12  -4 -18   39.81    2.29
  12  -4 -18   43.65    2.56
  12  -4 -17  171.49    7.15
 -12  -4  17  167.14    6.87
 -12  -4  16   71.41    3.29
 -12   4  16   51.59    2.68
  12  -4 -15   62.06    3.90
 -12   4  15   59.15    3.11
  12  -4 -14  118.71    5.87
 -12   4  14  107.31    5.14
 -12  -4  13   62.03    3.83
 -12   4  13   59.19    3.36
 -12   4  12  235.75    9.58
  12  -4 -11  106.57    6.13
  12   4 -11  120.14    5.31
 -12   4  11  123.06    5.61
  12  -4 -10   53.21    4.12
  12   4 -10   54.01    3.38
 -12  -4  10   56.31    3.88
 -12   4  10   55.23    3.63
  12  -4  -9  245.51   10.75
  12   4  -9  259.06   10.38
 -12  -4   9  261.79   10.66
 -12   4   9  249.99   10.54
 -12   4   8    7.05    2.74
  12  -4  -8    9.93    3.45
  12   4  -8    8.23    2.66
 -12  -4   8   15.35    2.98
  12  -4  -7  118.97    6.63
  12   4  -7  133.83    6.24
 -12  -4   7  138.09    6.37
  12  -4  -6   14.92    3.54
  12   4  -6   11.94    3.02
 -12  -4   6   16.29    3.00
 -12   4   5   15.24    2.90
  12  -4  -5   14.37    3.40
  12   4  -5   10.30    3.04
 -12  -4   5   10.71    2.83
  12  -4  -4   87.78    5.28
  12   4  -4   93.06    5.10
 -12  -4   4   89.11    4.93
 -12   4   4   88.30    5.05
  12  -4  -3  173.63    8.07
  12   4  -3  187.28    8.20
 -12  -4   3  177.56    7.86
 -12   4   3  183.46    8.04
 -12   4   2   13.94    2.81
  12  -4  -2   20.18    3.21
  12   4  -2   19.89    3.28
 -12  -4   2   18.38    2.54
 -12   4   1   20.67    2.79
  12  -4  -1   21.14    3.11
  12   4  -1   23.27    3.60
 -12  -4   1   23.66    2.48
 -12   4   0    4.69    2.59
  12  -4   0    0.69    2.62
  12   4   0   10.03    3.31
 -12  -4   0    6.79    1.94
 -12  -4  -1   22.04    2.76
 -12   4  -1   21.36    2.66
  12  -4   1   16.75    2.70
  12   4   1   19.80    3.38
 -12  -4  -1   17.04    1.96
 -12  -4  -2    2.24    2.37
  12  -4   2    1.25    2.10
  12   4   2    4.11    2.97
 -12   4  -2    0.32    2.05
  12  -4   3   67.70    3.59
 -12   4  -3   59.64    3.66
 -12  -4  -3   71.05    3.97
 -12  -4  -4   28.96    2.80
 -12   4  -4   23.83    2.33
 -12  -4  -5    1.99    2.20
 -12   4  -5    0.71    1.46
  12   4   6   35.33    3.25
 -12  -4  -6   38.63    2.83
 -12  -4  -7    2.94    1.98
  12   4   7    2.93    2.22
 -12  -4  -8    2.53    1.91
  12   4   8    4.20    2.18
 -12  -4  -9   11.90    1.88
  12   4   9   13.49    2.01
 -12  -4 -10   -1.42    1.44
  12   4  10    0.19    1.53
  12   4  11    1.53    1.23
  12  -5 -17    1.94    1.32
  12  -5 -17    1.40    1.31
 -12  -5  17   -0.33    0.93
  12  -5 -16   12.73    1.84
 -12  -5  16   11.07    1.50
 -12   5  15    4.24    1.03
  12  -5 -15    7.04    1.91
 -12  -5  15    4.64    1.62
 -12   5  14    3.48    1.28
 -12  -5  14    6.47    2.02
  12  -5 -13   32.80    3.19
 -12  -5  13   39.06    2.87
 -12   5  13   34.94    2.31
  12  -5 -12   76.29    4.57
 -12   5  12   83.26    4.00
 -12   5  11    1.19    1.81
  12  -5 -11    2.56    2.70
  12  -5 -10   71.41    4.50
 -12  -5  10   77.33    4.37
 -12   5  10   77.27    4.07
 -12   5   9   -0.12    2.19
  12  -5  -9   -0.79    2.93
  12   5  -9    4.66    1.86
 -12  -5   9    1.88    2.40
  12  -5  -8  169.08    8.10
  12   5  -8  181.29    7.64
 -12  -5   8  197.16    8.06
 -12   5   8  184.49    7.94
  12  -5  -7   47.50    3.97
  12   5  -7   51.17    3.41
 -12  -5   7   53.69    3.73
 -12   5   7   48.83    3.57
  12  -5  -6   73.09    4.57
  12   5  -6   73.87    4.21
 -12  -5   6   80.30    4.47
  12  -5  -5   10.20    2.91
  12   5  -5   13.38    2.63
 -12  -5   5   13.76    2.72
 -12   5   4    3.20    2.45
  12   5  -4    6.42    2.51
 -12  -5   4    6.44    2.53
 -12   5   3   31.20    3.16
  12  -5  -3   28.46    3.12
  12   5  -3   33.16    3.23
 -12  -5   3   32.12    2.97
 -12   5   2   32.45    3.08
  12  -5  -2   27.92    3.06
  12   5  -2   32.02    3.27
 -12  -5   2   33.26    2.86
  12  -5  -1   55.15    3.65
  12   5  -1   66.56    4.06
 -12  -5   1   61.42    3.53
 -12   5   1   60.02    3.76
  12  -5   0  135.49    6.22
  12   5   0  148.06    6.64
 -12  -5   0  138.20    6.11
 -12   5   0  140.31    6.37
  12  -5   1    1.35    1.86
  12   5   1    2.58    2.72
 -12  -5  -1    1.89    1.55
 -12   5  -1   -0.25    2.18
  12   5   2  123.54    5.87
 -12   5  -2  112.54    5.53
 -12  -5  -2  126.81    5.44
 -12  -5  -3   12.19    2.19
  12   5   3   14.88    2.74
 -12   5  -3    9.44    2.02
  12   5   4  100.22    4.89
 -12  -5  -4   98.18    4.49
 -12   5  -5   22.24    1.96
 -12  -5  -5   32.42    2.40
 -12  -5  -6   16.19    2.10
 -12  -5  -7    3.86    1.67
 -12  -5  -8   11.55    1.74
  12   5   8   12.21    2.04
  12   5   9   23.95    2.00
 -12  -5  -9   22.14    1.77
 -12  -5 -10    3.58    1.16
  12   5  10    3.19    1.31
 -12  -5 -11    2.91    0.96
  12   5  11    3.90    1.03
  12  -6 -15    4.17    1.26
  12  -6 -15    6.13    1.50
 -12  -6  15    7.74    1.23
  12  -6 -14   22.91    1.91
 -12  -6  14   24.90    1.88
 -12  -6  13    1.09    1.64
 -12   6  13    1.44    1.11
 -12  -6  12   64.07    3.39
 -12   6  12   56.24    2.96
 -12   6  11    2.32    1.50
  12  -6 -11    4.27    2.31
 -12   6  10   16.30    1.93
  12  -6 -10   13.54    2.51
 -12   6   9   14.16    2.07
  12  -6  -9   11.30    2.58
 -12   6   8    7.87    2.12
  12  -6  -8    7.61    2.42
 -12  -6   8    7.43    2.37
  12  -6  -7  106.54    5.33
  12   6  -7  108.69    4.75
 -12  -6   7  111.86    5.29
 -12   6   7  103.43    5.14
 -12   6   6    5.29    2.32
  12  -6  -6    3.18    2.37
  12   6  -6    3.61    1.77
 -12  -6   6    2.56    2.33
  12  -6  -5  111.95    5.56
  12   6  -5  114.80    5.24
 -12  -6   5  122.25    5.55
  12  -6  -4    2.44    2.18
  12   6  -4    5.07    2.12
 -12  -6   4    2.79    2.23
  12  -6  -3    9.87    2.22
  12   6  -3   17.02    2.42
 -12  -6   3   11.36    2.24
 -12   6   3   12.86    2.36
  12  -6  -2    9.26    2.11
  12   6  -2   13.43    2.42
 -12  -6   2    9.18    2.11
 -12   6   2   13.05    2.44
  12  -6  -1   31.63    2.43
  12   6  -1   36.86    2.97
 -12  -6   1   33.22    2.57
 -12   6   1   36.79    2.90
  12   6   0    0.87    2.20
 -12  -6   0    2.78    1.71
 -12   6   0    2.28    2.01
  12   6   1  314.34   11.66
 -12  -6  -1  289.84   11.36
 -12   6  -1  277.55   11.59
  12   6   2   47.96    3.20
 -12   6  -2   37.08    2.72
  12   6   3  328.78   12.09
 -12   6  -3  287.14   11.90
  12   6   4  205.96    7.91
 -12  -6  -4  210.13    7.63
  12   6   5  365.70   12.46
 -12  -6  -5  337.58   12.19
  12   6   6   28.71    2.25
 -12  -6  -6   23.72    1.75
  12   6   7  136.63    5.87
 -12  -6  -7  140.70    5.65
 -12  -6  -8    6.07    1.16
 -12  -6  -9   57.57    2.62
  12   6  10    4.32    0.95
  12  -7 -14    1.12    1.00
 -12  -7  14    0.63    0.94
  12  -7 -13   23.48    1.80
 -12  -7  13   28.87    1.84
 -12  -7  12    3.42    1.42
 -12   7  12    2.03    0.80
 -12  -7  11   23.92    2.02
 -12   7  11   23.25    1.65
 -12   7  10   14.52    1.54
 -12   7   9    5.14    1.49
 -12  -7   8    4.49    1.94
 -12   7   8    6.77    1.71
  12  -7  -7   34.02    2.54
 -12  -7   7   36.07    2.75
 -12   7   7   36.61    2.57
  12  -7  -6    7.63    1.79
 -12  -7   6    4.18    1.98
 -12   7   6    6.35    1.87
  12  -7  -5   41.08    2.73
 -12  -7   5   48.50    3.03
 -12   7   5   48.30    3.00
  12   7  -4    0.86    1.38
 -12  -7   4   -0.05    1.88
  12   7  -3   42.22    2.49
 -12  -7   3   39.86    2.76
  12   7  -2   50.49    2.84
 -12  -7   2   51.34    3.00
 -12   7   2   49.94    3.12
  12   7  -1    3.14    1.71
 -12  -7   1    2.26    1.56
 -12   7   1    3.65    1.90
  12   7   0   19.78    2.08
 -12  -7   0   17.26    1.73
 -12   7   0   18.91    2.08
  12   7   1    8.96    1.87
 -12  -7  -1    5.27    1.30
 -12   7  -1    9.94    1.70
  12   7   2    2.17    1.73
 -12   7  -2   -0.18    1.43
  12   7   3   10.33    1.74
 -12   7  -3    6.84    1.41
  12   7   4   11.86    1.70
 -12   7  -4   10.48    1.32
  12   7   5   67.38    2.88
 -12   7  -5   45.16    2.44
  12   7   6   74.46    3.43
  12   7   7   15.60    1.42
  12   7   8   71.31    3.11
 -12  -8  11   93.96    4.00
 -12  -8  10    5.66    1.28
 -12   8   9  195.79    7.62
 -12  -8   8    0.40    1.32
 -12   8   8    1.27    1.07
 -12  -8   7   68.15    3.28
 -12   8   7   62.14    3.11
 -12  -8   6   38.10    2.46
 -12   8   6   42.70    2.38
 -12  -8   5  178.69    7.26
 -12   8   5  179.09    7.22
 -12  -8   4   18.83    1.90
 -12   8   4   22.98    1.86
 -12  -8   3   80.60    3.71
 -12  -8   2    2.78    1.26
 -12   8   2    3.38    1.43
 -12  -8   1    7.23    1.32
 -12   8   1    9.51    1.49
 -12  -8   0    7.82    1.17
 -12   8   0   10.72    1.47
  12   8   1   29.01    1.67
 -12   8  -1   26.77    1.87
  12   8   2   29.68    1.69
 -12   8  -2   26.39    1.75
  12   8   3   26.85    1.63
 -12   8  -3   24.37    1.56
 -12  -9   6    1.80    0.91
 -12   9   5   67.80    3.05
 -12  -9   5   74.22    3.12
 -12  -9   4    5.89    1.00
 -12   9   4    7.09    1.00
 -12   9   3  232.52    8.94
 -12   9   1    8.50    1.04
 -12   9   0   20.15    1.31
  13   0 -16  181.14    7.27
  13   0 -15   -0.28    1.31
  13   0 -14  210.03    8.44
  13   0 -13   -0.61    1.87
  13   0 -12  278.07   11.13
  13   0 -11   -1.49    2.38
  13   0 -10  272.76   11.15
 -13   0  10  276.50   11.05
  13   0  -9    2.81    2.67
 -13   0   9    0.89    2.08
  13   0  -8  124.57    6.16
 -13   0   8  126.45    5.78
  13   0  -7    0.57    2.89
 -13   0   7    0.94    2.02
  13   0  -6  140.32    6.63
 -13   0   6  136.64    6.13
 -13   0   5   -0.05    1.84
 -13   0   4  172.22    7.18
 -13   0   3    0.72    1.92
  13   0  -3   -2.38    3.10
 -13   0   2    2.85    1.94
  13   0  -2    3.21    2.72
 -13   0   1    1.60    1.70
  13   0  -1   -0.80    2.86
  13   0   0   31.39    3.10
 -13   0   0   28.53    2.27
  13   0   1    2.58    2.60
  13   0   2   -1.74    2.47
  13   0   3    0.92    2.27
  13   0   4   11.10    2.22
  13   0   5   -0.82    1.79
  13   0   6    7.53    1.67
  13   0   7    0.79    1.24
  13  -1 -16   14.89    1.69
 -13   1  16   13.69    1.21
 -13   1  15  146.02    6.22
  13  -1 -15  163.82    6.38
  13  -1 -14    1.54    1.69
  13   1 -14    1.60    1.46
  13  -1 -13   81.03    4.19
  13   1 -13   82.70    3.91
 -13  -1  13   77.66    4.10
  13  -1 -12   61.95    3.85
  13   1 -12   64.44    3.56
 -13  -1  12   64.60    3.65
  13  -1 -11   30.42    3.06
  13   1 -11   34.07    2.88
 -13  -1  11   32.67    2.77
  13  -1 -10   25.61    3.12
  13   1 -10   21.99    2.62
 -13  -1  10   20.83    2.54
  13  -1  -9   27.79    3.20
  13   1  -9   25.52    2.95
 -13  -1   9   25.36    2.63
  13  -1  -8  142.89    6.87
  13   1  -8  155.91    6.93
 -13  -1   8  150.86    6.63
  13   1  -7   38.10    3.55
 -13  -1   7   35.19    2.84
  13   1  -6  197.42    8.36
 -13  -1   6  181.06    7.86
 -13   1   5   15.02    2.42
  13  -1  -5   14.44    3.28
  13   1  -5   14.26    3.18
 -13  -1   5   14.77    2.16
  13  -1  -4  106.00    5.44
  13   1  -4   99.70    5.45
 -13  -1   4  101.03    4.75
 -13   1   4   97.93    4.94
 -13   1   3   13.20    2.22
  13  -1  -3   14.71    2.97
 -13  -1   3   14.97    1.92
 -13   1   2   17.78    2.27
 -13  -1   2   19.49    2.15
  13  -1  -2   18.52    3.12
 -13   1   1   75.71    3.92
 -13  -1   1   70.33    3.77
 -13   1   0   10.75    1.89
  13  -1   0    9.24    2.73
  13   1   0    9.25    2.88
 -13   1  -1    1.22    1.46
  13  -1   1   -1.23    2.38
  13   1   1   -0.06    2.68
  13  -1   2    0.42    2.30
  13   1   2    1.80    2.45
  13  -1   3   19.41    2.39
  13   1   3   16.38    2.52
  13  -1   4   51.74    3.16
  13   1   4   56.36    3.35
  13  -1   5    0.04    1.57
  13   1   5   -2.10    1.93
  13  -1   6   18.84    1.72
  13   1   6   20.76    2.00
  13   1   7   42.79    2.47
  13   1   8  106.36    4.42
  13  -2 -16    1.73    1.29
 -13   2  15    5.99    1.12
  13  -2 -15    4.49    1.53
 -13   2  14    1.05    1.19
  13  -2 -14    1.58    1.70
 -13   2  13   15.94    1.73
  13  -2 -13   16.86    2.32
  13   2 -13   11.35    1.61
 -13  -2  13   10.21    1.97
 -13   2  12    2.85    1.66
  13  -2 -12    2.99    2.24
  13   2 -12    2.39    1.61
 -13  -2  12    2.92    1.92
  13  -2 -11   43.12    3.41
  13   2 -11   45.50    2.96
 -13  -2  11   51.16    3.19
 -13   2  11   48.54    3.00
  13  -2 -10    0.29    2.56
  13   2 -10    2.49    2.07
 -13  -2  10   -0.40    2.15
  13   2  -9   23.49    2.73
 -13  -2   9   25.54    2.60
  13   2  -8   54.51    3.61
 -13  -2   8   50.43    3.35
 -13   2   8   52.81    3.38
 -13   2   7   11.62    2.32
  13  -2  -7    7.76    2.80
  13   2  -7   10.32    2.82
 -13  -2   7   12.46    2.26
  13  -2  -6  149.78    6.98
  13   2  -6  163.80    7.09
 -13  -2   6  154.95    6.74
 -13   2   6  149.84    6.82
 -13   2   5    1.97    2.08
  13  -2  -5    3.75    2.72
  13   2  -5    1.33    2.83
 -13  -2   5    1.27    1.90
 -13   2   4   11.08    2.24
  13  -2  -4   12.81    2.86
  13   2  -4    9.97    2.93
 -13  -2   4   10.55    1.97
 -13   2   3    9.55    2.09
  13  -2  -3    9.94    2.96
  13   2  -3    4.96    2.82
 -13  -2   3    9.32    1.73
  13  -2  -2   66.55    4.07
  13   2  -2   61.84    4.22
 -13   2   2   60.22    3.56
  13  -2  -1   55.21    3.70
 -13   2   1   53.77    3.26
  13  -2   0  223.78    8.83
 -13   2   0  201.53    8.59
  13  -2   1   46.43    3.12
 -13   2  -1   38.39    2.60
  13  -2   2  121.49    5.23
  13   2   2  122.91    5.36
  13  -2   3   90.71    4.46
  13   2   3  100.46    4.76
  13  -2   4  103.90    4.63
  13   2   4  105.03    4.94
  13  -2   5   33.88    2.12
  13   2   5   38.53    2.65
  13   2   6  256.82   10.09
  13   2   7    9.50    1.57
  13   2   8  190.18    7.45
 -13  -3  15    1.06    1.18
 -13   3  14    6.30    1.14
  13  -3 -14    3.57    1.69
 -13   3  13    4.08    1.29
  13  -3 -13    2.84    1.85
  13  -3 -12   86.12    4.59
 -13  -3  12   99.15    4.47
 -13   3  12   93.39    4.23
  13   3 -11   25.68    2.05
 -13  -3  11   23.37    2.38
 -13   3  11   30.22    2.27
  13   3 -10   93.29    4.26
 -13  -3  10   90.27    4.50
 -13   3  10   87.19    4.32
  13  -3  -9    2.82    2.51
  13   3  -9    6.29    2.02
 -13  -3   9    1.82    2.04
  13  -3  -8   62.04    3.97
  13   3  -8   65.05    3.70
 -13  -3   8   64.65    3.63
  13   3  -7   29.03    2.77
  13  -3  -7   26.89    3.03
 -13  -3   7   27.56    2.56
 -13   3   7   28.89    2.66
  13  -3  -6  459.35   18.23
  13   3  -6  475.01   18.19
 -13  -3   6  480.61   18.13
 -13   3   6  477.94   18.19
 -13   3   5    6.21    2.07
  13  -3  -5    4.21    2.58
  13   3  -5    7.16    2.55
 -13  -3   5    4.11    1.89
  13  -3  -4  325.44   12.87
  13   3  -4  329.21   12.87
 -13  -3   4  331.26   12.66
 -13   3   4  309.12   12.75
 -13   3   3    9.46    2.04
  13  -3  -3   12.48    2.61
  13   3  -3   10.95    2.77
 -13  -3   3   14.19    1.82
 -13   3   2    4.59    1.88
  13  -3  -2    4.37    2.33
  13   3  -2    4.92    2.59
 -13  -3   2    2.29    1.36
 -13   3   1    1.62    1.75
  13  -3  -1    3.57    2.15
  13   3  -1    1.71    2.56
 -13   3   0    1.13    1.75
  13  -3   0    0.44    2.07
  13   3   0    1.84    2.49
  13  -3   1   -0.82    1.80
 -13   3  -1    1.72    1.53
  13  -3   2    0.29    1.60
 -13   3  -2   -0.86    1.26
  13  -3   3    3.70    1.36
  13   3   4    3.58    2.10
  13   3   5   11.73    2.03
  13   3   6    4.48    1.75
  13   3   7  104.70    4.51
  13   3   8   55.04    2.64
 -13  -4  14   46.35    2.48
 -13   4  13   61.90    2.88
 -13  -4  12   86.91    3.87
 -13   4  12   72.62    3.52
 -13   4  11   21.35    1.87
  13  -4 -11   20.49    2.23
 -13  -4  11   26.61    2.16
  13  -4 -10   53.50    3.30
  13   4 -10   48.12    2.56
 -13  -4  10   57.60    3.10
 -13   4  10   51.52    2.91
 -13   4   9   14.53    1.92
  13  -4  -9   14.37    2.45
  13   4  -9   14.58    1.71
 -13  -4   9   20.59    2.21
  13  -4  -8    1.31    2.25
  13   4  -8    2.97    1.61
 -13  -4   8    4.17    1.91
  13   4  -7   31.58    2.45
  13  -4  -7   26.17    2.85
 -13  -4   7   29.07    2.45
 -13   4   6   12.29    2.13
  13  -4  -6   10.18    2.35
  13   4  -6   12.99    2.19
 -13  -4   6   14.01    2.00
 -13   4   5    6.21    1.94
  13  -4  -5    6.21    2.29
  13   4  -5    7.09    2.24
 -13  -4   5    9.05    1.82
 -13   4   4    2.01    1.84
  13  -4  -4   -0.10    2.12
  13   4  -4    0.10    2.19
 -13  -4   4    1.19    1.57
  13  -4  -3   25.89    2.60
  13   4  -3   29.66    2.77
 -13  -4   3   28.04    2.10
 -13   4   3   29.51    2.45
 -13   4   2   17.94    2.06
  13  -4  -2   18.01    2.30
  13   4  -2   18.87    2.59
 -13  -4   2   17.11    1.69
  13  -4  -1    4.86    1.83
  13   4  -1    3.58    2.32
 -13   4   1    2.92    1.56
  13  -4   0   13.98    1.82
  13   4   0   15.17    2.47
 -13   4   0   13.31    1.72
  13  -4   1   34.02    2.24
 -13   4  -1   35.59    2.33
  13   4   2   15.14    2.31
 -13   4  -2   10.65    1.39
 -13   4  -3   10.10    1.16
  13   4   6    2.83    1.44
  13   4   7    6.27    1.21
 -13   5  12   12.09    1.13
  13  -5 -11   78.52    3.88
 -13  -5  11   89.44    3.89
 -13   5  11   83.41    3.68
 -13   5  10    0.47    1.21
  13  -5 -10   -1.13    1.67
 -13  -5  10    1.74    1.54
  13  -5  -9   51.86    3.11
 -13  -5   9   62.01    3.10
 -13   5   9   55.62    2.92
  13  -5  -8   23.93    2.29
 -13  -5   8   29.59    2.23
 -13   5   8   27.71    2.11
  13  -5  -7   51.48    3.07
  13   5  -7   51.87    2.69
 -13  -5   7   53.97    2.98
  13  -5  -6    6.58    1.83
  13   5  -6    7.76    1.61
 -13  -5   6    7.26    1.66
  13  -5  -5  170.23    7.26
  13   5  -5  178.57    7.17
 -13  -5   5  175.91    7.20
 -13   5   5  181.04    7.32
  13  -5  -4    2.66    1.72
  13   5  -4    3.69    1.74
 -13  -5   4    4.89    1.43
 -13   5   4    3.26    1.65
  13  -5  -3   79.71    3.80
  13   5  -3   82.47    3.88
 -13  -5   3   75.79    3.67
 -13   5   3   81.65    3.94
  13  -5  -2   18.70    1.81
  13   5  -2   24.54    2.17
 -13  -5   2   22.07    1.69
 -13   5   2   20.30    1.92
  13   5  -1    9.75    1.91
 -13   5   1    6.64    1.52
  13   5   0   15.58    2.01
 -13   5   0   12.23    1.55
  13   5   1    1.27    1.75
 -13   5  -1    0.42    1.20
  13   5   2   16.33    1.93
 -13   5  -2    9.94    1.18
  13   5   3   -0.79    1.63
  13   5   4    1.89    1.40
 -13  -6  10    7.66    1.18
 -13   6  10    6.07    0.92
 -13  -6   9   67.19    3.04
 -13   6   9   59.16    2.89
 -13  -6   8    1.25    1.24
  13  -6  -7   16.81    1.62
 -13   6   7   18.80    1.62
  13  -6  -6    4.11    1.18
 -13  -6   6    7.96    1.35
 -13  -6   5   83.67    3.75
  13   6  -4   34.87    1.93
 -13  -6   4   35.31    2.03
 -13   6   4   35.07    2.23
  13   6  -3   25.59    1.80
 -13  -6   3   26.85    1.67
 -13   6   3   29.54    1.95
  13   6  -2    8.09    1.34
 -13   6   2    7.48    1.32
  13   6  -1  143.47    5.47
 -13   6   1  121.73    5.42
  13   6   0    8.14    1.36
 -13   6   0    5.19    1.15
  13   6   1  219.53    7.51
 -13   6  -1  167.25    7.34
  13   6   2   17.47    1.50
  13   6   3  384.36   14.44
  13   6   4   10.87    1.17
 -13   7   6  139.69    5.56
 -13   7   4    6.11    1.05
 -13   7   3    3.83    0.97
 -13   7   2   13.69    1.21
 -13   7   1   28.06    1.57
 -14   0  11    0.35    0.88
  14   0 -11    0.06    1.05
 -14   0  10   13.91    1.38
  14   0 -10   10.33    1.53
 -14   0   9   -0.29    1.07
  14   0  -9   -0.76    1.40
 -14   0   8    2.46    1.16
  14   0  -8    1.87    1.55
 -14   0   7    0.87    1.18
  14   0  -7    1.45    1.73
 -14   0   6    1.39    1.09
 -14   0   5   -0.07    1.09
 -14   0   4   16.84    1.43
 -14   0   3   -0.48    0.91
  14   0  -3    1.82    1.72
  14   0  -2    2.20    1.69
  14   0  -1    0.64    1.56
  14   0   0    7.01    1.57
  14   0   1   -0.14    1.35
  14   0   2   19.17    1.62
  14  -1 -11   60.74    2.82
 -14  -1  11   53.87    2.60
  14  -1 -10   60.32    2.93
  14   1 -10   55.50    2.78
 -14   1  10   58.60    2.72
 -14  -1  10   54.66    2.68
  14  -1  -9   74.84    3.41
  14   1  -9   74.07    3.31
 -14   1   9   68.66    3.17
 -14   1   8    3.72    1.15
 -14  -1   8    5.00    1.18
  14   1  -8    6.04    1.49
  14   1  -7   23.41    1.98
 -14   1   7   20.66    1.72
 -14  -1   7   20.46    1.61
 -14   1   6    6.16    1.29
 -14  -1   6    8.17    1.22
  14   1  -6   10.00    1.78
  14  -1  -5   73.61    3.40
  14   1  -5   78.60    3.45
 -14   1   5   60.16    3.04
 -14   1   4   11.60    1.30
 -14  -1   4   10.74    1.16
  14  -1  -4   14.73    1.81
  14  -1  -3  173.64    6.06
 -14   1   3  122.94    5.61
 -14   1   2   11.75    1.17
  14  -1  -2   16.89    1.83
  14  -1  -1   49.50    2.82
  14   1  -1   57.88    3.03
  14  -1   0   17.05    1.71
  14   1   0   17.27    1.82
  14  -1   1   19.60    1.65
  14   1   1   22.61    1.88
  14   1   2    0.67    1.23
  14   1   3    8.34    1.21
  14  -2 -11   19.23    1.53
 -14   2   9    2.92    1.02
  14   2  -8   32.22    1.97
 -14   2   8   31.93    1.90
 -14   2   7    1.43    1.15
 -14  -2   7    1.28    0.89
  14  -2  -7   -0.31    1.55
  14   2  -7    1.02    1.35
  14   2  -6  111.55    4.15
 -14   2   6   99.77    3.96
 -14   2   5    2.97    1.11
  14  -2  -5    2.27    1.59
  14   2  -5    4.49    1.54
  14  -2  -4  107.79    4.64
 -14   2   4   90.69    4.40
  14  -2  -3   17.31    1.73
  14   2  -3   19.96    1.91
  14  -2  -2   72.25    3.20
  14   2  -2   91.43    3.48
  14  -2  -1   18.17    1.64
  14  -2   0   88.45    3.84
  14   2   1   77.13    3.56
  14   2   2   54.96    2.73
  14   2   3   10.95    1.24
  14  -3  -9   14.43    1.42
  14  -3  -8  115.00    4.85
 -14   3   8  116.42    4.78
 -14   3   7    1.81    1.04
  14  -3  -7    0.52    1.23
  14  -3  -6  199.65    7.75
  14   3  -6  205.01    7.68
 -14   3   6  183.33    7.63
 -14   3   5    1.19    1.03
  14  -3  -5   -1.13    1.26
  14   3  -5    1.75    1.28
  14  -3  -4   69.39    3.24
 -14   3   4   62.61    3.08
  14  -3  -3   10.68    1.35
  14   3  -3   12.17    1.52
  14   3  -2   41.32    2.37
  14   3  -1    5.61    1.38
  14   3   0   39.99    2.28
 -14   4   6   32.02    1.74
 -14   4   5    0.09    0.81
   0   0   0    0.00    0.00


TITL 180424-7 in P2(1)/c
REM P2(1)/c (#14 in standard setting)
CELL 1.54184  11.621193  13.099731  25.029804  90.0000  97.1562  90.0000
ZERR   17.00   0.000123   0.000166   0.000320   0.0000   0.0011   0.0000
LATT  1
SYMM -x, y+1/2,-z+1/2
SFAC C H N O
UNIT 187.00 170.00 17.00 17.00
TREF
HKLF 4
END
_computing_structure_solution     'SHELXT 2014/5 (Sheldrick, 2014)'
;
_shelx_hkl_checksum              70223
_olex2_submission_special_instructions 'No special instructions were received'
_oxdiff_exptl_absorpt_empirical_details
;
Empirical correction (ABSPACK) includes:
- Absorption correction using spherical harmonics
- Frame scaling
;
_oxdiff_exptl_absorpt_empirical_full_max 1.701
_oxdiff_exptl_absorpt_empirical_full_min 0.739
loop_
_space_group_symop_operation_xyz
'x, y, z'
'-x, y+1/2, -z+1/2'
'-x, -y, -z'
'x, -y-1/2, z-1/2'
loop_
_atom_site_label
_atom_site_type_symbol
_atom_site_fract_x
_atom_site_fract_y
_atom_site_fract_z
_atom_site_U_iso_or_equiv
_atom_site_adp_type
_atom_site_occupancy
_atom_site_site_symmetry_order
_atom_site_calc_flag
_atom_site_refinement_flags_posn
Mn01 Mn 0.11905(3) 0.53803(3) 0.74462(2) 0.01535(11) Uani 1 1 d .
Mn02 Mn 0.92799(3) 0.72512(3) 0.22636(2) 0.01636(12) Uani 1 1 d .
O4 O 0.86942(15) 0.91984(14) 0.68808(7) 0.0184(4) Uani 1 1 d .
O2 O 0.18035(16) 0.67018(14) 0.71165(7) 0.0211(4) Uani 1 1 d .
O1 O 0.03636(16) 0.75539(16) 0.66388(8) 0.0235(4) Uani 1 1 d .
O9 O -0.00944(16) 0.63454(14) 0.78253(7) 0.0219(4) Uani 1 1 d .
O10 O 0.81725(16) 0.83320(15) 0.18058(8) 0.0256(4) Uani 1 1 d .
H10A H 0.8525 0.8919 0.1781 0.038 Uiso 1 1 d GR
H10B H 0.7581 0.8494 0.1975 0.038 Uiso 1 1 d GR
O6 O 0.76744(17) 0.55036(15) 0.29706(8) 0.0252(4) Uani 1 1 d .
O7 O 0.05557(17) 0.63837(16) 0.27334(8) 0.0282(4) Uani 1 1 d .
O8 O 0.02669(16) 0.49375(15) 0.31585(8) 0.0239(4) Uani 1 1 d .
O3 O 0.74987(17) 1.05040(14) 0.67903(8) 0.0232(4) Uani 1 1 d .
O5 O 0.81130(18) 0.71465(15) 0.28554(8) 0.0281(4) Uani 1 1 d .
C00D C 0.1697(2) 0.6096(2) 0.35638(10) 0.0178(5) Uani 1 1 d .
C00E C 0.5128(2) 0.7534(2) 0.48681(10) 0.0193(5) Uani 1 1 d .
N00F N -0.0645(2) 0.5768(2) 0.86065(11) 0.0351(6) Uani 1 1 d .
C00G C 0.6935(2) 0.6731(2) 0.35283(10) 0.0185(5) Uani 1 1 d .
C00H C 0.7153(2) 0.9152(2) 0.61506(10) 0.0182(5) Uani 1 1 d .
C00I C 0.2097(2) 0.72812(19) 0.62489(10) 0.0180(5) Uani 1 1 d .
C00J C 0.3409(2) 0.7325(2) 0.53806(10) 0.0187(5) Uani 1 1 d .
C00K C 0.1368(2) 0.71777(19) 0.67023(11) 0.0188(5) Uani 1 1 d .
C00L C 0.7627(2) 0.6434(2) 0.30807(10) 0.0187(5) Uani 1 1 d .
C00M C 0.7623(2) 0.8326(2) 0.59001(10) 0.0200(5) Uani 1 1 d .
H00M H 0.8374 0.8110 0.6018 0.024 Uiso 1 1 calc R
C00N C 0.5831(2) 0.8117(2) 0.53058(10) 0.0187(5) Uani 1 1 d .
C00O C 0.3275(2) 0.6808(2) 0.44167(10) 0.0184(5) Uani 1 1 d .
C00P C 0.5736(2) 0.7259(2) 0.43941(10) 0.0184(5) Uani 1 1 d .
C00Q C 0.2259(2) 0.7029(2) 0.35240(11) 0.0197(5) Uani 1 1 d .
H00Q H 0.2109 0.7416 0.3212 0.024 Uiso 1 1 calc R
C00R C 0.1636(2) 0.7707(2) 0.57591(11) 0.0235(6) Uani 1 1 d .
H00R H 0.0894 0.7986 0.5720 0.028 Uiso 1 1 calc R
C00S C 0.1957(2) 0.5508(2) 0.40286(11) 0.0211(5) Uani 1 1 d .
H00S H 0.1606 0.4875 0.4055 0.025 Uiso 1 1 calc R
C00T C 0.3221(2) 0.6894(2) 0.63040(10) 0.0189(5) Uani 1 1 d .
H00T H 0.3539 0.6615 0.6631 0.023 Uiso 1 1 calc R
C00U C 0.3872(2) 0.6920(2) 0.58765(11) 0.0195(5) Uani 1 1 d .
H00U H 0.4625 0.6666 0.5921 0.023 Uiso 1 1 calc R
C00V C 0.0779(2) 0.5785(2) 0.31203(10) 0.0193(5) Uani 1 1 d .
C00W C 0.2736(2) 0.5866(2) 0.44504(11) 0.0219(5) Uani 1 1 d .
H00W H 0.2901 0.5472 0.4760 0.026 Uiso 1 1 calc R
C00X C 0.3039(2) 0.7382(2) 0.39473(10) 0.0192(5) Uani 1 1 d .
H00X H 0.3407 0.8006 0.3918 0.023 Uiso 1 1 calc R
C00Y C 0.2277(2) 0.7717(2) 0.53313(11) 0.0236(6) Uani 1 1 d .
H00Y H 0.1953 0.7989 0.5004 0.028 Uiso 1 1 calc R
C00Z C 0.5379(2) 0.8967(2) 0.55487(11) 0.0210(5) Uani 1 1 d .
H00Z H 0.4630 0.9187 0.5430 0.025 Uiso 1 1 calc R
C010 C 0.6895(2) 0.7739(2) 0.36975(11) 0.0208(5) Uani 1 1 d .
H010 H 0.7264 0.8244 0.3520 0.025 Uiso 1 1 calc R
C011 C 0.6311(2) 0.7999(2) 0.41271(11) 0.0204(5) Uani 1 1 d .
H011 H 0.6302 0.8675 0.4239 0.024 Uiso 1 1 calc R
C012 C 0.4020(2) 0.7245(2) 0.48919(10) 0.0191(5) Uani 1 1 d .
C013 C 0.7813(2) 0.9656(2) 0.66300(10) 0.0188(5) Uani 1 1 d .
C014 C 0.6361(2) 0.5989(2) 0.37905(11) 0.0232(5) Uani 1 1 d .
H014 H 0.6374 0.5312 0.3678 0.028 Uiso 1 1 calc R
C015 C 0.6034(2) 0.9483(2) 0.59624(11) 0.0211(5) Uani 1 1 d .
H015 H 0.5728 1.0052 0.6116 0.025 Uiso 1 1 calc R
C016 C 0.6975(2) 0.7828(2) 0.54767(11) 0.0213(5) Uani 1 1 d .
H016 H 0.7306 0.7294 0.5304 0.026 Uiso 1 1 calc R
C017 C 0.5767(2) 0.6249(2) 0.42186(11) 0.0223(5) Uani 1 1 d .
H017 H 0.5386 0.5745 0.4391 0.027 Uiso 1 1 calc R
O11 O 0.6128(3) 0.6356(3) 0.71281(15) 0.0788(11) Uani 1 1 d .
N019 N 0.5007(3) 0.7555(4) 0.74398(13) 0.0604(10) Uani 1 1 d .
C01A C -0.0113(2) 0.6420(2) 0.83217(12) 0.0287(6) Uani 1 1 d .
H01A H 0.0270 0.6969 0.8500 0.034 Uiso 1 1 calc R
C01B C 0.1032(4) 0.5036(3) 0.56758(18) 0.0535(10) Uani 1 1 d .
H01O H 0.0879 0.5054 0.6044 0.080 Uiso 1 1 calc GR
H01P H 0.0543 0.5522 0.5469 0.080 Uiso 1 1 calc GR
H01Q H 0.1830 0.5204 0.5658 0.080 Uiso 1 1 calc GR
C01C C -0.0522(4) 0.5842(5) 0.91923(16) 0.0709(15) Uani 1 1 d .
H01B H -0.0068 0.5278 0.9347 0.106 Uiso 1 1 calc GR
H01C H -0.1275 0.5824 0.9312 0.106 Uiso 1 1 calc GR
H01D H -0.0142 0.6471 0.9304 0.106 Uiso 1 1 calc GR
C01D C 0.5770(4) 0.7322(6) 0.71373(18) 0.0755(18) Uani 1 1 d .
H01H H 0.6072 0.7816 0.6927 0.091 Uiso 1 1 calc R
C01E C -0.1335(4) 0.4944(3) 0.8344(2) 0.0680(15) Uani 1 1 d .
H01E H -0.1570 0.5119 0.7974 0.102 Uiso 1 1 calc GR
H01F H -0.2009 0.4838 0.8523 0.102 Uiso 1 1 calc GR
H01G H -0.0881 0.4329 0.8362 0.102 Uiso 1 1 calc GR
C01F C 0.0799(5) 0.4043(4) 0.5463(2) 0.0749(14) Uani 1 1 d .
N01G N 0.0621(5) 0.3226(4) 0.5256(3) 0.128(3) Uani 1 1 d .
C01H C 0.4455(4) 0.6902(8) 0.77763(19) 0.125(3) Uani 1 1 d .
H01I H 0.4751 0.6222 0.7752 0.188 Uiso 1 1 calc GR
H01J H 0.3635 0.6904 0.7664 0.188 Uiso 1 1 calc GR
H01K H 0.4605 0.7137 0.8142 0.188 Uiso 1 1 calc GR
C01I C 0.4562(6) 0.8627(6) 0.7434(3) 0.122(3) Uani 1 1 d .
H01L H 0.5028 0.9053 0.7235 0.183 Uiso 1 1 calc GR
H01M H 0.4601 0.8875 0.7797 0.183 Uiso 1 1 calc GR
H01N H 0.3772 0.8642 0.7268 0.183 Uiso 1 1 calc GR
loop_
_atom_site_aniso_label
_atom_site_aniso_U_11
_atom_site_aniso_U_22
_atom_site_aniso_U_33
_atom_site_aniso_U_23
_atom_site_aniso_U_13
_atom_site_aniso_U_12
Mn01 0.0145(2) 0.0165(2) 0.0153(2) 0.00015(14) 0.00286(15) 0.00127(14)
Mn02 0.0145(2) 0.0190(2) 0.0164(2) 0.00042(15) 0.00508(15) -0.00103(15)
O4 0.0160(8) 0.0213(9) 0.0173(9) -0.0004(7) -0.0007(7) -0.0002(7)
O2 0.0232(9) 0.0214(9) 0.0195(9) 0.0030(7) 0.0062(7) -0.0033(7)
O1 0.0174(9) 0.0319(10) 0.0226(9) -0.0010(8) 0.0085(7) 0.0027(8)
O9 0.0218(9) 0.0244(10) 0.0210(9) 0.0019(7) 0.0085(7) 0.0060(8)
O10 0.0218(9) 0.0224(10) 0.0322(11) 0.0015(8) 0.0012(8) -0.0001(8)
O6 0.0271(10) 0.0227(10) 0.0283(10) -0.0032(8) 0.0131(8) 0.0030(8)
O7 0.0249(10) 0.0341(11) 0.0231(10) 0.0045(8) -0.0061(8) -0.0005(8)
O8 0.0213(9) 0.0224(10) 0.0270(10) -0.0046(8) -0.0011(8) -0.0010(8)
O3 0.0258(10) 0.0187(9) 0.0236(10) -0.0031(7) -0.0023(8) 0.0012(7)
O5 0.0324(11) 0.0260(10) 0.0303(11) -0.0018(8) 0.0207(9) -0.0048(8)
C00D 0.0149(11) 0.0207(13) 0.0179(12) -0.0022(10) 0.0019(9) 0.0012(10)
C00E 0.0179(12) 0.0217(13) 0.0188(13) -0.0003(10) 0.0039(10) -0.0009(10)
N00F 0.0374(14) 0.0364(15) 0.0353(14) 0.0116(12) 0.0198(12) 0.0120(12)
C00G 0.0140(11) 0.0229(13) 0.0193(12) -0.0004(10) 0.0047(10) 0.0006(10)
C00H 0.0174(12) 0.0198(13) 0.0170(12) 0.0003(10) 0.0010(10) -0.0006(10)
C00I 0.0168(12) 0.0187(12) 0.0189(12) -0.0012(10) 0.0041(10) -0.0019(9)
C00J 0.0150(11) 0.0235(13) 0.0181(12) -0.0015(10) 0.0034(10) -0.0023(10)
C00K 0.0180(12) 0.0175(12) 0.0213(13) -0.0022(10) 0.0036(10) -0.0016(10)
C00L 0.0147(11) 0.0236(13) 0.0181(12) 0.0003(10) 0.0036(9) 0.0001(10)
C00M 0.0160(11) 0.0236(13) 0.0197(12) 0.0014(10) 0.0002(10) 0.0027(10)
C00N 0.0166(12) 0.0234(13) 0.0160(12) -0.0002(10) 0.0023(9) -0.0019(10)
C00O 0.0130(11) 0.0243(13) 0.0182(12) -0.0018(10) 0.0032(9) -0.0001(10)
C00P 0.0132(11) 0.0262(14) 0.0158(12) -0.0020(10) 0.0017(9) 0.0005(10)
C00Q 0.0179(12) 0.0221(13) 0.0190(12) 0.0025(10) 0.0019(10) 0.0009(10)
C00R 0.0168(12) 0.0311(15) 0.0228(14) 0.0017(11) 0.0030(10) 0.0058(11)
C00S 0.0212(12) 0.0187(13) 0.0236(13) 0.0004(10) 0.0036(10) -0.0028(10)
C00T 0.0174(12) 0.0217(13) 0.0177(12) 0.0002(10) 0.0019(10) 0.0005(10)
C00U 0.0149(11) 0.0225(13) 0.0212(13) -0.0013(10) 0.0030(10) 0.0017(10)
C00V 0.0150(11) 0.0220(13) 0.0213(13) -0.0037(10) 0.0032(10) 0.0032(10)
C00W 0.0210(12) 0.0263(14) 0.0180(12) 0.0034(10) 0.0012(10) -0.0018(11)
C00X 0.0161(11) 0.0219(13) 0.0202(13) 0.0012(10) 0.0043(10) -0.0012(10)
C00Y 0.0185(12) 0.0344(15) 0.0184(13) 0.0038(11) 0.0037(10) 0.0059(11)
C00Z 0.0142(11) 0.0239(13) 0.0240(13) 0.0007(11) -0.0011(10) 0.0005(10)
C010 0.0181(12) 0.0221(13) 0.0230(13) 0.0007(10) 0.0061(10) -0.0031(10)
C011 0.0193(12) 0.0194(13) 0.0231(13) -0.0032(10) 0.0054(10) -0.0013(10)
C012 0.0164(12) 0.0240(13) 0.0170(12) -0.0009(10) 0.0026(10) -0.0004(10)
C013 0.0174(12) 0.0214(13) 0.0179(12) 0.0025(10) 0.0036(10) -0.0026(10)
C014 0.0247(13) 0.0193(13) 0.0271(14) -0.0020(11) 0.0096(11) -0.0001(10)
C015 0.0211(12) 0.0204(13) 0.0211(13) -0.0021(10) 0.0003(10) 0.0028(10)
C016 0.0193(12) 0.0256(14) 0.0191(13) -0.0047(10) 0.0033(10) 0.0017(10)
C017 0.0218(12) 0.0228(13) 0.0242(13) 0.0013(10) 0.0104(11) -0.0028(10)
O11 0.0406(16) 0.107(3) 0.093(3) -0.038(2) 0.0249(16) -0.0188(18)
N019 0.0299(15) 0.116(3) 0.0349(17) -0.0068(19) 0.0019(13) -0.0068(19)
C01A 0.0229(13) 0.0342(16) 0.0298(15) -0.0010(12) 0.0058(11) 0.0023(12)
C01B 0.046(2) 0.054(2) 0.061(3) 0.003(2) 0.0102(19) 0.0004(19)
C01C 0.062(3) 0.117(4) 0.037(2) 0.032(3) 0.021(2) 0.040(3)
C01D 0.034(2) 0.149(6) 0.046(2) -0.028(3) 0.0140(18) -0.025(3)
C01E 0.077(3) 0.0307(19) 0.110(4) -0.009(2) 0.068(3) -0.012(2)
C01F 0.066(3) 0.062(3) 0.093(4) -0.013(3) -0.007(3) 0.006(2)
N01G 0.090(4) 0.067(3) 0.211(7) -0.031(4) -0.048(4) 0.022(3)
C01H 0.041(2) 0.297(11) 0.039(2) 0.003(4) 0.009(2) -0.052(4)
C01I 0.080(4) 0.158(7) 0.117(5) -0.062(5) -0.034(4) 0.057(5)
loop_
_atom_type_symbol
_atom_type_description
_atom_type_scat_dispersion_real
_atom_type_scat_dispersion_imag
_atom_type_scat_source
C C 0.0181 0.0091 'International Tables Vol C Tables 4.2.6.8 and 6.1.1.4'
H H 0.0000 0.0000 'International Tables Vol C Tables 4.2.6.8 and 6.1.1.4'
Mn Mn -0.5299 2.8052 'International Tables Vol C Tables 4.2.6.8 and 6.1.1.4'
N N 0.0311 0.0180 'International Tables Vol C Tables 4.2.6.8 and 6.1.1.4'
O O 0.0492 0.0322 'International Tables Vol C Tables 4.2.6.8 and 6.1.1.4'
loop_
_geom_angle_atom_site_label_1
_geom_angle_atom_site_label_2
_geom_angle_atom_site_label_3
_geom_angle
_geom_angle_site_symmetry_1
_geom_angle_site_symmetry_3
O4 Mn01 O3 57.39(6) 2_646 2_646
O4 Mn01 C013 29.15(7) 2_646 2_646
O2 Mn01 O4 150.05(7) . 2_646
O2 Mn01 O9 88.73(7) . .
O2 Mn01 O6 89.69(8) . 3_666
O2 Mn01 O8 99.16(7) . 3_566
O2 Mn01 O3 92.69(7) . 2_646
O2 Mn01 C013 120.90(8) . 2_646
O9 Mn01 O4 92.91(7) . 2_646
O9 Mn01 O3 90.89(7) . 2_646
O9 Mn01 C013 94.26(7) . 2_646
O6 Mn01 O4 90.55(7) 3_666 2_646
O6 Mn01 O9 175.51(7) 3_666 .
O6 Mn01 O8 91.80(8) 3_666 3_566
O6 Mn01 O3 93.38(8) 3_666 2_646
O6 Mn01 C013 90.16(8) 3_666 2_646
O8 Mn01 O4 110.76(7) 3_566 2_646
O8 Mn01 O9 84.30(7) 3_566 .
O8 Mn01 O3 167.08(8) 3_566 2_646
O8 Mn01 C013 139.90(8) 3_566 2_646
O3 Mn01 C013 28.38(7) 2_646 2_646
O4 Mn02 O9 169.64(7) 4_575 4_675
O1 Mn02 O4 87.88(7) 4_675 4_575
O1 Mn02 O9 100.11(7) 4_675 4_675
O1 Mn02 O10 84.23(8) 4_675 .
O10 Mn02 O4 101.82(7) . 4_575
O10 Mn02 O9 85.66(7) . 4_675
O7 Mn02 O4 86.30(7) 1_655 4_575
O7 Mn02 O1 92.00(8) 1_655 4_675
O7 Mn02 O9 86.84(7) 1_655 4_675
O7 Mn02 O10 170.88(8) 1_655 .
O7 Mn02 O5 92.40(8) 1_655 .
O5 Mn02 O4 93.33(7) . 4_575
O5 Mn02 O1 175.50(8) . 4_675
O5 Mn02 O9 79.21(7) . 4_675
O5 Mn02 O10 91.28(8) . .
Mn02 O4 Mn01 106.17(7) 4_576 2_656
C013 O4 Mn01 90.80(15) . 2_656
C013 O4 Mn02 143.48(16) . 4_576
C00K O2 Mn01 127.97(17) . .
C00K O1 Mn02 125.08(17) . 4_476
Mn01 O9 Mn02 110.80(7) . 4_476
C01A O9 Mn01 123.87(18) . .
C01A O9 Mn02 119.11(18) . 4_476
Mn02 O10 H10A 111.2 . .
Mn02 O10 H10B 110.8 . .
H10A O10 H10B 102.9 . .
C00L O6 Mn01 133.31(17) . 3_666
C00V O7 Mn02 146.69(18) . 1_455
C00V O8 Mn01 116.64(17) . 3_566
C013 O3 Mn01 90.83(15) . 2_656
C00L O5 Mn02 135.83(18) . .
C00Q C00D C00S 119.2(2) . .
C00Q C00D C00V 118.8(2) . .
C00S C00D C00V 121.8(2) . .
C00N C00E C00P 115.8(2) . .
C012 C00E C00N 123.3(2) . .
C012 C00E C00P 120.9(2) . .
C01A N00F C01C 120.5(4) . .
C01A N00F C01E 120.5(3) . .
C01E N00F C01C 118.9(4) . .
C010 C00G C00L 120.8(2) . .
C014 C00G C00L 120.1(2) . .
C014 C00G C010 119.0(2) . .
C00M C00H C013 120.8(2) . .
C015 C00H C00M 119.3(2) . .
C015 C00H C013 119.8(2) . .
C00R C00I C00K 120.6(2) . .
C00R C00I C00T 119.1(2) . .
C00T C00I C00K 120.1(2) . .
C00U C00J C00Y 118.1(2) . .
C00U C00J C012 122.2(2) . .
C00Y C00J C012 119.3(2) . .
O2 C00K C00I 117.3(2) . .
O1 C00K O2 124.7(2) . .
O1 C00K C00I 118.0(2) . .
O6 C00L O5 126.0(2) . .
O6 C00L C00G 117.2(2) . .
O5 C00L C00G 116.8(2) . .
C00H C00M H00M 119.9 . .
C016 C00M C00H 120.2(2) . .
C016 C00M H00M 119.9 . .
C00Z C00N C00E 121.6(2) . .
C016 C00N C00E 120.0(2) . .
C016 C00N C00Z 118.4(2) . .
C00W C00O C00X 119.1(2) . .
C00W C00O C012 120.8(2) . .
C00X C00O C012 119.9(2) . .
C011 C00P C00E 120.9(2) . .
C011 C00P C017 118.4(2) . .
C017 C00P C00E 120.7(2) . .
C00D C00Q H00Q 119.8 . .
C00X C00Q C00D 120.3(2) . .
C00X C00Q H00Q 119.8 . .
C00I C00R H00R 120.0 . .
C00Y C00R C00I 120.1(2) . .
C00Y C00R H00R 120.0 . .
C00D C00S H00S 120.0 . .
C00W C00S C00D 120.1(2) . .
C00W C00S H00S 120.0 . .
C00I C00T H00T 119.7 . .
C00U C00T C00I 120.7(2) . .
C00U C00T H00T 119.7 . .
C00J C00U H00U 119.7 . .
C00T C00U C00J 120.6(2) . .
C00T C00U H00U 119.7 . .
O7 C00V O8 123.7(2) . .
O7 C00V C00D 117.7(2) . .
O8 C00V C00D 118.7(2) . .
C00O C00W H00W 119.6 . .
C00S C00W C00O 120.7(2) . .
C00S C00W H00W 119.6 . .
C00O C00X H00X 119.8 . .
C00Q C00X C00O 120.4(2) . .
C00Q C00X H00X 119.8 . .
C00J C00Y H00Y 119.3 . .
C00R C00Y C00J 121.3(2) . .
C00R C00Y H00Y 119.3 . .
C00N C00Z H00Z 119.6 . .
C015 C00Z C00N 120.8(2) . .
C015 C00Z H00Z 119.6 . .
C00G C010 H010 119.7 . .
C011 C010 C00G 120.6(2) . .
C011 C010 H010 119.7 . .
C00P C011 H011 119.6 . .
C010 C011 C00P 120.8(2) . .
C010 C011 H011 119.6 . .
C00E C012 C00J 124.8(2) . .
C00E C012 C00O 122.2(2) . .
C00J C012 C00O 113.1(2) . .
O4 C013 Mn01 60.05(13) . 2_656
O4 C013 C00H 119.0(2) . .
O3 C013 Mn01 60.79(13) . 2_656
O3 C013 O4 120.4(2) . .
O3 C013 C00H 120.6(2) . .
C00H C013 Mn01 172.07(18) . 2_656
C00G C014 H014 119.8 . .
C017 C014 C00G 120.5(3) . .
C017 C014 H014 119.8 . .
C00H C015 H015 119.9 . .
C00Z C015 C00H 120.3(2) . .
C00Z C015 H015 119.9 . .
C00M C016 C00N 120.9(2) . .
C00M C016 H016 119.6 . .
C00N C016 H016 119.6 . .
C00P C017 H017 119.6 . .
C014 C017 C00P 120.7(2) . .
C014 C017 H017 119.6 . .
C01D N019 C01H 127.8(6) . .
C01D N019 C01I 119.0(6) . .
C01H N019 C01I 113.1(6) . .
O9 C01A N00F 123.8(3) . .
O9 C01A H01A 118.1 . .
N00F C01A H01A 118.1 . .
H01O C01B H01P 109.5 . .
H01O C01B H01Q 109.5 . .
H01P C01B H01Q 109.5 . .
C01F C01B H01O 109.5 . .
C01F C01B H01P 109.5 . .
C01F C01B H01Q 109.5 . .
N00F C01C H01B 109.5 . .
N00F C01C H01C 109.5 . .
N00F C01C H01D 109.5 . .
H01B C01C H01C 109.5 . .
H01B C01C H01D 109.5 . .
H01C C01C H01D 109.5 . .
O11 C01D H01H 120.7 . .
N019 C01D O11 118.7(6) . .
N019 C01D H01H 120.7 . .
N00F C01E H01E 109.5 . .
N00F C01E H01F 109.5 . .
N00F C01E H01G 109.5 . .
H01E C01E H01F 109.5 . .
H01E C01E H01G 109.5 . .
H01F C01E H01G 109.5 . .
N01G C01F C01B 176.1(7) . .
N019 C01H H01I 109.5 . .
N019 C01H H01J 109.5 . .
N019 C01H H01K 109.5 . .
H01I C01H H01J 109.5 . .
H01I C01H H01K 109.5 . .
H01J C01H H01K 109.5 . .
N019 C01I H01L 109.5 . .
N019 C01I H01M 109.5 . .
N019 C01I H01N 109.5 . .
H01L C01I H01M 109.5 . .
H01L C01I H01N 109.5 . .
H01M C01I H01N 109.5 . .
loop_
_geom_bond_atom_site_label_1
_geom_bond_atom_site_label_2
_geom_bond_distance
_geom_bond_site_symmetry_2
Mn01 O4 2.2796(18) 2_646
Mn01 O2 2.0811(19) .
Mn01 O9 2.2543(18) .
Mn01 O6 2.1240(19) 3_666
Mn01 O8 2.1666(19) 3_566
Mn01 O3 2.2965(19) 2_646
Mn01 C013 2.631(3) 2_646
Mn02 O4 2.1964(18) 4_575
Mn02 O1 2.1420(18) 4_675
Mn02 O9 2.3730(19) 4_675
Mn02 O10 2.1463(19) .
Mn02 O7 2.107(2) 1_655
Mn02 O5 2.1336(19) .
O4 Mn01 2.2796(18) 2_656
O4 Mn02 2.1964(18) 4_576
O4 C013 1.282(3) .
O2 C00K 1.261(3) .
O1 Mn02 2.1419(18) 4_476
O1 C00K 1.259(3) .
O9 Mn02 2.3729(19) 4_476
O9 C01A 1.249(3) .
O10 H10A 0.8779 .
O10 H10B 0.8774 .
O6 Mn01 2.1241(19) 3_666
O6 C00L 1.252(3) .
O7 Mn02 2.107(2) 1_455
O7 C00V 1.248(3) .
O8 Mn01 2.1667(19) 3_566
O8 C00V 1.269(3) .
O3 Mn01 2.2965(19) 2_656
O3 C013 1.251(3) .
O5 C00L 1.260(3) .
C00D C00Q 1.395(4) .
C00D C00S 1.396(4) .
C00D C00V 1.498(3) .
C00E C00N 1.492(4) .
C00E C00P 1.498(3) .
C00E C012 1.351(4) .
N00F C01A 1.315(4) .
N00F C01C 1.459(5) .
N00F C01E 1.452(5) .
C00G C00L 1.509(3) .
C00G C010 1.390(4) .
C00G C014 1.389(4) .
C00H C00M 1.396(4) .
C00H C013 1.495(3) .
C00H C015 1.395(4) .
C00I C00K 1.505(3) .
C00I C00R 1.392(4) .
C00I C00T 1.392(4) .
C00J C00U 1.395(4) .
C00J C00Y 1.403(4) .
C00J C012 1.492(4) .
C00M H00M 0.9300 .
C00M C016 1.385(4) .
C00N C00Z 1.402(4) .
C00N C016 1.397(4) .
C00O C00W 1.391(4) .
C00O C00X 1.393(4) .
C00O C012 1.495(3) .
C00P C011 1.394(4) .
C00P C017 1.396(4) .
C00Q H00Q 0.9300 .
C00Q C00X 1.385(4) .
C00R H00R 0.9300 .
C00R C00Y 1.379(4) .
C00S H00S 0.9300 .
C00S C00W 1.385(4) .
C00T H00T 0.9300 .
C00T C00U 1.385(4) .
C00U H00U 0.9300 .
C00W H00W 0.9300 .
C00X H00X 0.9300 .
C00Y H00Y 0.9300 .
C00Z H00Z 0.9300 .
C00Z C015 1.383(4) .
C010 H010 0.9300 .
C010 C011 1.384(4) .
C011 H011 0.9300 .
C013 Mn01 2.631(3) 2_656
C014 H014 0.9300 .
C014 C017 1.387(4) .
C015 H015 0.9300 .
C016 H016 0.9300 .
C017 H017 0.9300 .
O11 C01D 1.333(7) .
N019 C01D 1.273(5) .
N019 C01H 1.409(7) .
N019 C01I 1.497(8) .
C01A H01A 0.9300 .
C01B H01O 0.9600 .
C01B H01P 0.9600 .
C01B H01Q 0.9600 .
C01B C01F 1.418(7) .
C01C H01B 0.9600 .
C01C H01C 0.9600 .
C01C H01D 0.9600 .
C01D H01H 0.9300 .
C01E H01E 0.9600 .
C01E H01F 0.9600 .
C01E H01G 0.9600 .
C01F N01G 1.197(7) .
C01H H01I 0.9600 .
C01H H01J 0.9600 .
C01H H01K 0.9600 .
C01I H01L 0.9600 .
C01I H01M 0.9600 .
C01I H01N 0.9600 .
