#------------------------------------------------------------------------------
#$Date: 2020-02-14 00:18:46 +0200 (Fri, 14 Feb 2020) $
#$Revision: 248124 $
#$URL: file:///home/coder/svn-repositories/cod/cif/4/51/74/4517411.cif $
#------------------------------------------------------------------------------
#
# This file is available in the Crystallography Open Database (COD),
# http://www.crystallography.net/
#
# All data on this site have been placed in the public domain by the
# contributors.
#
data_4517411
loop_
_publ_author_name
'Chen, Wei'
'Liu, Haiyu'
'Fan, Ruiqing'
'Wang, Ping'
'Sun, Tiancheng'
'Yang, Yulin'
_publ_section_title
;
 Formation and Encapsulation of Lead Halide Perovskites in Lanthanide
 Metal-Organic Frameworks for Tunable Emission.
;
_journal_name_full               'ACS applied materials &amp; interfaces'
_journal_paper_doi               10.1021/acsami.9b23617
_journal_year                    2020
_chemical_formula_moiety         'C30 H24 Gd N O11'
_chemical_formula_sum            'C30 H24 Gd N O11'
_chemical_formula_weight         731.75
_space_group_crystal_system      triclinic
_space_group_IT_number           2
_space_group_name_Hall           '-P 1'
_space_group_name_H-M_alt        'P -1'
_atom_sites_solution_hydrogens   mixed
_atom_sites_solution_primary     direct
_audit_creation_date             2019-05-28
_audit_creation_method
;
Olex2 1.2
(compiled 2018.05.29 svn.r3508 for OlexSys, GUI svn.r5506)
;
_cell_angle_alpha                65.7300(10)
_cell_angle_beta                 72.3710(10)
_cell_angle_gamma                88.6320(10)
_cell_formula_units_Z            2
_cell_length_a                   10.9796(10)
_cell_length_b                   11.5210(10)
_cell_length_c                   12.5993(11)
_cell_measurement_reflns_used    7833
_cell_measurement_temperature    293(2)
_cell_measurement_theta_max      27.54
_cell_measurement_theta_min      2.23
_cell_volume                     1375.4(2)
_computing_cell_refinement       'SAINT v8.34A (Bruker, 2013)'
_computing_data_reduction        'SAINT v8.34A (Bruker, 2013)'
_computing_molecular_graphics    'Olex2 (Dolomanov et al., 2009)'
_computing_publication_material  'Olex2 (Dolomanov et al., 2009)'
_computing_structure_refinement  'XL (Sheldrick, 2008)'
_computing_structure_solution    'XS (Sheldrick, 2008)'
_diffrn_ambient_temperature      296.15
_diffrn_measured_fraction_theta_full 0.994
_diffrn_measured_fraction_theta_max 0.994
_diffrn_measurement_device_type  'CCD area detector'
_diffrn_measurement_method       'phi and omega scans'
_diffrn_radiation_monochromator  graphite
_diffrn_radiation_type           MoK\a
_diffrn_radiation_wavelength     0.71073
_diffrn_reflns_av_R_equivalents  0.0159
_diffrn_reflns_av_unetI/netI     0.0243
_diffrn_reflns_Laue_measured_fraction_full 0.994
_diffrn_reflns_Laue_measured_fraction_max 0.994
_diffrn_reflns_limit_h_max       13
_diffrn_reflns_limit_h_min       -12
_diffrn_reflns_limit_k_max       13
_diffrn_reflns_limit_k_min       -13
_diffrn_reflns_limit_l_max       14
_diffrn_reflns_limit_l_min       -14
_diffrn_reflns_number            9485
_diffrn_reflns_point_group_measured_fraction_full 0.994
_diffrn_reflns_point_group_measured_fraction_max 0.994
_diffrn_reflns_theta_full        24.986
_diffrn_reflns_theta_max         24.986
_diffrn_reflns_theta_min         1.959
_exptl_absorpt_coefficient_mu    2.477
_exptl_absorpt_correction_T_max  0.7456
_exptl_absorpt_correction_T_min  0.5412
_exptl_absorpt_correction_type   multi-scan
_exptl_absorpt_process_details
;
SADABS-2014/3 (Bruker,2014/3) was used for absorption correction.
wR2(int) was 0.0654 before and 0.0259 after correction.
The Ratio of minimum to maximum transmission is 0.7259.
The \l/2 correction factor is 0.00150.
;
_exptl_crystal_colour            yeloow
_exptl_crystal_density_diffrn    1.767
_exptl_crystal_description       block
_exptl_crystal_F_000             726
_exptl_crystal_size_max          0.3
_exptl_crystal_size_mid          0.26
_exptl_crystal_size_min          0.24
_refine_diff_density_max         0.849
_refine_diff_density_min         -0.889
_refine_diff_density_rms         0.130
_refine_ls_extinction_method     none
_refine_ls_goodness_of_fit_ref   1.175
_refine_ls_hydrogen_treatment    constr
_refine_ls_matrix_type           full
_refine_ls_number_parameters     402
_refine_ls_number_reflns         4806
_refine_ls_number_restraints     0
_refine_ls_restrained_S_all      1.175
_refine_ls_R_factor_all          0.0229
_refine_ls_R_factor_gt           0.0197
_refine_ls_shift/su_max          0.001
_refine_ls_shift/su_mean         0.000
_refine_ls_structure_factor_coef Fsqd
_refine_ls_weighting_details
'w=1/[\s^2^(Fo^2^)+(0.0390P)^2^+0.0350P] where P=(Fo^2^+2Fc^2^)/3'
_refine_ls_weighting_scheme      calc
_refine_ls_wR_factor_gt          0.0530
_refine_ls_wR_factor_ref         0.0628
_reflns_Friedel_coverage         0.000
_reflns_number_gt                4503
_reflns_number_total             4806
_reflns_threshold_expression     'I > 2\s(I)'
_cod_data_source_file            am9b23617_si_002.cif
_cod_data_source_block           Gdtpob
_cod_database_code               4517411
_shelx_shelxl_version_number     2018/3
_shelx_space_group_comment
;
The symmetry employed for this shelxl refinement is uniquely defined
by the following loop, which should always be used as a source of
symmetry information in preference to the above space-group names.
They are only intended as comments.
;
_shelx_estimated_absorpt_t_max   0.588
_shelx_estimated_absorpt_t_min   0.524
_olex2_refinement_description
;
1. Fixed Uiso
 At 1.2 times of:
  All C(H) groups
 At 1.5 times of:
  All C(H,H,H) groups, All O(H,H) groups
2. Others
 Sof(O11B)=Sof(H11C)=Sof(H11D)=1-FVAR(1)
 Sof(O11A)=Sof(H11A)=Sof(H11B)=FVAR(1)
3.a Rotating group:
 O11A(H11A,H11B), O11B(H11C,H11D)
3.b Aromatic/amide H refined with riding coordinates:
 C2(H2), C4(H4), C6(H6), C9(H9), C10(H10), C11(H11), C12(H12), C16(H16),
 C17(H17), C18(H18), C19(H19), C23(H23), C24(H24), C25(H25), C26(H26), C28(H28)
3.c Idealised Me refined as rotating group:
 C29(H29A,H29B,H29C), C30(H30A,H30B,H30C)
;
_shelx_res_file
;
TITL 1 in P1 #1 New: P-1
    1.res
    created by SHELXL-2018/3 at 16:12:08 on 28-May-2019
CELL 0.71073 10.9796 11.521 12.5993 65.73 72.371 88.632
ZERR 2 0.001 0.001 0.0011 0.001 0.001 0.001
LATT 1
SFAC C H Gd N O
UNIT 60 48 2 2 22

L.S. 5
PLAN  -20
SIZE 0.24 0.26 0.3
BOND $H
htab
CONF
fmap 2
acta 50
OMIT 0 50
REM <olex2.extras>
REM <HklSrc "%.\\1.hkl">
REM </olex2.extras>

WGHT    0.039000    0.035000
FVAR       0.14717   0.66539
GD1   3    0.321101    0.453758    0.519611    11.00000    0.01568    0.01717 =
         0.02004   -0.00723   -0.00434    0.00099
O1    5    0.516859    0.647712    0.025505    11.00000    0.03878    0.04200 =
         0.03312   -0.02558   -0.01911    0.01789
O2    5    0.550731    0.940780    0.200583    11.00000    0.02285    0.03118 =
         0.03528   -0.01831   -0.00669   -0.00170
O3    5    0.156126    0.852813    0.146946    11.00000    0.01780    0.05582 =
         0.04355   -0.03187   -0.00830    0.00495
O4    5    0.547403    0.530302    0.366420    11.00000    0.02243    0.02857 =
         0.02077   -0.01052   -0.00578   -0.00018
O5    5    0.398065    0.482117    0.303725    11.00000    0.01876    0.04512 =
         0.02716   -0.01621   -0.00479   -0.00223
O6    5    0.356610    0.674078    0.477326    11.00000    0.02650    0.02030 =
         0.04284   -0.01076   -0.01206    0.00102
O7    5    0.564704    0.726119    0.444223    11.00000    0.02678    0.01820 =
         0.04286   -0.01151   -0.01361    0.00564
O8    5   -0.168586    0.616128    0.292330    11.00000    0.02413    0.05594 =
         0.03194   -0.01844    0.00253   -0.01154
O9    5    0.034113    0.591955    0.286500    11.00000    0.04119    0.05743 =
         0.03968   -0.00627   -0.01519    0.01164
O10   5    0.181551    0.300024    0.513048    11.00000    0.03729    0.04117 =
         0.04797   -0.02304   -0.01809   -0.00404
PART 1
O11A  5    0.141437    0.557132    0.468282    21.00000    0.04527    0.04435 =
         0.07914   -0.03632   -0.04181    0.02596
AFIX   7
H11A  2    0.128691    0.546082    0.407797    21.00000   -1.50000
H11B  2    0.153696    0.639428    0.446744    21.00000   -1.50000
AFIX   0
PART 0
PART 2
O11B  5    0.185025    0.599439    0.406663   -21.00000    0.04291    0.01883 =
         0.03047   -0.00291   -0.01465   -0.00189
AFIX   7
H11C  2    0.209114    0.678119    0.387225   -21.00000   -1.50000
H11D  2    0.106585    0.579638    0.454752   -21.00000   -1.50000
AFIX   0
PART 0
N1    4    0.030596    0.237774    0.453489    11.00000    0.02993    0.04243 =
         0.04494   -0.02429   -0.01133   -0.00203
C1    1    0.466964    0.731341    0.077368    11.00000    0.02941    0.02705 =
         0.01862   -0.00843   -0.00626    0.00343
C2    1    0.538018    0.794898    0.115234    11.00000    0.01952    0.02848 =
         0.02468   -0.00919   -0.00671    0.00366
AFIX  43
H2    2    0.623607    0.782750    0.108452    11.00000   -1.20000
AFIX   0
C3    1    0.476711    0.877879    0.163962    11.00000    0.02444    0.01887 =
         0.01997   -0.00464   -0.00565   -0.00300
C4    1    0.350483    0.899027    0.171733    11.00000    0.02223    0.02935 =
         0.02899   -0.01525   -0.00638    0.00407
AFIX  43
H4    2    0.310992    0.955384    0.203504    11.00000   -1.20000
AFIX   0
C5    1    0.284114    0.833840    0.130806    11.00000    0.01767    0.03186 =
         0.02554   -0.00990   -0.00229   -0.00107
C6    1    0.340858    0.749779    0.083174    11.00000    0.02786    0.02922 =
         0.02659   -0.01407   -0.00857   -0.00078
AFIX  43
H6    2    0.295495    0.706950    0.055872    11.00000   -1.20000
AFIX   0
C7    1    0.613963    0.576131    0.055991    11.00000    0.02461    0.02699 =
         0.02634   -0.01500   -0.00731    0.00361
C8    1    0.616525    0.511131    0.176353    11.00000    0.02023    0.02283 =
         0.02797   -0.01464   -0.00646    0.00062
C9    1    0.717190    0.437237    0.195293    11.00000    0.03401    0.02937 =
         0.03426   -0.01587   -0.01218    0.00720
AFIX  43
H9    2    0.722343    0.395442    0.274309    11.00000   -1.20000
AFIX   0
C10   1    0.809484    0.425094    0.098487    11.00000    0.02976    0.04228 =
         0.05042   -0.02696   -0.00984    0.01453
AFIX  43
H10   2    0.874896    0.374094    0.112838    11.00000   -1.20000
AFIX   0
C11   1    0.803901    0.489070   -0.019415    11.00000    0.03186    0.04724 =
         0.04083   -0.03016    0.00285    0.00634
AFIX  43
H11   2    0.865252    0.480684   -0.084617    11.00000   -1.20000
AFIX   0
C12   1    0.707579    0.565214   -0.040421    11.00000    0.03959    0.03968 =
         0.02656   -0.01946   -0.00411    0.00363
AFIX  43
H12   2    0.705421    0.609768   -0.120240    11.00000   -1.20000
AFIX   0
C13   1    0.513827    0.509771    0.286582    11.00000    0.02138    0.01827 =
         0.02139   -0.00887   -0.00631    0.00275
C14   1    0.482548    0.980998    0.291120    11.00000    0.02716    0.02398 =
         0.03534   -0.01510   -0.01473    0.00262
C15   1    0.430006    0.890489    0.411745    11.00000    0.02071    0.02307 =
         0.03323   -0.01375   -0.01164    0.00294
C16   1    0.360244    0.931575    0.498880    11.00000    0.02972    0.02866 =
         0.03557   -0.01526   -0.01095    0.00261
AFIX  43
H16   2    0.322751    0.871921    0.579825    11.00000   -1.20000
AFIX   0
C17   1    0.345254    1.060357    0.467535    11.00000    0.03789    0.03358 =
         0.05157   -0.02966   -0.01873    0.01180
AFIX  43
H17   2    0.297656    1.086831    0.526686    11.00000   -1.20000
AFIX   0
C18   1    0.401941    1.148427    0.347468    11.00000    0.05460    0.02317 =
         0.06192   -0.02106   -0.02988    0.01265
AFIX  43
H18   2    0.394590    1.235065    0.326490    11.00000   -1.20000
AFIX   0
C19   1    0.469628    1.109822    0.257683    11.00000    0.04765    0.02040 =
         0.04038   -0.00862   -0.02015    0.00146
AFIX  43
H19   2    0.505692    1.169384    0.176477    11.00000   -1.20000
AFIX   0
C20   1    0.452750    0.751833    0.446470    11.00000    0.02776    0.01862 =
         0.02570   -0.00830   -0.00899    0.00358
C21   1    0.100019    0.841323    0.065725    11.00000    0.01830    0.03303 =
         0.03470   -0.01790   -0.00600    0.00453
C22   1   -0.006203    0.750347    0.112004    11.00000    0.01687    0.03172 =
         0.02820   -0.01536   -0.00339    0.00597
C23   1   -0.072798    0.756290    0.031957    11.00000    0.02436    0.04263 =
         0.03829   -0.02037   -0.01072    0.00417
AFIX  43
H23   2   -0.146426    0.699421    0.061218    11.00000   -1.20000
AFIX   0
C24   1   -0.032308    0.844269   -0.089396    11.00000    0.04040    0.05791 =
         0.03865   -0.02108   -0.01976    0.01146
AFIX  43
H24   2   -0.078053    0.846174   -0.141194    11.00000   -1.20000
AFIX   0
C25   1    0.077143    0.930081   -0.133974    11.00000    0.04594    0.04969 =
         0.03070   -0.00304   -0.00821    0.00908
AFIX  43
H25   2    0.106384    0.988004   -0.216366    11.00000   -1.20000
AFIX   0
C26   1    0.142516    0.929236   -0.055674    11.00000    0.02765    0.03427 =
         0.04240   -0.00588   -0.00113   -0.00332
AFIX  43
H26   2    0.214836    0.987699   -0.084741    11.00000   -1.20000
AFIX   0
C27   1   -0.048280    0.646019    0.240656    11.00000    0.02645    0.03723 =
         0.02825   -0.01682   -0.00506    0.00130
C28   1    0.131619    0.311657    0.434221    11.00000    0.03418    0.03447 =
         0.04001   -0.01881   -0.00878    0.00447
AFIX  43
H28   2    0.167907    0.377089    0.355939    11.00000   -1.20000
AFIX   0
C29   1   -0.027116    0.263391    0.357055    11.00000    0.06458    0.07935 =
         0.05877   -0.02523   -0.02830   -0.00942
AFIX 137
H29A  2   -0.112866    0.284766    0.382715    11.00000   -1.50000
H29B  2   -0.030051    0.188540    0.341899    11.00000   -1.50000
H29C  2    0.023584    0.333727    0.283082    11.00000   -1.50000
AFIX   0
C30   1   -0.035061    0.139609    0.572599    11.00000    0.07752    0.07432 =
         0.05199   -0.01611   -0.01574   -0.02833
AFIX 137
H30A  2   -0.005536    0.058834    0.578194    11.00000   -1.50000
H30B  2   -0.125939    0.134705    0.585628    11.00000   -1.50000
H30C  2   -0.017847    0.159295    0.634048    11.00000   -1.50000
AFIX   0
HKLF 4




REM  1 in P1 #1 New: P-1
REM wR2 = 0.0628, GooF = S = 1.175, Restrained GooF = 1.175 for all data
REM R1 = 0.0197 for 4503 Fo > 4sig(Fo) and 0.0229 for all 4806 data
REM 402 parameters refined using 0 restraints

END

WGHT      0.0363      0.0360

REM Instructions for potential hydrogen bonds
HTAB O11A O9
EQIV $3 -x+1, -y+2, -z
HTAB C19 O1_$3
HTAB C26 O2_$3
HTAB C28 O5

REM Highest difference peak  0.849,  deepest hole -0.889,  1-sigma level  0.130
Q1    1   0.0398  0.6469  0.4386  11.00000  0.05    0.85
Q2    1   0.2895  0.4844  0.4568  11.00000  0.05    0.59
Q3    1   0.3582  0.4248  0.5896  11.00000  0.05    0.59
Q4    1   0.0894  0.2317  0.5552  11.00000  0.05    0.56
Q5    1   0.1106  0.6217  0.3606  11.00000  0.05    0.53
Q6    1   0.2564  0.3691  0.5326  11.00000  0.05    0.48
Q7    1   0.0379  0.6959  0.3302  11.00000  0.05    0.45
Q8    1   0.0861  0.6628  0.5026  11.00000  0.05    0.44
Q9    1   0.0932  0.4576  0.6663  11.00000  0.05    0.44
Q10   1   0.2753  0.5440  0.4767  11.00000  0.05    0.43
Q11   1   0.3490  0.3591  0.5536  11.00000  0.05    0.43
Q12   1  -0.0798  0.0676  0.5736  11.00000  0.05    0.42
Q13   1   0.0482  0.4983  0.5715  11.00000  0.05    0.42
Q14   1  -0.0145  0.6842  0.1573  11.00000  0.05    0.41
Q15   1   0.0961  0.3006  0.3440  11.00000  0.05    0.39
Q16   1   0.1082  0.6664  0.2671  11.00000  0.05    0.37
Q17   1  -0.0359  0.7693  0.0883  11.00000  0.05    0.37
Q18   1   0.0046  0.7901  0.1185  11.00000  0.05    0.36
Q19   1   0.3112  0.3809  0.5362  11.00000  0.05    0.36
Q20   1   0.0210  0.2172  0.4098  11.00000  0.05    0.36
;
_shelx_res_checksum              88993
_shelx_hkl_file
;
  -1   0   0   -0.08    0.01
  -2   0   0   54.63    1.00
   2   0   0   52.47    1.06
  -3   0   0  133.10    2.35
   3   0   0  131.83    2.45
  -4   0   0   19.29    0.54
   4   0   0   20.46    0.65
  -5   0   0   81.17    1.62
   5   0   0   81.78    1.80
  -6   0   0  308.15    5.40
   6   0   0  311.24    5.63
  -7   0   0    2.03    0.24
   7   0   0    1.62    0.31
  -8   0   0  108.52    2.24
   8   0   0  107.32    2.51
   9   0   0   28.95    1.17
  10   0   0   -0.19    0.27
  11   0   0   22.23    1.19
  12   0   0    7.86    0.80
  13   0   0    6.32    0.98
  13  -1   0   -0.12    0.36
  12  -1   0   24.24    1.25
  11  -1   0   47.87    1.68
  10  -1   0    1.98    0.42
   9  -1   0   38.62    1.35
   8  -1   0   84.84    2.08
  -8   1   0   82.82    1.81
   7  -1   0   10.33    0.62
  -7   1   0   11.09    0.47
   6  -1   0  139.13    2.83
  -6   1   0  141.54    2.63
   5  -1   0   56.18    1.34
  -5   1   0   57.38    1.20
   4  -1   0    8.31    0.40
  -4   1   0    8.10    0.31
   3  -1   0  108.60    2.09
  -3   1   0  115.65    2.00
   2  -1   0  183.50    3.13
  -2   1   0  181.00    3.07
   1  -1   0   59.01    1.03
  -1   1   0   55.68    1.06
  -1  -1   0   19.15    0.47
   1   1   0   20.23    0.44
   1   1   0   16.36    0.38
  -2  -1   0  341.24    5.71
   2   1   0  339.42    5.72
   2   1   0  335.88    5.71
  -3  -1   0  230.81    3.94
   3   1   0  217.99    3.86
   3   1   0  226.86    3.99
  -4  -1   0   12.18    0.45
  -5  -1   0   18.91    0.62
   5   1   0   19.20    0.73
  -6  -1   0  110.61    2.23
   6   1   0  110.93    2.41
  -7  -1   0   21.74    0.74
   7   1   0   23.45    0.94
  -8  -1   0   72.25    1.69
   8   1   0   74.01    1.96
   9   1   0    1.92    0.42
  10   1   0   36.38    1.43
  11   1   0   49.52    1.80
  12   1   0    0.31    0.36
  13  -2   0    0.60    0.38
  12  -2   0   38.96    1.55
  11  -2   0   25.17    1.20
  10  -2   0    0.10    0.27
   9  -2   0   49.27    1.53
   8  -2   0   27.08    1.02
  -8   2   0   27.90    0.97
   7  -2   0   49.17    1.35
  -7   2   0   49.11    1.17
   6  -2   0  192.84    3.69
  -6   2   0  196.16    3.50
   5  -2   0    4.95    0.35
  -5   2   0    5.19    0.29
   4  -2   0  140.35    2.62
   3  -2   0   69.38    1.36
   3  -2   0   67.07    1.32
   2  -2   0  125.84    2.24
   2  -2   0  126.05    2.21
  -2   2   0  125.56    2.32
   1  -2   0  850.37   14.61
   1  -2   0  892.07   14.52
  -1   2   0  867.52   14.69
   0  -2   0  234.97    4.02
   0  -2   0  238.57    3.91
   0   2   0  223.39    3.87
   0   2   0  233.62    3.92
  -1  -2   0    0.61    0.16
   1   2   0    0.20    0.09
   1   2   0    0.17    0.08
  -2  -2   0  305.18    5.31
   2   2   0  303.99    5.23
   2   2   0  308.66    5.12
  -3  -2   0  113.99    2.26
   3   2   0  118.17    2.26
   3   2   0  117.25    2.11
  -4  -2   0    0.61    0.16
   4   2   0    0.60    0.13
   4   2   0    0.48    0.19
  -5  -2   0  245.11    4.45
   5   2   0  243.12    4.55
  -6  -2   0    8.88    0.49
   6   2   0    9.21    0.61
  -7  -2   0   24.88    0.86
   7   2   0   25.83    1.02
  -8  -2   0   61.19    1.55
   8   2   0   59.63    1.77
   9   2   0    0.34    0.34
  10   2   0   34.81    1.45
  11   2   0   56.98    1.97
  12   2   0    0.43    0.38
  13  -3   0    2.19    0.49
  12  -3   0   45.75    1.67
 -12   3   0   44.20    1.79
  11  -3   0   12.32    0.89
 -11   3   0   15.66    1.04
  10  -3   0    5.06    0.57
 -10   3   0    4.65    0.62
   9  -3   0   53.38    1.60
  -9   3   0   54.32    1.73
   8  -3   0    0.17    0.23
   7  -3   0   33.68    1.06
   7  -3   0   33.28    0.92
   6  -3   0  101.94    2.04
   6  -3   0  101.81    2.17
   5  -3   0    0.07    0.09
   5  -3   0    0.10    0.14
  -5   3   0    0.10    0.17
   4  -3   0  123.74    2.34
   4  -3   0  127.79    2.38
  -4   3   0  123.64    2.52
   3  -3   0  214.78    3.76
   3  -3   0  215.91    3.72
  -3   3   0  211.42    3.89
   2  -3   0  230.01    3.91
   2  -3   0  227.82    4.01
  -2   3   0  231.73    4.08
   1  -3   0  175.21    3.27
   1  -3   0  190.59    3.13
  -1   3   0  182.92    3.25
   0  -3   0  283.08    4.61
   0  -3   0  274.48    4.82
   0   3   0  269.39    4.66
   0   3   0  269.71    4.60
  -1  -3   0    0.24    0.15
   1   3   0    0.30    0.09
   1   3   0    0.29    0.09
  -2  -3   0  486.14    8.29
   2   3   0  481.55    8.13
   2   3   0  478.93    8.06
  -3  -3   0   40.41    1.10
   3   3   0   40.17    0.88
   3   3   0   39.80    1.02
  -4  -3   0   47.33    1.25
   4   3   0   47.17    1.23
   4   3   0   46.57    1.04
  -5  -3   0  124.42    2.60
   5   3   0  129.86    2.66
   5   3   0  119.57    2.37
  -6  -3   0    3.04    0.36
   6   3   0    2.34    0.36
  -7  -3   0   92.52    2.13
   7   3   0   90.88    2.28
  -8  -3   0   87.59    2.11
   8   3   0   88.08    2.32
  -9  -3   0   -0.10    0.18
   9   3   0   -0.04    0.33
  10   3   0   57.05    1.94
  11   3   0   22.81    1.30
  12   3   0    4.80    0.70
  13  -4   0    5.94    0.72
 -13   4   0    6.95    0.91
  12  -4   0   42.47    1.59
 -12   4   0   43.04    1.81
  11  -4   0    0.41    0.33
 -11   4   0    1.55    0.50
  10  -4   0   21.65    1.02
 -10   4   0   22.16    1.20
   9  -4   0   67.22    1.83
  -9   4   0   69.66    2.06
   8  -4   0    1.66    0.32
  -8   4   0    2.01    0.43
   7  -4   0   54.02    1.33
   7  -4   0   56.21    1.45
  -7   4   0   53.63    1.62
   6  -4   0   22.71    0.74
   6  -4   0   23.78    0.80
  -6   4   0   22.11    0.93
   5  -4   0   26.55    0.79
   5  -4   0   25.99    0.77
  -5   4   0   25.22    0.93
   4  -4   0  184.80    3.30
   4  -4   0  181.66    3.35
  -4   4   0  179.86    3.52
   3  -4   0   32.54    0.78
   3  -4   0   32.44    0.87
  -3   4   0   33.87    0.96
   2  -4   0  335.13    5.94
   2  -4   0  343.85    5.76
  -2   4   0  346.60    5.97
   1  -4   0  306.57    5.16
   1  -4   0  301.92    5.41
  -1   4   0  308.62    5.32
   0  -4   0   48.49    0.95
   0   4   0   39.31    0.91
   0   4   0   44.29    1.00
  -1  -4   0   12.91    0.60
   1   4   0   14.31    0.47
   1   4   0   15.31    0.47
  -2  -4   0  295.65    5.39
   2   4   0  294.26    5.17
   2   4   0  296.94    5.06
  -3  -4   0   37.17    1.15
   3   4   0   38.82    1.05
   3   4   0   39.88    0.91
  -4  -4   0  192.29    3.78
   4   4   0  191.58    3.68
   4   4   0  189.96    3.43
  -5  -4   0   91.19    2.15
   5   4   0   93.85    2.15
   5   4   0   89.36    1.85
  -6  -4   0    0.05    0.16
   6   4   0    0.00    0.13
   6   4   0   -0.09    0.24
  -7  -4   0   53.87    1.55
   7   4   0   51.47    1.65
  -8  -4   0   62.53    1.74
   8   4   0   58.69    1.87
  -9  -4   0    0.19    0.23
   9   4   0    0.42    0.40
  10   4   0   49.45    1.86
  11   4   0    9.20    0.94
  13  -5   0   16.95    1.45
 -13   5   0   16.64    1.30
  12  -5   0   20.95    1.13
 -12   5   0   21.08    1.35
  11  -5   0    0.73    0.36
 -11   5   0    0.59    0.45
  10  -5   0   61.13    1.80
 -10   5   0   60.71    2.06
   9  -5   0   66.30    1.81
  -9   5   0   65.95    2.06
   8  -5   0    8.82    0.62
  -8   5   0   10.44    0.83
   7  -5   0   87.53    1.96
   7  -5   0   82.60    1.88
  -7   5   0   82.34    2.21
   6  -5   0   40.56    1.12
   6  -5   0   40.83    1.12
  -6   5   0   40.23    1.34
   5  -5   0   37.99    1.01
   5  -5   0   38.86    1.07
  -5   5   0   39.27    1.24
   4  -5   0  238.42    4.17
   4  -5   0  235.15    4.30
  -4   5   0  230.71    4.44
   3  -5   0    0.82    0.15
   3  -5   0    0.89    0.21
  -3   5   0    1.12    0.25
   2  -5   0  240.64    4.55
   2  -5   0  254.95    4.31
  -2   5   0  250.83    4.53
   1  -5   0  411.43    7.33
   1  -5   0  412.78    7.00
  -1   5   0  422.89    7.18
   0  -5   0   59.70    1.55
   0   5   0   64.91    1.39
   0   5   0   61.36    1.29
  -1  -5   0   35.11    1.11
   1   5   0   33.03    0.86
   1   5   0   34.46    0.87
  -2  -5   0  147.00    3.11
   2   5   0  149.49    2.76
   2   5   0  150.78    2.86
  -3  -5   0    0.59    0.26
   3   5   0    0.40    0.15
   3   5   0    0.40    0.20
  -4  -5   0   67.89    1.80
   4   5   0   67.16    1.68
   4   5   0   65.25    1.43
  -5  -5   0   30.19    1.12
   5   5   0   29.55    0.85
   5   5   0   29.57    1.09
  -6  -5   0   14.37    0.80
   6   5   0   14.71    0.88
  -7  -5   0   55.51    1.69
   7   5   0   56.83    1.77
  -8  -5   0   13.99    0.85
   8   5   0   13.28    0.98
  -9  -5   0   12.36    0.81
   9   5   0   10.96    1.01
  10   5   0   35.51    1.63
  11   5   0    1.89    0.55
 -12   6   0   15.81    1.28
 -11   6   0    0.26    0.43
  10  -6   0   31.70    1.39
 -10   6   0   30.34    1.51
   9  -6   0    8.03    0.66
  -9   6   0    6.69    0.77
   8  -6   0   39.15    1.24
  -8   6   0   40.64    1.56
   7  -6   0   69.81    1.88
   7  -6   0   72.64    1.74
  -7   6   0   71.51    2.07
   6  -6   0    3.28    0.34
   6  -6   0    3.60    0.40
  -6   6   0    3.01    0.48
   5  -6   0   45.43    1.26
   5  -6   0   43.95    1.12
  -5   6   0   45.01    1.41
   4  -6   0  106.11    2.28
   4  -6   0  102.80    2.06
  -4   6   0  102.27    2.36
   3  -6   0    5.02    0.48
   3  -6   0    5.32    0.32
  -3   6   0    6.24    0.50
   2  -6   0  119.19    2.61
   2  -6   0  121.43    2.29
  -2   6   0  122.70    2.52
   1  -6   0  111.73    2.52
   1  -6   0  115.41    2.17
  -1   6   0  114.77    2.35
  -1   6   0  112.95    2.16
   0   6   0   29.72    0.86
   0   6   0   25.03    0.73
  -1  -6   0   97.34    2.30
   1   6   0   94.72    1.95
   1   6   0   95.11    1.97
  -2  -6   0   90.61    2.25
   2   6   0   89.96    1.95
   2   6   0   91.89    1.88
  -3  -6   0   41.10    1.38
   3   6   0   41.34    1.04
   3   6   0   40.66    1.18
  -4  -6   0   85.24    2.20
   4   6   0   81.58    1.76
   4   6   0   83.12    2.02
  -5  -6   0   31.23    1.23
   5   6   0   30.57    1.17
  -6  -6   0   28.68    1.20
   6   6   0   29.55    1.24
  -7  -6   0   30.52    1.26
   7   6   0   30.30    1.36
  -8  -6   0    1.13    0.35
   8   6   0    0.45    0.39
  -9  -6   0   63.89    2.02
   9   6   0   66.84    2.21
  10   6   0   50.09    1.98
  11   6   0   -0.35    0.52
 -12   7   0    7.74    1.35
 -11   7   0   13.39    1.20
 -10   7   0   61.20    2.17
  -9   7   0    1.54    0.49
  -8   7   0   57.04    1.92
  -7   7   0  149.67    3.48
   6  -7   0    0.48    0.28
  -6   7   0    0.68    0.39
   5  -7   0   47.86    1.24
   5  -7   0   49.33    1.43
  -5   7   0   49.46    1.54
   4  -7   0   38.53    1.00
   4  -7   0   36.00    1.20
  -4   7   0   36.96    1.26
   3  -7   0   15.01    0.55
   3  -7   0   16.29    0.82
  -3   7   0   16.06    0.78
   2  -7   0  229.01    4.54
   2  -7   0  228.76    4.09
  -2   7   0  228.93    4.37
   1  -7   0   85.61    1.77
   1  -7   0   86.41    2.17
  -1   7   0   87.15    1.78
  -1   7   0   87.85    1.98
   0  -7   0   33.85    1.23
   0   7   0   33.35    0.92
   0   7   0   33.92    1.02
  -1  -7   0   88.59    2.29
   1   7   0   91.18    1.94
   1   7   0   89.17    1.95
  -2  -7   0   25.50    1.12
   2   7   0   25.89    0.83
   2   7   0   25.29    0.89
  -3  -7   0   17.22    0.96
   3   7   0   16.55    0.65
   3   7   0   17.29    0.80
  -4  -7   0   41.72    1.51
   4   7   0   40.83    1.35
  -5  -7   0    0.26    0.30
   5   7   0   -0.23    0.33
  -6  -7   0   52.30    1.75
   6   7   0   48.14    1.67
  -7  -7   0   39.19    1.52
   7   7   0   36.52    1.52
  -8  -7   0    0.40    0.33
   8   7   0    0.41    0.45
  -9  -7   0   23.88    1.26
   9   7   0   23.11    1.37
  10   7   0   16.40    1.33
 -11   8   0    5.76    0.86
 -10   8   0    9.06    0.98
  -9   8   0    2.22    0.57
  -8   8   0   48.84    1.82
  -7   8   0   62.38    2.01
   6  -8   0   -0.49    0.26
  -6   8   0   -0.02    0.34
   5  -8   0   51.64    1.58
  -5   8   0   47.33    1.59
   4  -8   0    7.68    0.67
  -4   8   0    8.80    0.71
   3  -8   0   41.38    1.45
  -3   8   0   42.01    1.36
   2  -8   0  165.62    3.62
  -2   8   0  167.61    3.45
   1  -8   0   26.06    1.14
  -1   8   0   25.72    0.99
   0  -8   0   44.32    1.49
   0   8   0   33.50    1.13
  -1  -8   0   69.62    2.04
   1   8   0   70.26    1.71
   1   8   0   73.74    1.73
  -2  -8   0   17.29    1.00
   2   8   0   15.87    0.70
   2   8   0   15.45    0.76
  -3  -8   0   61.30    1.94
   3   8   0   60.43    1.93
   3   8   0   62.00    1.69
  -4  -8   0  100.83    2.70
   4   8   0   97.52    2.41
  -5  -8   0   13.85    1.00
   5   8   0   14.41    0.97
  -6  -8   0   58.63    1.98
   6   8   0   56.72    1.90
  -7  -8   0   32.91    1.47
   7   8   0   30.55    1.48
  -8  -8   0    5.82    0.74
   8   8   0    3.80    0.65
  -9  -8   0   27.60    1.41
   9   8   0   26.33    1.55
 -10   9   0   10.30    1.04
  -9   9   0    5.70    0.80
  -8   9   0   26.11    1.40
  -7   9   0    9.35    0.91
   6  -9   0   47.06    1.61
  -6   9   0   44.81    1.66
   5  -9   0   68.29    2.01
  -5   9   0   65.59    1.99
   4  -9   0   18.84    1.08
  -4   9   0   18.96    1.03
   3  -9   0   65.84    2.00
  -3   9   0   67.75    1.90
   2  -9   0   76.99    2.21
  -2   9   0   77.49    2.02
   1  -9   0    0.62    0.35
  -1   9   0    0.08    0.28
   0  -9   0   39.15    1.54
   0   9   0   40.17    1.27
  -1  -9   0   65.69    2.06
   1   9   0   64.77    1.69
  -2  -9   0    0.63    0.36
  -3  -9   0   56.05    1.93
  -4  -9   0   29.57    1.41
  -5  -9   0   18.32    1.16
  -6  -9   0   33.69    1.53
   6   9   0   27.82    1.73
  -7  -9   0    9.47    0.95
   7   9   0    7.70    0.86
  -8  -9   0   14.09    1.09
   8   9   0   13.53    1.21
  -9  -9   0   32.81    1.62
   9   9   0   35.67    1.78
  -9  10   0   15.09    1.22
  -8  10   0   42.01    1.82
  -7  10   0   11.02    1.01
   6 -10   0   22.45    1.24
  -6  10   0   22.60    1.22
   5 -10   0   47.09    1.73
  -5  10   0   46.95    1.69
   4 -10   0    2.07    0.52
  -4  10   0    1.06    0.46
   3 -10   0   88.39    2.51
  -3  10   0   86.08    2.31
   2 -10   0   47.55    1.77
  -2  10   0   47.38    1.58
   1 -10   0    0.56    0.40
  -1  10   0   -0.49    0.27
   0 -10   0   99.94    2.71
   0  10   0   87.71    2.26
  -1 -10   0   20.33    1.22
   1  10   0   19.53    0.98
  -2 -10   0    0.40    0.40
  -3 -10   0   63.79    2.17
  -4 -10   0    1.22    0.47
  -5 -10   0   29.73    1.53
  -6 -10   0   30.52    1.55
  -7 -10   0    2.12    0.57
  -8  11   0   32.98    1.65
  -7  11   0    0.39    0.46
  -6  11   0   15.23    1.09
   5 -11   0   45.09    1.79
  -5  11   0   45.28    1.72
   4 -11   0    2.12    0.56
  -4  11   0    2.18    0.53
   3 -11   0   43.32    1.75
  -3  11   0   41.19    1.56
   2 -11   0   10.27    0.99
  -2  11   0   10.18    0.82
   1 -11   0    5.73    0.76
  -1  11   0    4.92    0.59
   0 -11   0   38.13    1.67
   0  11   0   32.92    1.51
  -1 -11   0   22.09    1.34
  -2 -11   0   22.71    1.37
  -3 -11   0   32.77    1.62
  -4 -11   0    0.15    0.39
  -5 -11   0   22.19    1.41
  -6 -11   0   27.99    1.98
  -6  12   0   22.64    1.36
   5 -12   0    8.96    0.99
  -5  12   0   10.08    0.98
   4 -12   0    9.44    1.00
  -4  12   0    8.56    0.87
   3 -12   0   23.82    1.44
  -3  12   0   25.32    1.29
   2 -12   0    7.27    0.91
  -2  12   0    6.21    0.74
   1 -12   0   20.23    1.34
   0 -12   0   22.19    1.40
  -1 -12   0    2.07    0.60
  -2 -12   0   16.66    1.25
  -3 -12   0    7.01    0.93
   5 -13   0    1.91    0.66
  -5  13   0    1.65    0.66
   4 -13   0   23.08    1.47
  -4  13   0   22.56    1.33
   3 -13   0   26.56    1.59
  -3  13   0   26.70    1.39
   2 -13   0   -0.32    0.40
   1 -13   0   14.61    1.28
   0 -13   0   17.36    1.52
  -3  13  -1   18.28    1.22
  -4  13  -1   12.37    1.14
  -2 -12   1   44.74    2.03
  -1 -12   1    0.63    0.47
   0 -12   1   35.80    1.77
  -1  12  -1   13.76    1.23
   1 -12   1   11.94    1.15
  -2  12  -1    1.02    0.44
   2 -12   1    2.02    0.62
  -3  12  -1   28.06    1.40
   3 -12   1   29.17    1.57
  -4  12  -1   12.82    1.05
   4 -12   1   14.19    1.23
  -5  12  -1    7.74    0.89
   5 -12   1    7.02    0.92
  -6  12  -1   24.21    1.41
   6 -12   1   23.25    1.48
  -5 -11   1   20.90    1.78
  -4 -11   1    0.44    0.43
  -3 -11   1   19.15    1.31
  -2 -11   1   11.94    1.11
  -1 -11   1    5.26    0.77
   0  11  -1   44.70    1.63
   0 -11   1   47.87    1.93
  -1  11  -1   19.06    1.07
   1 -11   1   20.31    1.34
  -2  11  -1   14.52    0.98
   2 -11   1   15.70    1.16
  -3  11  -1   29.80    1.35
   3 -11   1   28.53    1.48
  -4  11  -1    6.74    0.80
   4 -11   1    7.23    0.86
  -5  11  -1   14.74    1.06
   5 -11   1   13.31    1.13
  -6  11  -1   26.04    1.37
   6 -11   1   23.97    1.43
  -7  11  -1    0.06    0.45
  -8  11  -1   38.43    2.60
  -7 -10   1   -0.21    0.37
  -6 -10   1   30.26    1.57
  -5 -10   1   14.01    1.14
  -4 -10   1    1.03    0.45
  -3 -10   1   40.03    1.73
  -2 -10   1   10.87    1.01
   1  10  -1   40.63    1.39
  -1 -10   1   44.04    1.76
   0  10  -1   48.62    1.57
   0 -10   1   49.15    1.88
  -1  10  -1    5.85    0.65
   1 -10   1    5.25    0.72
  -2  10  -1   47.75    1.62
   2 -10   1   47.59    1.82
  -3  10  -1   59.84    1.90
   3 -10   1   65.47    2.13
  -4  10  -1    2.54    0.53
   4 -10   1    1.69    0.51
  -5  10  -1   36.86    1.52
   5 -10   1   34.40    1.53
  -6  10  -1   18.93    1.15
   6 -10   1   15.93    1.13
  -7  10  -1    0.75    0.47
  -8  10  -1   37.05    1.70
  -9  10  -1   15.80    1.24
  -8  -9   1    4.85    0.74
  -7  -9   1    5.61    0.79
  -6  -9   1   49.66    1.93
  -5  -9   1   21.29    1.27
  -4  -9   1    6.39    0.79
  -3  -9   1   22.94    1.27
   2   9  -1    1.13    0.32
  -2  -9   1    1.35    0.45
   1   9  -1   32.78    1.15
  -1  -9   1   31.75    1.43
   0   9  -1   91.05    2.24
   0  -9   1   92.48    2.57
  -1   9  -1    0.90    0.36
   1  -9   1    1.43    0.44
  -2   9  -1   88.73    2.26
   2  -9   1   86.53    2.45
  -3   9  -1   44.36    1.50
   3  -9   1   42.55    1.62
  -4   9  -1    0.12    0.36
   4  -9   1   -0.11    0.33
  -5   9  -1   85.53    2.36
   5  -9   1   88.81    2.44
  -6   9  -1   25.47    1.27
   6  -9   1   26.55    1.26
  -7   9  -1   13.89    1.05
   7  -9   1   11.23    0.91
  -8   9  -1   50.53    1.91
  -9   9  -1   15.94    1.21
 -10   9  -1    7.02    0.91
   9   8  -1   38.26    1.83
   8   8  -1    8.21    0.86
  -8  -8   1   11.02    0.96
   7   8  -1   35.80    1.59
  -7  -8   1   34.01    1.54
   6   8  -1   37.91    1.56
  -6  -8   1   38.58    1.61
   5   8  -1    0.01    0.39
  -5  -8   1    0.03    0.34
  -4  -8   1   96.06    2.65
   3   8  -1  102.18    2.35
  -3  -8   1  108.44    2.81
   2   8  -1    7.35    0.55
  -2  -8   1    5.60    0.64
   1   8  -1   49.14    1.40
  -1  -8   1   50.80    1.73
   0   8  -1   54.46    1.51
   0  -8   1   53.88    1.76
  -1   8  -1    0.00    0.26
   1  -8   1    0.58    0.33
  -2   8  -1   63.37    1.75
   2  -8   1   63.65    1.92
  -3   8  -1   24.65    1.04
   3  -8   1   23.63    1.11
  -4   8  -1   25.74    1.10
   4  -8   1   24.84    1.14
  -5   8  -1   90.21    2.38
   5  -8   1   92.90    2.37
  -6   8  -1   59.42    1.87
   6  -8   1   60.36    1.80
  -7   8  -1    3.08    0.56
   7  -8   1    3.66    0.52
  -8   8  -1   16.16    1.09
  -9   8  -1    4.89    0.73
 -10   8  -1   23.66    1.43
 -11   8  -1   18.16    1.35
  10   7  -1    9.87    1.00
   9   7  -1   35.58    1.71
   8   7  -1    3.09    0.61
  -8  -7   1    3.94    0.61
   7   7  -1   45.35    1.74
  -7  -7   1   45.36    1.69
   6   7  -1   61.75    1.94
  -6  -7   1   63.01    2.00
   5   7  -1    5.02    0.58
  -5  -7   1    5.02    0.63
   4   7  -1   29.53    1.07
   4   7  -1   31.67    1.20
  -4  -7   1   31.50    1.31
   3   7  -1    2.28    0.31
   3   7  -1    2.12    0.36
  -3  -7   1    1.67    0.40
   2   7  -1    7.85    0.58
   2   7  -1    8.02    0.51
  -2  -7   1    7.13    0.70
   1   7  -1  157.17    3.08
   1   7  -1  150.94    2.98
  -1  -7   1  151.51    3.40
   0   7  -1   31.88    1.03
   0  -7   1   30.38    1.21
  -1   7  -1   37.46    1.16
   1  -7   1   36.49    1.32
  -2   7  -1   35.51    1.14
   2  -7   1   31.64    1.21
  -3   7  -1    3.49    0.45
   3  -7   1    4.26    0.50
  -4   7  -1   44.63    1.42
   4  -7   1   46.86    1.45
  -5   7  -1   54.32    1.66
   5  -7   1   56.03    1.60
  -6   7  -1    1.64    0.42
   6  -7   1    1.86    0.38
  -7   7  -1   70.69    2.11
   7  -7   1   72.15    1.91
  -8   7  -1   47.03    1.73
  -9   7  -1    0.43    0.42
 -10   7  -1   25.15    1.46
 -11   7  -1   16.83    1.30
 -12   7  -1    6.69    1.00
  10   6  -1   21.81    1.42
   9   6  -1   27.04    1.46
   8   6  -1    8.19    0.80
  -8  -6   1    9.92    0.80
   7   6  -1   85.33    2.39
  -7  -6   1   85.78    2.35
   6   6  -1   39.05    1.45
  -6  -6   1   39.23    1.44
   5   6  -1    3.88    0.50
   5   6  -1    4.27    0.49
  -5  -6   1    2.97    0.46
   4   6  -1   44.30    1.38
   4   6  -1   45.77    1.20
  -4  -6   1   45.09    1.51
   3   6  -1   10.82    0.54
   3   6  -1   10.80    0.66
  -3  -6   1    9.24    0.73
   2   6  -1   75.49    1.68
   2   6  -1   74.72    1.72
  -2  -6   1   73.54    1.99
   1   6  -1  115.59    2.35
   1   6  -1  112.14    2.28
  -1  -6   1  115.74    2.65
   0   6  -1    3.95    0.31
   0   6  -1    4.05    0.39
   0  -6   1    4.22    0.49
  -1   6  -1   75.67    1.74
  -1   6  -1   72.09    1.48
   1  -6   1   76.06    1.91
  -2   6  -1  137.75    2.83
  -2   6  -1  136.33    2.50
   2  -6   1  140.41    2.95
   2  -6   1  139.09    2.51
  -3   6  -1    0.33    0.23
   3  -6   1    0.13    0.10
   3  -6   1   -0.07    0.22
  -4   6  -1   51.47    1.49
   4  -6   1   53.74    1.16
   4  -6   1   51.70    1.44
  -5   6  -1   43.95    1.40
   5  -6   1   45.74    1.09
   5  -6   1   44.77    1.31
  -6   6  -1    5.31    0.57
   6  -6   1    5.89    0.52
   6  -6   1    6.07    0.53
  -7   6  -1  147.62    3.38
   7  -6   1  149.12    3.11
  -8   6  -1   77.56    2.26
  -9   6  -1   -0.78    0.33
 -10   6  -1   25.17    1.39
 -11   6  -1    6.40    0.83
 -12   6  -1    8.59    0.98
  11   5  -1    0.48    0.46
  10   5  -1   58.76    2.12
   9   5  -1   31.06    1.51
   8   5  -1   16.14    1.05
  -8  -5   1   17.74    0.94
   7   5  -1  121.91    2.94
  -7  -5   1  118.35    2.84
   6   5  -1   12.10    0.84
  -6  -5   1   11.90    0.75
   5   5  -1   18.11    0.88
   5   5  -1   16.86    0.67
  -5  -5   1   17.33    0.89
   4   5  -1  104.65    2.37
   4   5  -1  105.28    2.17
  -4  -5   1  107.84    2.51
   3   5  -1    0.45    0.16
   3   5  -1    0.59    0.23
  -3  -5   1    0.72    0.28
   2   5  -1  170.68    3.16
   2   5  -1  167.24    3.20
  -2  -5   1  167.76    3.47
   1   5  -1  135.35    2.56
   1   5  -1  135.49    2.61
  -1  -5   1  135.54    2.88
   0   5  -1   16.36    0.51
   0   5  -1   16.28    0.61
   0  -5   1   18.33    0.78
  -1   5  -1   79.67    1.54
  -1   5  -1   81.44    1.77
   1  -5   1   83.40    1.92
  -2   5  -1   58.53    1.42
   2  -5   1   58.29    1.15
   2  -5   1   58.76    1.48
  -3   5  -1   15.07    0.66
   3  -5   1   13.57    0.44
   3  -5   1   13.03    0.63
   4  -5   1  236.20    4.09
   4  -5   1  231.29    4.35
  -5   5  -1   15.05    0.77
   5  -5   1   15.30    0.67
   5  -5   1   15.95    0.55
  -6   5  -1    5.28    0.57
   6  -5   1    5.29    0.39
   6  -5   1    5.27    0.45
  -7   5  -1  138.78    3.15
   7  -5   1  139.71    2.89
   7  -5   1  139.85    2.80
  -8   5  -1   15.98    0.97
   8  -5   1   15.07    0.73
   8  -5   1   14.80    0.73
  -9   5  -1    7.73    0.77
   9  -5   1    7.51    0.61
 -10   5  -1   62.92    2.10
  10  -5   1   63.70    1.80
 -11   5  -1    2.33    0.57
 -12   5  -1   16.45    1.25
 -13   5  -1   34.58    1.75
  11   4  -1    5.84    0.78
  10   4  -1   41.19    1.73
   9   4  -1    4.29    0.62
   8   4  -1   51.47    1.77
  -8  -4   1   51.87    1.57
   7   4  -1   97.49    2.51
  -7  -4   1  101.14    2.39
   6   4  -1    7.00    0.67
   6   4  -1    7.01    0.47
  -6  -4   1    7.82    0.58
   5   4  -1   56.97    1.57
   5   4  -1   55.13    1.35
  -5  -4   1   56.38    1.57
   4   4  -1  154.61    3.09
   4   4  -1  150.65    2.88
  -4  -4   1  149.55    3.16
   3   4  -1    0.77    0.18
   3   4  -1    0.45    0.20
  -3  -4   1    0.53    0.25
   2   4  -1  194.02    3.45
   2   4  -1  187.74    3.49
  -2  -4   1  189.98    3.72
   1   4  -1   23.26    0.67
   1   4  -1   22.77    0.64
  -1  -4   1   22.21    0.81
   0   4  -1   36.44    0.91
   0   4  -1   34.18    0.78
   0  -4   1   36.55    1.04
  -1   4  -1  350.54    6.02
  -1   4  -1  371.32    6.27
   1  -4   1  365.49    6.03
   1  -4   1  362.03    6.36
  -2   4  -1  231.47    4.17
   2  -4   1  222.42    4.16
   2  -4   1  233.79    3.89
  -3   4  -1   10.01    0.51
   3  -4   1    9.14    0.47
   3  -4   1    9.47    0.33
  -4   4  -1   95.70    2.09
   4  -4   1   93.28    1.98
   4  -4   1   94.80    1.81
  -5   4  -1    0.81    0.24
   5  -4   1    0.90    0.20
   5  -4   1    0.74    0.15
  -6   4  -1   47.94    1.42
   6  -4   1   48.66    1.21
   6  -4   1   46.13    1.23
  -7   4  -1   85.53    2.16
   7  -4   1   84.63    1.90
   7  -4   1   82.71    1.90
  -8   4  -1    6.42    0.65
   8  -4   1    5.72    0.50
   8  -4   1    5.31    0.44
  -9   4  -1   32.42    1.36
   9  -4   1   34.41    1.16
 -10   4  -1   35.40    1.50
  10  -4   1   37.46    1.30
 -11   4  -1    3.81    0.62
  11  -4   1    2.82    0.46
 -12   4  -1   13.36    1.14
  12  -4   1   15.11    0.96
 -13   4  -1   25.24    1.54
  13  -4   1   25.17    1.27
  11   3  -1   27.33    1.41
  10   3  -1   42.90    1.71
   9   3  -1   -0.05    0.33
   8   3  -1  108.94    2.69
  -8  -3   1  104.05    2.42
   7   3  -1   72.48    2.00
  -7  -3   1   75.95    1.86
   6   3  -1    6.98    0.59
   6   3  -1    7.59    0.47
  -6  -3   1    8.03    0.53
   5   3  -1  183.56    3.59
   5   3  -1  178.06    3.35
  -5  -3   1  174.93    3.51
   4   3  -1  158.92    2.98
   4   3  -1  160.82    3.17
  -4  -3   1  161.04    3.19
   3   3  -1    5.06    0.30
   3   3  -1    4.55    0.37
  -3  -3   1    4.50    0.41
   2   3  -1  135.89    2.57
   2   3  -1  138.78    2.52
  -2  -3   1  136.52    2.72
   1   3  -1    1.37    0.16
   1   3  -1    1.71    0.17
  -1  -3   1    1.92    0.26
   0   3  -1    0.58    0.13
   0   3  -1    0.47    0.09
   0  -3   1    0.78    0.18
  -1   3  -1  208.83    3.54
  -1   3  -1  215.55    3.75
   1  -3   1  216.48    3.55
   1  -3   1  208.17    3.80
  -2   3  -1   31.99    0.85
   2  -3   1   33.91    0.66
   2  -3   1   32.74    0.85
  -3   3  -1  207.84    3.77
   3  -3   1  207.18    3.53
   3  -3   1  202.45    3.70
  -4   3  -1  114.35    2.31
   4  -3   1  113.08    2.10
   4  -3   1  108.27    2.19
  -5   3  -1    2.26    0.31
   5  -3   1    2.68    0.27
   5  -3   1    2.04    0.24
  -6   3  -1   64.45    1.65
   6  -3   1   64.18    1.48
   6  -3   1   61.01    1.45
  -7   3  -1   62.05    1.72
   7  -3   1   65.08    1.57
   7  -3   1   63.29    1.50
  -8   3  -1    8.90    0.68
   8  -3   1    7.44    0.54
   8  -3   1    7.73    0.48
  -9   3  -1   67.38    1.99
   9  -3   1   72.16    1.87
 -10   3  -1    6.58    0.70
  10  -3   1    6.93    0.65
 -11   3  -1   12.34    0.97
  11  -3   1   12.41    0.85
 -12   3  -1   52.63    1.95
  12  -3   1   53.10    1.78
  13  -3   1    3.21    0.55
  12   2  -1    1.51    0.51
  11   2  -1   28.72    1.40
  10   2  -1   39.23    1.57
   9   2  -1    4.53    0.55
   8   2  -1   62.59    1.85
  -8  -2   1   60.70    1.60
   7   2  -1   74.23    1.96
  -7  -2   1   74.12    1.74
   6   2  -1   13.15    0.71
  -6  -2   1   11.98    0.57
   5   2  -1  216.17    4.05
   5   2  -1  226.20    4.25
  -5  -2   1  226.88    4.13
   4   2  -1   11.70    0.46
   4   2  -1   12.13    0.57
  -4  -2   1   11.69    0.52
   3   2  -1   89.16    1.85
   3   2  -1   90.47    1.74
  -3  -2   1   88.11    1.85
   2   2  -1  225.96    3.83
   2   2  -1  219.40    3.89
  -2  -2   1  217.32    3.97
   1   2  -1    9.69    0.34
   1   2  -1    9.88    0.34
  -1  -2   1   10.82    0.44
   0   2  -1  105.05    1.81
   0   2  -1  102.30    1.89
   0  -2   1  106.07    1.98
  -1   2  -1  438.57    7.52
   1  -2   1  463.21    7.47
   1  -2   1  449.13    7.55
  -3   2  -1  217.86    3.88
   3  -2   1  218.98    3.73
   3  -2   1  215.35    3.81
  -4   2  -1   35.71    0.96
   4  -2   1   35.71    0.88
   4  -2   1   37.72    0.87
  -5   2  -1  173.03    3.18
  -5   2  -1  173.34    3.35
   5  -2   1  177.41    3.23
  -6   2  -1  205.85    3.73
  -6   2  -1  205.86    3.95
   6  -2   1  201.71    3.81
  -7   2  -1   74.20    1.87
  -7   2  -1   73.96    1.64
   7  -2   1   75.22    1.76
  -8   2  -1    4.26    0.38
  -8   2  -1    4.86    0.53
   8  -2   1    4.01    0.44
  -9   2  -1  118.50    2.84
   9  -2   1  124.18    2.76
 -10   2  -1   12.84    0.87
  10  -2   1   14.65    0.83
 -11   2  -1    9.61    0.85
  11  -2   1    8.51    0.78
  12  -2   1   38.62    1.54
  13  -2   1    0.48    0.35
  12   1  -1    2.81    0.55
  11   1  -1   54.01    1.89
  10   1  -1    8.63    0.81
   9   1  -1   21.82    1.07
   8   1  -1   69.97    1.93
   7   1  -1   59.94    1.66
  -7  -1   1   58.87    1.40
   6   1  -1    8.86    0.57
  -6  -1   1    8.75    0.43
   5   1  -1  278.01    5.08
  -5  -1   1  275.16    4.88
   4   1  -1   13.98    0.58
   4   1  -1   13.41    0.50
  -4  -1   1   13.86    0.49
   3   1  -1   69.74    1.41
   3   1  -1   71.44    1.50
  -3  -1   1   68.40    1.42
   2   1  -1  191.57    3.34
   2   1  -1  188.04    3.27
  -2  -1   1  186.74    3.33
   1   1  -1  249.23    4.25
   1   1  -1  259.59    4.25
  -1  -1   1  245.74    4.29
   0   1  -1   54.59    0.97
   0   1  -1   54.51    1.04
   0  -1   1   58.37    1.07
  -1   1  -1  215.33    3.67
   1  -1   1  212.09    3.55
   1  -1   1  224.04    3.69
  -2   1  -1   26.15    0.60
  -2   1  -1   26.63    0.63
   2  -1   1   25.68    0.56
  -3   1  -1  213.85    3.69
  -3   1  -1  216.99    3.76
   3  -1   1  209.24    3.69
  -4   1  -1   37.64    0.94
  -4   1  -1   37.80    0.87
   4  -1   1   38.12    0.92
  -5   1  -1   25.56    0.71
   5  -1   1   26.59    0.79
  -6   1  -1  199.86    3.62
   6  -1   1  196.68    3.74
  -7   1  -1   27.08    0.82
   7  -1   1   27.22    0.95
  -8   1  -1   37.44    1.07
   8  -1   1   39.20    1.24
  -9   1  -1   82.41    1.92
   9  -1   1   82.76    2.12
 -10   1  -1    0.15    0.29
  10  -1   1    0.25    0.28
  11  -1   1   51.22    1.71
  12  -1   1   31.23    1.40
  13  -1   1   -0.28    0.33
  12   0  -1   12.70    1.03
  11   0  -1   59.37    1.96
  10   0  -1    0.18    0.31
   9   0  -1   45.08    1.52
   8   0  -1  112.15    2.63
   7   0  -1   12.82    0.70
  -7   0   1   11.88    0.49
   6   0  -1   80.05    1.88
  -6   0   1   79.07    1.63
   5   0  -1   15.16    0.64
  -5   0   1   15.26    0.49
   4   0  -1   56.18    1.31
  -4   0   1   54.01    1.13
   3   0  -1  264.92    4.68
  -3   0   1  269.85    4.53
   2   0  -1   45.66    0.95
   2   0  -1   45.67    0.97
  -2   0   1   46.23    0.88
   1   0  -1   82.14    1.55
   1   0  -1   92.86    1.57
  -1   0   1   86.89    1.52
  -2   0  -1   98.72    1.72
  -2   0  -1   96.03    1.73
   2   0   1   95.47    1.73
  -3   0  -1  410.71    6.90
   3   0   1  413.34    6.94
  -4   0  -1   42.91    0.96
   4   0   1   43.20    1.03
  -5   0  -1   36.62    0.91
   5   0   1   37.39    1.01
  -6   0  -1  166.38    3.10
   6   0   1  165.75    3.25
  -7   0  -1    0.15    0.13
   7   0   1    0.01    0.20
  -8   0  -1   79.44    1.81
   8   0   1   80.91    2.02
  -9   0  -1  108.78    2.33
   9   0   1  106.86    2.57
  10   0   1   -0.01    0.29
  11   0   1   46.65    1.67
  12   0   1   16.87    1.10
  13   0   1    1.94    0.50
  12  -1  -1   19.46    1.16
  11  -1  -1   24.59    1.22
  10  -1  -1   18.22    1.00
   9  -1  -1  107.36    2.60
   8  -1  -1  103.78    2.45
   7  -1  -1    5.61    0.50
  -7   1   1    5.58    0.34
   6  -1  -1  190.35    3.75
  -6   1   1  198.92    3.47
   5  -1  -1   68.13    1.58
  -5   1   1   69.16    1.35
   4  -1  -1   32.14    0.88
  -4   1   1   32.74    0.70
   3  -1  -1  105.69    2.05
  -3   1   1  108.77    1.87
   2  -1  -1   87.24    1.65
  -2   1   1   88.32    1.49
   1  -1  -1   42.78    0.84
  -2  -1  -1    2.51    0.17
   2   1   1    2.56    0.17
  -3  -1  -1   19.86    0.56
   3   1   1   21.09    0.59
  -4  -1  -1   13.95    0.48
   4   1   1   13.93    0.53
  -5  -1  -1  264.17    4.69
   5   1   1  265.69    4.80
  -6  -1  -1  145.87    2.82
   6   1   1  147.20    2.97
  -7  -1  -1    5.93    0.40
   7   1   1    6.32    0.54
  -8  -1  -1   88.69    1.99
   8   1   1   89.34    2.20
  -9  -1  -1   21.61    0.83
   9   1   1   19.11    1.00
  10   1   1    6.28    0.64
  11   1   1   46.36    1.70
  12   1   1   15.19    1.06
  13   1   1   18.75    1.21
  12  -2  -1   35.64    1.50
  11  -2  -1   31.69    1.36
  10  -2  -1   15.06    0.93
   9  -2  -1   89.27    2.27
   8  -2  -1   35.92    1.23
   7  -2  -1   62.69    1.66
  -7   2   1   67.10    1.42
   6  -2  -1  103.69    2.28
  -6   2   1  108.01    2.01
   5  -2  -1  105.89    2.23
  -5   2   1  110.43    1.99
   4  -2  -1   32.80    0.88
   3  -2  -1  325.77    5.50
   3  -2  -1  313.49    5.32
   2  -2  -1    4.75    0.24
   2  -2  -1    4.56    0.18
   1  -2  -1   26.24    0.58
   1  -2  -1   26.78    0.59
   0  -2  -1  206.84    3.33
   0  -2  -1  186.82    3.37
   0   2   1  192.48    3.30
  -1  -2  -1   31.00    0.76
  -1  -2  -1   33.47    0.70
   1   2   1   31.70    0.59
   1   2   1   32.64    0.70
  -2  -2  -1   24.33    0.68
   2   2   1   25.78    0.64
   2   2   1   24.69    0.49
  -3  -2  -1  175.89    3.15
   3   2   1  173.28    3.10
   3   2   1  162.80    2.90
  -4  -2  -1    3.84    0.30
   4   2   1    4.20    0.34
  -5  -2  -1  137.91    2.69
   5   2   1  135.59    2.74
  -6  -2  -1  134.44    2.70
   6   2   1  133.66    2.80
  -7  -2  -1   11.56    0.57
   7   2   1   11.01    0.69
  -8  -2  -1   60.68    1.56
   8   2   1   61.80    1.77
  -9  -2  -1    3.23    0.39
   9   2   1    3.50    0.51
  10   2   1   39.64    1.54
  11   2   1   60.62    2.04
  12   2   1    5.89    0.70
  13  -3  -1    1.84    0.58
  12  -3  -1   39.95    1.57
 -12   3   1   38.70    1.69
  11  -3  -1   19.29    1.08
  10  -3  -1   18.00    0.96
   9  -3  -1   88.67    2.25
   8  -3  -1   20.02    0.90
   7  -3  -1   40.64    1.24
   6  -3  -1  101.21    2.19
   6  -3  -1  100.71    1.95
   5  -3  -1    1.01    0.15
   5  -3  -1    0.75    0.20
   4  -3  -1   77.89    1.61
   4  -3  -1   72.95    1.45
   3  -3  -1   94.63    1.75
   3  -3  -1   94.20    1.84
   2  -3  -1   15.00    0.45
   2  -3  -1   15.17    0.45
   1  -3  -1  374.46    6.20
   1  -3  -1  366.27    6.28
  -1   3   1  369.17    6.27
   0  -3  -1   64.41    1.39
   0  -3  -1   67.79    1.27
   0   3   1   65.42    1.26
  -1  -3  -1   45.47    0.95
  -1  -3  -1   44.49    1.08
   1   3   1   44.74    0.87
   1   3   1   44.21    0.95
  -2  -3  -1    1.37    0.23
   2   3   1    1.00    0.16
  -3  -3  -1   72.00    1.63
   3   3   1   74.10    1.35
   3   3   1   74.27    1.57
  -4  -3  -1  119.74    2.45
   4   3   1  123.33    2.42
   4   3   1  115.14    2.14
  -5  -3  -1  160.20    3.19
   5   3   1  162.47    3.20
  -6  -3  -1   19.87    0.78
   6   3   1   20.38    0.86
  -7  -3  -1   63.34    1.64
   7   3   1   64.44    1.76
  -8  -3  -1   65.19    1.72
   8   3   1   67.30    1.91
  -9  -3  -1    0.15    0.21
   9   3   1    0.42    0.37
  10   3   1   22.59    1.23
  11   3   1   73.91    2.32
  12   3   1    0.37    0.41
  13  -4  -1    7.06    0.87
 -13   4   1    5.85    0.83
  12  -4  -1   21.90    1.18
 -12   4   1   23.86    1.41
  11  -4  -1    4.75    0.61
 -11   4   1    5.87    0.73
  10  -4  -1   29.88    1.23
 -10   4   1   28.52    1.36
   9  -4  -1   74.50    2.00
   8  -4  -1    0.23    0.26
   7  -4  -1   39.62    1.21
   6  -4  -1   69.68    1.51
   6  -4  -1   73.73    1.72
   5  -4  -1   -0.09    0.09
   5  -4  -1    0.11    0.16
   4  -4  -1  155.00    2.88
   4  -4  -1  160.62    2.97
   3  -4  -1   80.80    1.63
   3  -4  -1   80.30    1.63
  -3   4   1   80.76    1.77
   2  -4  -1  130.93    2.47
   2  -4  -1  130.56    2.39
  -2   4   1  128.78    2.51
   1  -4  -1   79.72    1.73
   1  -4  -1   84.94    1.60
  -1   4   1   82.57    1.67
   0  -4  -1  105.20    1.93
   0  -4  -1   98.04    2.09
   0   4   1  105.33    1.95
  -1  -4  -1   46.84    1.20
   1   4   1   45.82    0.95
   1   4   1   45.23    1.02
  -2  -4  -1  157.91    3.04
   2   4   1  149.23    2.67
   2   4   1  151.62    2.83
  -3  -4  -1   15.11    0.68
   3   4   1   15.53    0.61
   3   4   1   15.96    0.44
  -4  -4  -1  116.90    2.52
   4   4   1  118.06    2.14
   4   4   1  117.20    2.43
  -5  -4  -1  218.74    4.23
   5   4   1  207.51    3.82
   5   4   1  228.09    4.20
  -6  -4  -1   11.34    0.64
   6   4   1    9.59    0.67
  -7  -4  -1   72.41    1.89
   7   4   1   75.97    2.02
  -8  -4  -1   51.77    1.54
   8   4   1   51.05    1.68
  -9  -4  -1    9.11    0.66
   9   4   1    9.24    0.89
 -10  -4  -1   37.53    1.39
  10   4   1   39.03    1.61
  11   4   1   27.68    1.45
  12   4   1    4.78    0.74
  12  -5  -1   19.05    1.12
 -12   5   1   18.53    1.33
  11  -5  -1    2.12    0.45
 -11   5   1    3.12    0.63
  10  -5  -1   52.48    1.70
 -10   5   1   53.64    1.92
   9  -5  -1   74.00    2.00
  -9   5   1   72.38    2.20
   8  -5  -1    8.13    0.63
  -8   5   1    8.01    0.76
   7  -5  -1  115.95    2.53
  -7   5   1  115.20    2.76
   6  -5  -1   21.15    0.79
   6  -5  -1   19.84    0.69
  -6   5   1   21.99    0.97
   5  -5  -1   40.11    1.03
   5  -5  -1   38.95    1.08
  -5   5   1   41.48    1.28
   4  -5  -1  116.94    2.27
   4  -5  -1  112.94    2.25
  -4   5   1  108.85    2.43
   3  -5  -1   31.27    0.83
   3  -5  -1   30.64    0.89
  -3   5   1   31.69    0.97
   2  -5  -1  275.90    4.71
   2  -5  -1  262.83    4.87
  -2   5   1  271.69    4.86
   1  -5  -1  608.22   10.20
   1  -5  -1  586.81   10.26
  -1   5   1  606.30   10.14
   0  -5  -1   75.66    1.53
   0  -5  -1   71.43    1.73
   0   5   1   75.76    1.53
   0   5   1   76.00    1.56
  -1  -5  -1   16.77    0.73
   1   5   1   16.44    0.55
   1   5   1   16.62    0.52
  -2  -5  -1  127.29    2.71
   2   5   1  127.05    2.33
   2   5   1  128.29    2.48
   3   5   1    0.34    0.12
  -4  -5  -1   82.41    2.04
   4   5   1   82.98    1.63
   4   5   1   84.09    1.92
  -5  -5  -1   72.73    1.89
   5   5   1   66.73    1.45
   5   5   1   75.48    1.84
  -6  -5  -1    4.22    0.50
   6   5   1    4.02    0.48
  -7  -5  -1  134.91    3.06
   7   5   1  135.24    3.11
  -8  -5  -1   47.77    1.55
   8   5   1   46.71    1.65
  -9  -5  -1    0.44    0.26
   9   5   1    0.21    0.38
 -10  -5  -1   49.46    1.67
  10   5   1   50.46    1.89
  11   5   1    5.19    0.73
  12  -6  -1   23.95    1.24
 -12   6   1   28.01    1.58
 -11   6   1    1.50    0.54
  10  -6  -1   26.30    1.15
 -10   6   1   26.24    1.41
   9  -6  -1   38.16    1.34
  -9   6   1   37.89    1.58
   8  -6  -1   24.16    0.99
  -8   6   1   23.22    1.21
   7  -6  -1  112.81    2.47
  -7   6   1  108.77    2.75
   6  -6  -1   42.26    1.17
   6  -6  -1   43.90    1.22
  -6   6   1   41.73    1.43
   5  -6  -1   28.39    0.91
   5  -6  -1   26.59    0.86
  -5   6   1   26.67    1.07
   4  -6  -1   76.76    1.76
   4  -6  -1   74.81    1.65
  -4   6   1   75.40    1.88
   3  -6  -1    6.90    0.39
   3  -6  -1    7.84    0.51
  -3   6   1    8.34    0.55
   2  -6  -1   63.58    1.39
   2  -6  -1   62.49    1.60
  -2   6   1   63.36    1.54
   1  -6  -1  235.94    4.50
   1  -6  -1  236.03    4.21
  -1   6   1  238.35    4.34
   0  -6  -1    3.56    0.29
   0  -6  -1    3.28    0.41
   0   6   1    3.77    0.34
   0   6   1    3.62    0.29
  -1  -6  -1  191.31    3.89
   1   6   1  195.97    3.53
   1   6   1  195.35    3.58
  -2  -6  -1   99.29    2.35
   2   6   1   96.24    1.93
   2   6   1  100.18    2.07
  -3  -6  -1    0.33    0.25
   3   6   1    1.21    0.24
  -4  -6  -1   18.07    0.90
   4   6   1   18.23    0.82
   4   6   1   18.21    0.58
  -5  -6  -1   34.22    1.27
   5   6   1   34.47    1.21
  -6  -6  -1   40.24    1.43
   6   6   1   42.39    1.45
  -7  -6  -1   56.72    1.78
   7   6   1   59.04    1.85
  -8  -6  -1    3.76    0.55
   8   6   1    2.67    0.53
  -9  -6  -1   28.44    1.28
   9   6   1   29.18    1.45
 -10  -6  -1   23.53    1.19
  10   6   1   23.23    1.38
  11   6   1   -0.38    0.44
 -11   7   1   18.17    1.31
 -10   7   1   47.67    1.92
   9  -7  -1   24.33    1.07
  -9   7   1   24.07    1.32
   8  -7  -1   27.28    1.05
  -8   7   1   26.07    1.32
   7  -7  -1   47.89    1.38
  -7   7   1   45.34    1.66
   6  -7  -1    0.47    0.21
   6  -7  -1    0.44    0.28
  -6   7   1    1.03    0.40
   5  -7  -1   46.15    1.24
   5  -7  -1   48.37    1.37
  -5   7   1   47.72    1.51
   4  -7  -1   55.43    1.53
   4  -7  -1   56.86    1.37
  -4   7   1   56.82    1.62
   3  -7  -1   13.23    0.55
   3  -7  -1   13.88    0.74
  -3   7   1   13.51    0.73
   2  -7  -1   73.61    1.86
   2  -7  -1   70.72    1.58
  -2   7   1   71.66    1.75
   1  -7  -1   83.23    2.06
   1  -7  -1   79.94    1.73
  -1   7   1   81.18    1.87
  -1   7   1   82.67    1.75
   0  -7  -1   26.94    1.08
   0  -7  -1   28.56    0.83
   0   7   1   29.10    0.89
   0   7   1   27.43    0.83
  -1  -7  -1   76.35    2.03
   1   7   1   77.12    1.69
   1   7   1   78.54    1.73
  -2  -7  -1   30.36    1.20
   2   7   1   31.43    0.88
   2   7   1   33.38    1.00
  -3  -7  -1   45.49    1.50
   3   7   1   41.72    1.24
   3   7   1   42.81    1.07
  -4  -7  -1  115.17    2.80
   4   7   1  113.53    2.57
  -5  -7  -1   31.41    1.28
   5   7   1   27.42    1.17
  -6  -7  -1   36.49    1.43
   6   7   1   37.34    1.40
  -7  -7  -1   22.49    1.13
   7   7   1   21.50    1.18
  -8  -7  -1    1.10    0.40
   8   7   1    1.14    0.49
  -9  -7  -1   75.24    2.30
   9   7   1   74.34    2.38
 -10  -7  -1   37.92    1.58
  10   7   1   37.25    1.79
 -11   8   1   12.24    1.18
 -10   8   1   27.74    1.55
  -9   8   1    0.42    0.44
  -8   8   1   25.11    1.32
  -7   8   1   34.40    1.46
  -6   8   1   19.11    1.07
   5  -8  -1   57.68    1.67
   5  -8  -1   58.00    1.54
  -5   8   1   57.63    1.76
   4  -8  -1   22.30    0.78
   4  -8  -1   21.03    0.97
  -4   8   1   20.29    0.98
   3  -8  -1   13.30    0.80
   3  -8  -1   13.21    0.58
  -3   8   1   13.58    0.78
   2  -8  -1  146.70    2.92
   2  -8  -1  154.33    3.33
  -2   8   1  150.52    3.14
   1  -8  -1   34.28    1.28
   1  -8  -1   33.94    0.98
  -1   8   1   32.76    0.97
  -1   8   1   35.01    1.12
   0  -8  -1   52.42    1.65
   0   8   1   50.78    1.31
   0   8   1   52.82    1.39
  -1  -8  -1   66.49    1.94
   1   8   1   65.68    1.59
   1   8   1   66.46    1.58
  -2  -8  -1    3.39    0.50
   2   8   1    3.42    0.37
   2   8   1    5.11    0.41
  -3  -8  -1   43.73    1.58
   3   8   1   45.06    1.36
  -4  -8  -1   93.70    2.56
   4   8   1   96.05    2.32
  -5  -8  -1    1.45    0.44
   5   8   1    1.91    0.44
  -6  -8  -1   83.72    2.44
   6   8   1   83.53    2.32
  -7  -8  -1   65.12    2.12
   7   8   1   64.93    2.07
  -8  -8  -1   -0.36    0.27
   8   8   1   -0.38    0.42
  -9  -8  -1   25.71    1.36
   9   8   1   27.20    1.49
 -10  -8  -1   12.17    1.00
  10   8   1    9.06    0.99
 -10   9   1   19.84    1.39
  -9   9   1    2.51    0.62
  -8   9   1   25.39    1.39
  -7   9   1   16.70    1.12
  -6   9   1    8.93    0.85
   5  -9  -1   56.99    1.76
  -5   9   1   53.28    1.77
   4  -9  -1   10.57    0.80
  -4   9   1   10.32    0.82
   3  -9  -1   38.41    1.43
  -3   9   1   37.90    1.33
   2  -9  -1  118.48    2.89
  -2   9   1  120.52    2.71
   1  -9  -1   14.38    0.96
  -1   9   1   14.18    0.78
   0  -9  -1   34.80    1.40
   0   9   1   35.17    1.15
  -1  -9  -1   48.04    1.69
   1   9   1   51.72    1.57
   1   9   1   47.52    1.35
  -2  -9  -1    0.50    0.34
  -3  -9  -1   93.53    2.62
   3   9   1   96.14    2.31
  -4  -9  -1   80.89    2.38
   4   9   1   74.70    2.07
  -5  -9  -1    0.42    0.35
   5   9   1    0.02    0.36
  -6  -9  -1   29.99    1.43
   6   9   1   27.57    1.36
  -7  -9  -1    4.21    0.67
   7   9   1    3.80    0.66
  -8  -9  -1    9.27    0.93
   8   9   1    7.94    0.87
  -9  -9  -1   47.01    1.91
   9   9   1   44.54    1.98
  -9  10   1    9.55    1.00
  -8  10   1   36.13    1.66
  -7  10   1    4.40    0.68
  -6  10   1   13.91    1.01
   5 -10  -1   22.34    1.15
  -5  10   1   18.30    1.13
   4 -10  -1   -0.21    0.29
  -4  10   1    0.09    0.35
   3 -10  -1   92.13    2.52
  -3  10   1   90.51    2.36
   2 -10  -1   60.32    1.97
  -2  10   1   60.38    1.77
   1 -10  -1    0.22    0.36
  -1  10   1   -0.45    0.27
   0 -10  -1   34.99    1.50
   0  10   1   34.33    1.21
  -1 -10  -1   63.96    2.10
  -2 -10  -1    0.30    0.36
  -3 -10  -1   55.61    1.99
  -4 -10  -1   16.37    1.13
  -5 -10  -1   14.84    1.11
  -6 -10  -1   49.36    1.95
  -7 -10  -1   11.51    1.03
   7  10   1   13.29    1.51
  -8 -10  -1    5.69    0.78
   8  10   1    5.52    0.99
  -8  11   1   27.64    1.54
  -7  11   1    3.88    0.68
  -6  11   1   21.39    1.24
   5 -11  -1   17.81    1.22
  -5  11   1   16.36    1.13
   4 -11  -1    1.91    0.51
  -4  11   1    1.86    0.50
   3 -11  -1   59.60    2.03
  -3  11   1   57.64    1.84
   2 -11  -1   21.30    1.26
  -2  11   1   20.96    1.08
   1 -11  -1    1.69    0.49
  -1  11   1    2.00    0.44
   0 -11  -1   36.38    1.61
  -1 -11  -1   12.25    1.05
  -2 -11  -1   16.81    1.18
  -3 -11  -1   40.24    1.76
  -4 -11  -1    2.71    0.60
  -5 -11  -1   20.89    1.34
  -6 -11  -1   11.15    1.07
  -7  12   1    0.61    0.52
  -6  12   1   17.69    1.22
  -5  12   1   11.87    1.04
   4 -12  -1   12.46    1.07
  -4  12   1   12.92    1.02
   3 -12  -1   52.03    2.00
  -3  12   1   49.20    1.74
   2 -12  -1    4.74    0.73
  -2  12   1    6.12    0.72
   1 -12  -1    5.59    0.78
   0 -12  -1   52.96    2.05
  -1 -12  -1    2.83    0.65
  -2 -12  -1   34.50    1.69
  -3 -12  -1   34.17    1.70
  -4 -12  -1    0.29    0.41
  -5  13   1    0.97    0.54
   4 -13  -1   14.01    1.20
  -4  13   1   13.06    1.07
   3 -13  -1   17.28    1.27
  -3  13   1   14.79    1.08
   2 -13  -1    0.96    0.48
   1 -13  -1   32.50    1.68
   0 -13  -1   28.17    1.59
  -1 -13  -1    0.29    0.43
  -2 -13  -1   28.52    2.12
   0 -12   2    9.51    1.34
  -1  12  -2   23.21    1.46
   1 -12   2   22.69    1.51
  -2  12  -2    0.74    0.49
   2 -12   2    0.11    0.49
  -3  12  -2   17.04    1.16
   3 -12   2   18.03    1.37
  -4  12  -2    3.23    0.67
   4 -12   2    3.97    0.81
  -5  12  -2    3.24    0.68
   5 -12   2    3.47    0.76
   6 -12   2   29.01    1.69
  -3 -11   2   21.66    1.41
  -2 -11   2   20.55    1.38
  -1 -11   2    0.96    0.52
   0  11  -2   36.54    1.49
   0 -11   2   39.99    1.80
  -1  11  -2   36.43    1.48
   1 -11   2   33.83    1.68
  -2  11  -2    0.52    0.44
   2 -11   2    0.31    0.43
  -3  11  -2   26.12    1.30
   3 -11   2   25.72    1.47
  -4  11  -2    6.00    0.75
   4 -11   2    5.18    0.80
  -5  11  -2   13.28    1.07
   5 -11   2   14.40    1.21
  -6  11  -2   22.88    1.34
   6 -11   2   22.11    1.45
  -7  11  -2    1.16    0.55
   7 -11   2    0.07    0.47
  -6 -10   2   24.37    1.56
  -5 -10   2   29.55    1.57
  -4 -10   2    1.93    0.54
  -3 -10   2   38.55    1.74
  -2 -10   2    4.10    0.73
   1  10  -2    6.14    0.65
  -1 -10   2    6.19    0.82
   0  10  -2   71.46    2.02
   0 -10   2   70.48    2.36
  -1  10  -2   23.75    1.15
   1 -10   2   22.66    1.33
  -2  10  -2    6.95    0.73
   2 -10   2    6.41    0.83
  -3  10  -2   32.97    1.41
   3 -10   2   33.65    1.57
  -4  10  -2    1.03    0.45
   4 -10   2    0.74    0.47
  -5  10  -2   41.46    1.66
   5 -10   2   44.21    1.78
  -6  10  -2   47.29    1.79
   6 -10   2   46.57    1.83
  -7  10  -2    0.57    0.49
   7 -10   2    0.09    0.43
  -8  10  -2   23.82    1.40
  -7  -9   2    1.75    0.53
  -6  -9   2   41.29    1.78
  -5  -9   2   19.93    1.28
  -4  -9   2   10.25    0.98
  -3  -9   2   50.49    1.90
   2   9  -2    6.95    0.63
  -2  -9   2    6.78    0.77
   1   9  -2   35.60    1.27
  -1  -9   2   36.07    1.57
   0   9  -2   43.95    1.46
   0  -9   2   44.85    1.72
  -1   9  -2    7.97    0.73
   1  -9   2    7.00    0.78
  -2   9  -2   25.68    1.15
   2  -9   2   27.33    1.35
  -3   9  -2   34.67    1.37
   3  -9   2   38.90    1.58
  -4   9  -2   -0.35    0.34
   4  -9   2   -0.79    0.30
  -5   9  -2   38.69    1.53
   5  -9   2   41.11    1.62
  -6   9  -2   12.30    0.97
   6  -9   2   12.32    0.99
  -7   9  -2    8.19    0.88
   7  -9   2   10.04    0.91
  -8   9  -2   36.04    1.61
  -9   9  -2   14.17    1.16
 -10   9  -2    2.16    0.67
  -8  -8   2    0.16    0.46
  -7  -8   2   14.18    1.07
  -6  -8   2   72.84    2.34
  -5  -8   2    3.85    0.64
  -4  -8   2   54.90    1.92
   3   8  -2   50.69    1.49
  -3  -8   2   55.07    1.88
   2   8  -2   10.92    0.68
  -2  -8   2   11.81    0.93
   1   8  -2   70.80    1.84
  -1  -8   2   70.80    2.14
   0   8  -2   95.85    2.26
   0  -8   2   89.01    2.48
  -1   8  -2    0.05    0.26
   1  -8   2   -0.02    0.30
  -2   8  -2   69.42    1.89
   2  -8   2   67.81    2.05
  -3   8  -2   21.18    1.00
   3  -8   2   20.71    1.09
  -4   8  -2    0.28    0.32
   4  -8   2   -0.39    0.28
  -5   8  -2  100.42    2.58
   5  -8   2   99.82    2.57
  -6   8  -2   12.79    0.92
   6  -8   2   11.60    0.86
  -7   8  -2   21.41    1.19
   7  -8   2   22.56    1.13
  -8   8  -2   45.81    1.75
   8  -8   2   44.04    1.57
  -9   8  -2    2.07    0.60
 -10   8  -2   10.78    1.06
 -11   8  -2   32.27    1.73
   9   7  -2   38.94    1.78
   8   7  -2    4.04    0.66
   7   7  -2   35.25    1.56
  -7  -7   2   37.84    1.55
   6   7  -2   53.74    1.82
  -6  -7   2   54.80    1.89
  -5  -7   2    1.32    0.42
   4   7  -2   29.29    1.04
   4   7  -2   28.49    1.52
  -4  -7   2   29.48    1.31
   3   7  -2  107.97    2.41
  -3  -7   2  111.72    2.82
   2   7  -2    8.23    0.57
  -2  -7   2    9.80    0.81
   1   7  -2   74.66    1.81
  -1  -7   2   70.50    2.05
   0   7  -2   67.48    1.72
   0  -7   2   67.71    1.96
  -1   7  -2    7.44    0.60
   1  -7   2    8.11    0.72
  -2   7  -2   54.17    1.53
   2  -7   2   53.39    1.66
  -3   7  -2    3.51    0.45
   3  -7   2    2.77    0.45
  -4   7  -2   19.46    0.95
   4  -7   2   21.25    0.99
  -5   7  -2   92.76    2.37
   5  -7   2   97.47    2.38
  -6   7  -2    4.08    0.57
   6  -7   2    4.54    0.54
  -7   7  -2   36.67    1.46
   7  -7   2   36.78    1.33
  -8   7  -2   43.78    1.68
   8  -7   2   45.23    1.50
  -9   7  -2    0.27    0.40
 -10   7  -2   26.49    1.46
 -11   7  -2   17.75    1.28
 -12   7  -2    1.61    0.66
  10   6  -2   18.96    1.31
   9   6  -2   41.03    1.74
   7   6  -2   46.06    1.72
  -7  -6   2   50.04    1.71
   6   6  -2   38.29    1.46
  -6  -6   2   36.39    1.43
   5   6  -2    3.15    0.40
  -5  -6   2    3.12    0.51
   4   6  -2   52.78    1.41
   4   6  -2   51.38    1.55
  -4  -6   2   54.08    1.72
   3   6  -2   53.64    1.40
   3   6  -2   53.52    1.49
  -3  -6   2   53.53    1.70
   2   6  -2   10.56    0.57
   2   6  -2   10.59    0.60
  -2  -6   2    9.75    0.75
   1   6  -2  242.32    4.50
   1   6  -2  238.96    4.36
  -1  -6   2  241.01    4.80
   0   6  -2   46.52    1.28
   0  -6   2   44.96    1.46
  -1   6  -2   39.96    1.19
   1  -6   2   39.17    1.30
  -2   6  -2   16.92    0.75
   2  -6   2   14.85    0.78
  -3   6  -2    2.97    0.40
   3  -6   2    3.29    0.44
  -4   6  -2   73.11    1.89
   4  -6   2   75.38    1.89
  -5   6  -2   58.12    1.67
   5  -6   2   58.70    1.61
  -6   6  -2    5.53    0.58
   6  -6   2    7.01    0.59
  -7   6  -2  119.57    2.91
   7  -6   2  119.64    2.71
  -8   6  -2   34.87    1.42
   8  -6   2   33.30    1.22
  -9   6  -2    5.00    0.69
 -10   6  -2   33.10    1.55
 -11   6  -2   17.00    1.19
 -12   6  -2    1.80    0.63
  10   5  -2   17.66    1.24
   9   5  -2   16.12    1.16
   8   5  -2   10.08    0.95
   7   5  -2   87.21    2.42
  -7  -5   2   90.63    2.35
   6   5  -2    2.65    0.47
   6   5  -2    2.75    0.38
  -6  -5   2    2.74    0.44
   5   5  -2    0.43    0.22
   5   5  -2    0.55    0.30
  -5  -5   2    0.64    0.31
   4   5  -2  138.61    2.82
   4   5  -2  138.41    2.98
  -4  -5   2  142.89    3.14
  -3  -5   2    1.00    0.31
   2   5  -2   65.48    1.54
   2   5  -2   67.16    1.56
  -2  -5   2   66.48    1.79
   1   5  -2  251.22    4.56
   1   5  -2  243.98    4.44
  -1  -5   2  254.20    4.83
   0   5  -2    0.64    0.20
   0   5  -2    0.57    0.15
   0  -5   2    0.68    0.26
  -1   5  -2   52.68    1.34
  -1   5  -2   51.12    1.05
   1  -5   2   53.70    1.45
  -2   5  -2  117.06    2.43
  -2   5  -2  108.86    2.00
   2  -5   2  119.92    2.51
  -3   5  -2   26.88    0.92
   3  -5   2   25.00    0.91
   3  -5   2   25.08    0.57
  -4   5  -2  181.53    3.61
   4  -5   2  181.72    3.57
   4  -5   2  179.45    3.15
  -5   5  -2   81.64    1.99
   5  -5   2   79.87    1.58
   5  -5   2   77.66    1.89
  -6   5  -2   14.97    0.81
   6  -5   2   15.10    0.59
   6  -5   2   14.40    0.71
  -7   5  -2  152.71    3.40
   7  -5   2  155.50    3.21
  -8   5  -2   26.67    1.20
   8  -5   2   25.82    1.00
  -9   5  -2   33.56    1.43
 -10   5  -2   60.35    2.05
 -11   5  -2    4.43    0.72
 -12   5  -2   11.61    1.13
 -13   5  -2   39.62    1.87
  11   4  -2    3.30    0.81
  10   4  -2   38.68    1.69
   9   4  -2   10.48    0.94
   8   4  -2   35.44    1.45
   7   4  -2  100.06    2.52
   7   4  -2   97.69    2.53
  -7  -4   2   95.10    2.36
   6   4  -2   10.77    0.61
   6   4  -2   11.44    0.81
  -6  -4   2   10.76    0.69
   5   4  -2   16.36    0.82
   5   4  -2   15.26    0.68
  -5  -4   2   17.23    0.84
   4   4  -2  115.40    2.51
   4   4  -2  114.70    2.36
  -4  -4   2  113.54    2.57
   3   4  -2    0.49    0.19
   3   4  -2    0.13    0.18
  -3  -4   2   -0.05    0.20
   2   4  -2  212.29    3.93
   2   4  -2  219.63    3.96
  -2  -4   2  214.29    4.16
   1   4  -2  169.40    3.12
   1   4  -2  159.29    3.02
  -1  -4   2  168.56    3.33
   0   4  -2   24.39    0.75
   0   4  -2   26.06    0.63
   0  -4   2   21.06    0.81
  -1   4  -2   88.52    1.86
  -1   4  -2   86.46    1.56
   1  -4   2   87.77    1.94
  -2   4  -2  179.36    3.41
   2  -4   2  182.79    3.46
  -3   4  -2   15.37    0.64
   3  -4   2   13.48    0.60
   3  -4   2   15.43    0.38
  -4   4  -2  256.80    4.78
   4  -4   2  257.63    4.39
   4  -4   2  259.02    4.73
  -5   4  -2   13.98    0.69
   5  -4   2   12.04    0.60
   5  -4   2   13.28    0.46
  -6   4  -2   20.00    0.87
   6  -4   2   19.52    0.65
   6  -4   2   18.23    0.75
  -7   4  -2  101.47    2.46
   7  -4   2  104.20    2.16
   7  -4   2  102.49    2.29
  -8   4  -2    0.45    0.32
   8  -4   2    0.17    0.18
   8  -4   2    0.27    0.19
  -9   4  -2   35.56    1.41
   9  -4   2   33.29    1.13
   9  -4   2   33.53    1.16
 -10   4  -2   76.15    2.29
  10  -4   2   78.84    2.01
 -11   4  -2    1.90    0.50
  11  -4   2    0.93    0.39
 -12   4  -2   23.70    1.40
 -13   4  -2    6.97    1.16
  11   3  -2   10.47    1.03
  10   3  -2   34.54    1.56
   9   3  -2   -0.47    0.28
   8   3  -2   81.51    2.26
   7   3  -2   71.71    1.84
   7   3  -2   74.83    2.07
  -7  -3   2   76.81    1.88
   6   3  -2   23.95    0.88
   6   3  -2   21.59    0.97
  -6  -3   2   23.10    0.89
   5   3  -2  103.10    2.20
   5   3  -2  104.34    2.38
  -5  -3   2  104.18    2.32
   4   3  -2  188.30    3.64
   4   3  -2  183.24    3.49
  -4  -3   2  187.22    3.65
   3   3  -2    3.07    0.30
   3   3  -2    2.40    0.29
   2   3  -2  253.53    4.49
   2   3  -2  249.46    4.46
  -2  -3   2  253.35    4.65
   1   3  -2   93.50    1.83
   1   3  -2   95.04    1.89
  -1  -3   2   96.59    2.04
   0   3  -2   21.15    0.63
   0   3  -2   20.39    0.51
   0  -3   2   21.82    0.72
  -1   3  -2  188.30    3.25
  -1   3  -2  198.04    3.55
   1  -3   2  201.31    3.61
  -2   3  -2   30.14    0.82
   2  -3   2   28.09    0.81
  -3   3  -2  187.61    3.45
   3  -3   2  184.63    3.11
   3  -3   2  180.88    3.42
  -4   3  -2  418.66    7.31
   4  -3   2  414.65    7.26
   4  -3   2  423.12    7.01
  -5   3  -2    8.04    0.50
   5  -3   2    7.56    0.36
   5  -3   2    6.91    0.42
  -6   3  -2   76.90    1.89
   6  -3   2   77.43    1.77
   6  -3   2   79.22    1.68
  -7   3  -2  119.22    2.66
   7  -3   2  119.80    2.44
   7  -3   2  116.83    2.49
  -8   3  -2    0.61    0.28
   8  -3   2    0.80    0.24
   8  -3   2    0.33    0.19
  -9   3  -2   42.75    1.50
   9  -3   2   41.39    1.31
   9  -3   2   43.72    1.28
 -10   3  -2   31.84    1.36
  10  -3   2   34.77    1.24
 -11   3  -2   10.22    0.91
  11  -3   2   10.15    0.75
 -12   3  -2   32.71    1.54
  12  -3   2   33.80    1.38
  13  -3   2   12.58    0.91
  11   2  -2   36.64    1.63
  10   2  -2   52.84    1.86
   9   2  -2    1.23    0.39
   8   2  -2   63.03    1.90
   7   2  -2   50.83    1.57
  -7  -2   2   50.80    1.35
   6   2  -2    2.36    0.33
   6   2  -2    2.02    0.34
  -6  -2   2    2.54    0.32
   5   2  -2   47.88    1.35
   5   2  -2   46.40    1.23
  -5  -2   2   46.23    1.23
   4   2  -2   26.64    0.89
   4   2  -2   26.48    0.81
  -4  -2   2   27.08    0.85
   3   2  -2  120.57    2.34
   3   2  -2  120.17    2.41
  -3  -2   2  122.05    2.43
   2   2  -2  364.36    6.08
   2   2  -2  348.86    6.09
  -2  -2   2  348.89    6.17
   1   2  -2  109.39    2.05
   1   2  -2  105.61    2.00
  -1  -2   2  109.56    2.14
   0   2  -2   49.30    1.07
   0   2  -2   51.03    0.96
   0  -2   2   49.94    1.12
  -1   2  -2    4.69    0.28
   1  -2   2    5.43    0.30
  -2   2  -2    1.48    0.19
   2  -2   2    2.03    0.21
  -3   2  -2  264.40    4.64
   3  -2   2  260.88    4.63
   3  -2   2  265.10    4.42
  -4   2  -2  160.98    3.02
   4  -2   2  160.93    2.84
   4  -2   2  154.81    2.96
  -5   2  -2   25.83    0.85
  -5   2  -2   26.13    0.78
   5  -2   2   28.06    0.76
  -6   2  -2  178.57    3.51
  -6   2  -2  180.79    3.37
   6  -2   2  177.07    3.35
  -7   2  -2   84.86    1.88
  -7   2  -2   86.25    2.05
   7  -2   2   85.99    1.92
  -8   2  -2    0.35    0.26
  -8   2  -2    0.40    0.18
   8  -2   2   -0.01    0.21
  -9   2  -2   69.52    1.99
  -9   2  -2   77.32    1.82
   9  -2   2   74.29    1.91
 -10   2  -2   17.87    0.99
  10  -2   2   19.13    0.92
 -11   2  -2   47.81    1.70
  11  -2   2   51.50    1.65
  12  -2   2   41.20    1.54
  13  -2   2    2.65    0.53
  11   1  -2   31.72    1.47
  10   1  -2   38.23    1.55
   9   1  -2    9.77    0.79
   8   1  -2   62.71    1.83
   7   1  -2   46.94    1.47
  -7  -1   2   47.67    1.64
   6   1  -2   39.33    1.24
  -6  -1   2   40.75    1.05
   5   1  -2  101.21    2.25
   5   1  -2  101.16    2.16
  -5  -1   2  104.67    2.07
   4   1  -2   23.09    0.79
   4   1  -2   24.04    0.75
  -4  -1   2   23.16    0.69
   3   1  -2   55.53    1.29
   3   1  -2   56.06    1.25
  -3  -1   2   55.72    1.23
   2   1  -2  125.06    2.31
   2   1  -2  123.69    2.33
  -2  -1   2  123.33    2.32
   1   1  -2   51.10    1.04
   1   1  -2   51.29    1.07
  -1  -1   2   50.68    1.08
   0   1  -2  453.25    7.65
   0   1  -2  461.30    7.62
   0  -1   2  461.90    7.66
  -1   1  -2  285.15    4.87
   1  -1   2  289.76    4.90
  -2   1  -2    7.93    0.31
   2  -1   2    6.82    0.30
   2  -1   2    6.91    0.21
  -3   1  -2   73.67    1.48
  -3   1  -2   74.03    1.49
   3  -1   2   73.43    1.39
  -4   1  -2   53.07    1.17
  -4   1  -2   52.87    1.20
   4  -1   2   52.71    1.13
  -5   1  -2  239.54    4.37
  -5   1  -2  241.46    4.31
   5  -1   2  243.83    4.31
  -6   1  -2  379.20    6.67
  -6   1  -2  372.97    6.57
   6  -1   2  380.42    6.62
  -7   1  -2   75.62    1.83
  -7   1  -2   76.87    1.73
   7  -1   2   78.07    1.81
  -8   1  -2   12.51    0.62
  -8   1  -2   12.51    0.69
   8  -1   2   13.25    0.73
  -9   1  -2  106.73    2.63
  -9   1  -2  118.47    2.51
   9  -1   2  119.48    2.66
 -10   1  -2    5.42    0.58
 -10   1  -2    6.16    0.75
  10  -1   2    6.03    0.60
  11  -1   2   13.63    0.96
  12  -1   2   34.85    1.46
  13  -1   2    0.61    0.40
  12   0  -2    5.93    0.74
  11   0  -2   42.31    1.66
  10   0  -2    6.59    0.69
   9   0  -2   50.50    1.65
   8   0  -2  110.09    2.64
   7   0  -2   16.97    0.82
   6   0  -2   48.15    1.35
  -6   0   2   45.34    1.06
   5   0  -2  151.21    3.02
  -5   0   2  149.16    2.73
   4   0  -2    4.48    0.36
   4   0  -2    4.45    0.34
  -4   0   2    4.97    0.26
   3   0  -2   75.47    1.57
   3   0  -2   75.06    1.58
  -3   0   2   73.74    1.43
   2   0  -2  286.03    4.78
   2   0  -2  275.00    4.76
  -2   0   2  268.18    4.66
   1   0  -2    4.90    0.25
   1   0  -2    4.94    0.24
  -1   0   2    5.12    0.22
   0   0  -2  715.14   11.90
   0   0  -2  711.41   11.94
   0   0   2  709.24   11.90
  -1   0  -2   34.49    0.64
  -1   0  -2   34.09    0.69
  -1   0  -2   33.66    0.71
  -2   0  -2  145.68    2.57
  -2   0  -2  152.27    2.63
   2   0   2  147.68    2.54
  -3   0  -2  538.29    8.93
  -3   0  -2  531.87    8.88
   3   0   2  534.86    8.88
  -4   0  -2  209.76    3.73
  -4   0  -2  213.79    3.70
   4   0   2  206.00    3.72
  -5   0  -2   49.50    1.15
  -5   0  -2   48.50    1.15
   5   0   2   48.04    1.18
  -6   0  -2  322.73    5.75
  -6   0  -2  322.85    5.73
   6   0   2  330.21    5.81
  -7   0  -2   38.73    1.07
  -7   0  -2   37.65    1.11
   7   0   2   38.34    1.15
  -8   0  -2   50.22    1.44
  -8   0  -2   57.03    1.42
   8   0   2   55.70    1.55
  -9   0  -2  102.11    2.44
  -9   0  -2  107.95    2.35
   9   0   2  108.10    2.54
 -10   0  -2    0.14    0.20
  10   0   2   -0.24    0.28
  11   0   2   19.76    1.13
  12   0   2   23.21    1.22
  13   0   2   -0.20    0.34
  12  -1  -2   13.79    1.07
  11  -1  -2   58.24    1.98
  10  -1  -2    2.67    0.47
   9  -1  -2   59.17    1.80
   8  -1  -2  191.11    3.97
   7  -1  -2    0.35    0.21
   6  -1  -2   41.70    1.24
  -6   1   2   42.75    0.94
   5  -1  -2   66.43    1.57
  -5   1   2   63.27    1.25
   4  -1  -2   28.55    0.85
  -4   1   2   27.44    0.60
   3  -1  -2   96.80    1.91
  -3   1   2   92.95    1.64
   2  -1  -2  271.93    4.68
   2  -1  -2  271.40    4.70
   1  -1  -2  222.82    3.78
   1  -1  -2  218.76    3.80
   0  -1  -2  104.97    1.81
   0  -1  -2  101.07    1.75
   0  -1  -2  100.63    1.80
  -1  -1  -2   57.15    1.02
  -1  -1  -2   59.40    1.08
  -1  -1  -2   55.89    1.09
  -2  -1  -2  124.72    2.24
  -2  -1  -2  122.28    2.09
   2   1   2  125.49    2.20
  -3  -1  -2    5.14    0.28
  -3  -1  -2    5.37    0.21
   3   1   2    5.65    0.28
  -4  -1  -2    8.99    0.40
  -4  -1  -2    9.33    0.34
   4   1   2    9.66    0.43
  -5  -1  -2  195.10    3.57
   5   1   2  193.79    3.61
  -6  -1  -2  193.35    3.62
   6   1   2  193.16    3.70
  -7  -1  -2    0.29    0.16
   7   1   2    0.43    0.23
  -8  -1  -2   77.37    1.84
   8   1   2   79.78    2.01
  -9  -1  -2   58.57    1.58
   9   1   2   63.86    1.81
 -10  -1  -2    4.17    0.44
  10   1   2    3.12    0.50
  11   1   2   24.68    1.27
  12   1   2   10.12    0.92
  13   1   2    9.97    0.97
  12  -2  -2   20.45    1.21
  11  -2  -2   30.64    1.38
  10  -2  -2    0.61    0.34
   9  -2  -2   74.27    2.06
   8  -2  -2   74.18    1.98
   7  -2  -2    0.99    0.27
   6  -2  -2  228.65    4.46
  -6   2   2  241.31    4.06
   5  -2  -2   79.45    1.82
  -5   2   2   81.79    1.48
   4  -2  -2   82.30    1.77
   3  -2  -2  116.66    2.26
   2  -2  -2  283.01    4.88
   1  -2  -2  240.94    3.97
   1  -2  -2  236.97    4.09
   0  -2  -2  130.54    2.30
   0  -2  -2  132.09    2.32
  -1  -2  -2   31.22    0.70
  -1  -2  -2   30.71    0.72
  -2  -2  -2 1000.00   16.65
   2   2   2  985.26   16.96
  -3  -2  -2  261.67    4.57
   3   2   2  257.01    4.52
  -4  -2  -2    7.26    0.39
  -5  -2  -2  105.31    2.16
   5   2   2  102.32    2.17
  -6  -2  -2   98.21    2.13
   6   2   2  100.51    2.20
  -7  -2  -2   10.37    0.55
   7   2   2   10.11    0.65
  -8  -2  -2   85.07    2.02
   8   2   2   89.27    2.20
  -9  -2  -2   10.70    0.64
   9   2   2   10.71    0.81
 -10  -2  -2   20.42    0.90
  10   2   2   18.33    1.06
  11   2   2   25.61    1.34
  12   2   2    3.02    0.56
  13   2   2   16.03    1.20
  12  -3  -2   34.39    1.53
  11  -3  -2   25.68    1.24
  10  -3  -2    6.11    0.67
   9  -3  -2   92.53    2.37
   8  -3  -2   52.33    1.57
   7  -3  -2    2.90    0.37
   6  -3  -2   81.48    1.92
   5  -3  -2   15.02    0.42
   5  -3  -2   15.36    0.65
   4  -3  -2   80.55    1.72
   4  -3  -2   76.37    1.42
   3  -3  -2  363.21    6.03
   3  -3  -2  361.82    6.25
   2  -3  -2  150.08    2.65
   2  -3  -2  153.15    2.77
   1  -3  -2   91.80    1.74
   1  -3  -2   92.23    1.75
   0  -3  -2  352.38    6.04
   0  -3  -2  356.13    5.98
  -1  -3  -2  291.32    4.91
  -1  -3  -2  279.32    4.99
   1   3   2  290.92    4.77
   1   3   2  286.12    4.91
  -2  -3  -2  570.75    9.78
   2   3   2  587.94    9.69
  -3  -3  -2   61.05    1.42
   3   3   2   62.52    1.35
  -4  -3  -2  259.86    4.76
   4   3   2  262.57    4.70
  -5  -3  -2  182.04    3.55
   5   3   2  185.37    3.54
  -6  -3  -2   74.75    1.80
   6   3   2   76.53    1.84
  -7  -3  -2   32.48    1.07
   7   3   2   32.27    1.15
  -8  -3  -2  142.79    3.07
   8   3   2  147.64    3.23
  -9  -3  -2    4.53    0.48
   9   3   2    3.86    0.53
 -10  -3  -2   39.06    1.31
  10   3   2   37.88    1.53
  11   3   2   30.53    1.46
  12   3   2   -0.02    0.40
  12  -4  -2   26.26    1.31
  11  -4  -2    6.78    0.72
  10  -4  -2   31.78    1.33
   9  -4  -2   56.58    1.74
   8  -4  -2   46.44    1.46
   7  -4  -2   45.35    1.36
   6  -4  -2  134.26    2.81
   5  -4  -2    0.69    0.19
   5  -4  -2    0.66    0.13
   4  -4  -2  176.62    3.35
   4  -4  -2  179.19    3.15
   3  -4  -2   99.62    1.91
   3  -4  -2  100.80    2.01
   2  -4  -2   35.26    0.88
   2  -4  -2   35.76    0.89
   1  -4  -2   99.99    2.04
   1  -4  -2  107.74    2.00
   0  -4  -2  205.71    3.61
   0  -4  -2  199.24    3.72
   0   4   2  206.80    3.57
  -1  -4  -2  190.62    3.32
  -1  -4  -2  175.31    3.44
   1   4   2  183.46    3.30
   1   4   2  186.55    3.17
  -2  -4  -2  316.06    5.61
   2   4   2  312.48    5.44
   2   4   2  310.45    5.19
  -3  -4  -2   16.75    0.68
   3   4   2   18.30    0.63
  -4  -4  -2  310.81    5.60
   4   4   2  323.84    5.51
   4   4   2  284.90    5.08
  -5  -4  -2  123.66    2.67
   5   4   2  125.06    2.61
  -6  -4  -2   32.19    1.09
   6   4   2   32.14    1.11
  -7  -4  -2   72.12    1.88
   7   4   2   74.93    1.96
  -8  -4  -2  109.57    2.59
   8   4   2  112.85    2.73
  -9  -4  -2    9.55    0.69
   9   4   2   12.72    0.93
 -10  -4  -2   10.17    0.72
  10   4   2    8.74    0.84
  11   4   2   12.76    1.12
  12   4   2    5.80    0.78
  12  -5  -2   21.86    1.23
 -12   5   2   21.66    1.39
  11  -5  -2   -0.20    0.28
 -11   5   2    0.17    0.41
  10  -5  -2   52.43    1.74
   9  -5  -2   73.25    2.03
   8  -5  -2   15.70    0.83
   7  -5  -2   14.02    0.74
   6  -5  -2   32.60    1.06
   5  -5  -2    5.37    0.41
   5  -5  -2    4.75    0.33
   4  -5  -2  406.52    7.12
   4  -5  -2  411.43    7.02
   3  -5  -2    0.68    0.17
   3  -5  -2    0.87    0.20
   2  -5  -2    1.99    0.22
   2  -5  -2    1.89    0.26
  -2   5   2    1.72    0.27
   1  -5  -2  166.20    3.34
   1  -5  -2  185.63    3.24
  -1   5   2  177.48    3.27
   0  -5  -2  103.05    2.22
   0  -5  -2  107.19    2.06
   0   5   2  104.48    2.03
  -1  -5  -2  136.76    2.80
  -1  -5  -2  137.38    2.61
   1   5   2  140.07    2.49
   1   5   2  135.86    2.60
  -2  -5  -2  324.60    5.80
   2   5   2  316.02    5.55
   2   5   2  307.64    5.31
  -3  -5  -2   29.06    1.01
   3   5   2   29.43    0.64
   3   5   2   28.29    0.88
  -4  -5  -2  246.75    4.73
   4   5   2  253.39    4.58
   4   5   2  237.21    4.15
  -5  -5  -2  154.69    3.27
   5   5   2  148.76    2.87
   5   5   2  160.24    3.19
  -6  -5  -2    6.26    0.56
   6   5   2    5.30    0.52
  -7  -5  -2   71.19    1.95
   7   5   2   72.39    1.99
  -8  -5  -2   26.83    1.13
   8   5   2   29.79    1.31
  -9  -5  -2   27.10    1.15
   9   5   2   27.28    1.30
 -10  -5  -2   52.76    1.73
  10   5   2   54.51    1.95
  11   5   2   11.30    1.08
  12   5   2    5.56    0.78
  12  -6  -2   17.98    1.10
 -12   6   2   16.67    1.33
  11  -6  -2    8.60    0.81
 -11   6   2    9.15    0.97
  10  -6  -2   51.61    1.71
 -10   6   2   52.60    1.95
   9  -6  -2   54.18    1.69
  -9   6   2   54.56    1.91
   8  -6  -2    1.10    0.32
  -8   6   2    0.77    0.42
   7  -6  -2   59.09    1.61
  -7   6   2   56.35    1.80
   6  -6  -2   18.23    0.78
  -6   6   2   15.11    0.89
   5  -6  -2   58.81    1.40
   5  -6  -2   57.18    1.46
  -5   6   2   57.05    1.63
   4  -6  -2   48.13    1.24
   4  -6  -2   46.74    1.22
  -4   6   2   45.61    1.37
   3  -6  -2   21.28    0.78
   3  -6  -2   20.17    0.70
  -3   6   2   20.85    0.82
   2  -6  -2  149.11    2.80
   2  -6  -2  144.32    2.93
  -2   6   2  143.07    2.89
   1  -6  -2  131.63    2.77
   1  -6  -2  134.73    2.58
  -1   6   2  133.39    2.63
   0  -6  -2    2.80    0.38
   0  -6  -2    3.37    0.30
   0   6   2    3.63    0.35
  -1  -6  -2  115.67    2.34
  -1  -6  -2  117.78    2.60
   1   6   2  120.01    2.36
   1   6   2  118.71    2.25
  -2  -6  -2  158.62    3.35
   2   6   2  159.83    2.88
   2   6   2  162.87    3.10
  -3  -6  -2   11.19    0.69
   3   6   2   11.14    0.57
   3   6   2   10.70    0.38
  -4  -6  -2  174.79    3.71
   4   6   2  183.02    3.54
   4   6   2  174.44    3.13
  -5  -6  -2  102.66    2.50
   5   6   2  102.02    2.37
  -6  -6  -2   11.10    0.75
   6   6   2   12.46    0.79
  -7  -6  -2   90.24    2.40
   7   6   2   94.15    2.42
  -8  -6  -2   30.52    1.27
   8   6   2   29.92    1.35
  -9  -6  -2    3.89    0.56
   9   6   2    4.85    0.68
 -10  -6  -2   34.42    1.43
  10   6   2   35.41    1.62
  11   6   2    1.09    0.55
  11  -7  -2    6.15    0.70
 -11   7   2    8.35    0.94
  10  -7  -2   43.03    1.56
 -10   7   2   43.01    1.83
   9  -7  -2    9.89    0.76
  -9   7   2    9.12    0.88
   8  -7  -2   46.94    1.50
  -8   7   2   50.18    1.79
   7  -7  -2  168.09    3.46
  -7   7   2  162.89    3.73
   6  -7  -2   85.24    2.00
  -6   7   2   81.72    2.23
   5  -7  -2   23.80    0.91
   5  -7  -2   24.68    0.88
  -5   7   2   24.80    1.08
   4  -7  -2   24.56    0.83
   4  -7  -2   24.19    0.92
  -4   7   2   21.96    0.99
   3  -7  -2    5.70    0.51
   3  -7  -2    5.51    0.40
  -3   7   2    5.46    0.52
   2  -7  -2  123.03    2.46
   2  -7  -2  122.64    2.66
  -2   7   2  119.55    2.56
   1  -7  -2  104.48    2.16
   1  -7  -2  103.49    2.40
  -1   7   2  104.55    2.22
   0  -7  -2   13.79    0.58
   0  -7  -2   11.14    0.72
   0   7   2   13.97    0.60
   0   7   2   12.24    0.57
  -1  -7  -2  149.61    2.98
  -1  -7  -2  153.09    3.31
   1   7   2  158.41    3.02
   1   7   2  152.62    2.90
  -2  -7  -2   25.31    1.06
   2   7   2   26.67    0.89
   2   7   2   25.17    0.73
  -3  -7  -2    2.99    0.45
   3   7   2    2.98    0.35
   3   7   2    3.57    0.28
  -4  -7  -2  118.70    2.84
   4   7   2  117.52    2.60
  -5  -7  -2   29.58    1.23
   5   7   2   28.72    1.13
  -6  -7  -2   36.66    1.40
   6   7   2   33.89    1.34
  -7  -7  -2   58.68    1.89
   7   7   2   58.60    1.86
  -8  -7  -2   -0.14    0.28
   8   7   2    0.08    0.42
  -9  -7  -2   18.35    1.11
   9   7   2   18.54    1.23
 -10  -7  -2   17.60    1.11
  10   7   2   18.94    1.31
 -11  -7  -2   -0.13    0.27
  11   7   2   -0.92    0.43
 -11   8   2   19.23    1.80
 -10   8   2   37.67    1.76
  -9   8   2   14.03    1.12
   8  -8  -2   13.94    0.80
  -8   8   2   12.73    1.06
   7  -8  -2   10.44    0.68
  -7   8   2   10.28    0.95
   6  -8  -2   10.53    0.64
  -6   8   2   11.51    0.90
   5  -8  -2   38.75    1.17
   5  -8  -2   37.41    1.77
  -5   8   2   38.98    1.41
   4  -8  -2   41.88    1.20
   4  -8  -2   44.05    1.37
  -4   8   2   42.05    1.40
   3  -8  -2    3.43    0.45
   3  -8  -2    1.55    0.25
  -3   8   2    1.20    0.35
   2  -8  -2  115.62    2.44
   2  -8  -2  118.37    2.71
  -2   8   2  117.53    2.58
   1  -8  -2    6.59    0.63
   1  -8  -2    5.79    0.43
  -1   8   2    6.90    0.56
   0  -8  -2   62.10    1.84
   0  -8  -2   65.01    1.56
   0   8   2   68.30    1.60
   0   8   2   64.19    1.57
  -1  -8  -2   58.66    1.76
   1   8   2   56.91    1.46
   1   8   2   54.78    1.37
  -2  -8  -2    4.12    0.52
   2   8   2    5.68    0.39
   2   8   2    5.56    0.49
  -3  -8  -2   74.04    2.13
   3   8   2   74.40    1.87
  -4  -8  -2  158.79    3.62
   4   8   2  155.69    3.33
  -5  -8  -2    2.93    0.51
   5   8   2    2.90    0.48
  -6  -8  -2   85.49    2.46
   6   8   2   88.89    2.35
  -7  -8  -2   54.22    1.88
   7   8   2   51.80    1.81
  -8  -8  -2    0.71    0.38
   8   8   2   -0.05    0.42
  -9  -8  -2   32.98    1.50
   9   8   2   31.34    1.58
 -10  -8  -2   22.35    1.28
  10   8   2   17.86    1.37
 -11  -8  -2    5.52    0.75
 -10   9   2   33.43    1.71
  -9   9   2    0.70    0.48
  -8   9   2   50.06    1.90
  -7   9   2   23.00    1.28
  -6   9   2   14.15    0.99
  -5   9   2   61.62    1.91
   4  -9  -2   19.14    0.80
   4  -9  -2   19.88    0.98
  -4   9   2   19.08    1.03
   3  -9  -2   29.97    0.98
   3  -9  -2   28.23    1.19
  -3   9   2   28.22    1.13
   2  -9  -2   95.79    2.17
   2  -9  -2  100.36    2.53
  -2   9   2   99.92    2.36
   1  -9  -2    4.62    0.44
   1  -9  -2    7.01    0.70
   0  -9  -2   82.41    1.94
   0  -9  -2   86.12    2.32
   0   9   2   87.71    2.00
   0   9   2   83.05    1.95
  -1  -9  -2   23.29    1.15
   1   9   2   23.38    0.90
   1   9   2   23.94    0.86
  -2  -9  -2    0.62    0.34
  -3  -9  -2   89.11    2.50
   3   9   2   87.99    2.18
  -4  -9  -2   80.16    2.38
   4   9   2   81.31    2.13
  -5  -9  -2    1.83    0.48
   5   9   2    1.24    0.41
  -6  -9  -2   54.27    1.92
   6   9   2   50.19    1.76
  -7  -9  -2   14.64    1.05
   7   9   2   11.66    1.03
  -8  -9  -2   -0.01    0.31
   8   9   2    0.40    0.50
  -9  -9  -2   17.89    1.21
   9   9   2   18.79    1.40
 -10  -9  -2    3.43    0.66
  -9  10   2    2.04    0.61
  -8  10   2   29.15    1.52
  -7  10   2    3.95    0.66
  -6  10   2   23.88    1.26
  -5  10   2   78.38    2.27
   4 -10  -2    5.12    0.63
  -4  10   2    5.52    0.63
   3 -10  -2   52.30    1.76
  -3  10   2   50.04    1.63
   2 -10  -2   54.43    1.80
  -2  10   2   53.01    1.62
   1 -10  -2    1.31    0.44
  -1  10   2    1.50    0.39
   0 -10  -2   94.01    2.58
   0  10   2   91.89    2.19
  -1 -10  -2   52.24    1.84
  -2 -10  -2    0.60    0.38
   2  10   2    0.21    0.29
  -3 -10  -2   91.34    2.67
   3  10   2   95.78    2.36
  -4 -10  -2   20.90    1.24
   4  10   2   19.54    1.06
  -5 -10  -2   12.22    1.00
   5  10   2   10.99    0.93
  -6 -10  -2   58.13    2.10
   6  10   2   58.66    1.99
  -7 -10  -2   12.00    1.05
   7  10   2   11.09    1.06
  -8 -10  -2    6.06    0.83
   8  10   2    4.50    0.75
  -9 -10  -2   27.39    2.23
   9  10   2   29.08    1.70
  -8  11   2   39.80    1.80
  -7  11   2    2.76    0.62
  -6  11   2   23.40    1.31
  -5  11   2   46.18    1.74
   4 -11  -2   -0.43    0.31
  -4  11   2   -0.07    0.36
   3 -11  -2   49.13    1.79
  -3  11   2   47.56    1.64
   2 -11  -2   38.80    1.59
  -2  11   2   34.56    1.36
   1 -11  -2    3.92    0.63
  -1  11   2    3.80    0.53
   0 -11  -2   45.11    1.78
  -1 -11  -2   45.65    1.79
  -2 -11  -2    4.30    0.66
  -3 -11  -2   17.72    1.20
  -4 -11  -2    2.87    0.62
  -5 -11  -2   22.39    1.37
  -6 -11  -2   29.19    1.53
  -7 -11  -2    1.96    0.53
  -7  12   2    1.84    0.60
  -6  12   2   26.70    1.41
  -5  12   2   12.09    1.02
  -4  12   2    6.61    0.75
   3 -12  -2   44.78    1.79
  -3  12   2   43.44    1.61
   2 -12  -2    6.61    0.81
  -2  12   2    6.91    0.72
   1 -12  -2   17.30    1.22
   0 -12  -2   43.24    1.81
  -1 -12  -2    3.06    0.64
  -2 -12  -2   45.89    1.94
  -3 -12  -2   34.43    1.69
  -4 -12  -2    0.77    0.47
  -5 -12  -2   21.58    1.39
  -6  13   2   33.98    1.79
  -5  13   2    8.57    0.90
  -4  13   2   11.57    0.98
   3 -13  -2   57.72    2.14
  -3  13   2   51.44    1.85
   2 -13  -2    1.36    0.52
   1 -13  -2   11.36    1.08
   0 -13  -2   40.71    1.83
  -1 -13  -2    3.84    0.73
  -2 -13  -2   47.94    2.05
  -3 -13  -2   40.20    1.93
   3 -14  -2   25.40    1.53
   2 -14  -2    0.99    0.51
   1 -14  -2   27.48    1.63
  -1  12  -3   15.45    1.28
  -2  12  -3    0.40    0.46
  -3  12  -3   12.32    1.09
  -4  12  -3   10.39    1.54
  -2 -11   3   25.03    2.09
  -1 -11   3    0.22    0.44
   0  11  -3   23.81    1.25
   0 -11   3   24.43    1.51
  -1  11  -3   12.71    0.99
   1 -11   3   12.97    1.20
  -2  11  -3    1.97    0.55
   2 -11   3    1.94    0.63
  -3  11  -3   27.65    1.40
   3 -11   3   28.34    1.59
  -4  11  -3    8.20    0.90
   4 -11   3    6.46    0.91
  -5  11  -3    3.14    0.64
   5 -11   3    2.73    0.73
  -6  11  -3   23.30    1.36
   6 -11   3   21.37    1.45
   7 -11   3    2.71    0.70
  -5 -10   3   28.10    2.04
  -4 -10   3    0.39    0.40
  -3 -10   3   20.46    1.39
  -2 -10   3   11.23    1.09
   1  10  -3    7.44    0.73
  -1 -10   3    6.68    0.84
   0  10  -3   43.44    1.57
   0 -10   3   42.35    1.82
  -1  10  -3    4.71    0.65
   1 -10   3    5.33    0.81
  -2  10  -3   19.23    1.11
   2 -10   3   18.04    1.27
  -3  10  -3   48.11    1.74
   3 -10   3   46.95    1.92
  -4  10  -3   -0.10    0.41
   4 -10   3   -0.01    0.41
  -5  10  -3   18.50    1.16
   5 -10   3   18.16    1.28
  -6  10  -3   30.30    1.49
   6 -10   3   35.01    1.66
  -7  10  -3    0.83    0.50
   7 -10   3    1.55    0.56
  -8  10  -3   25.28    1.49
   8 -10   3   30.11    1.55
  -6  -9   3   23.41    1.40
  -5  -9   3   12.44    1.08
  -4  -9   3   20.33    1.28
  -3  -9   3   45.69    1.84
   2   9  -3    7.16    0.69
  -2  -9   3    7.92    0.89
   1   9  -3    8.41    0.73
  -1  -9   3    8.16    0.89
   0   9  -3   73.19    2.05
   0  -9   3   73.03    2.33
  -1   9  -3    3.29    0.54
   1  -9   3    2.73    0.60
  -2   9  -3   33.49    1.37
   2  -9   3   33.24    1.54
  -3   9  -3   31.88    1.35
   3  -9   3   33.07    1.52
  -4   9  -3    1.37    0.48
   4  -9   3    1.35    0.49
  -5   9  -3   55.31    1.87
   5  -9   3   54.78    1.94
  -6   9  -3   58.52    2.00
   6  -9   3   62.71    2.07
  -7   9  -3    0.17    0.44
   7  -9   3   -0.20    0.36
  -8   9  -3   18.60    1.24
   8  -9   3   17.35    1.17
  -9   9  -3   15.38    1.19
  -7  -8   3    2.26    0.54
  -6  -8   3   50.24    1.93
  -5  -8   3    5.12    0.70
  -4  -8   3   25.65    1.36
   3   8  -3   60.27    1.74
  -3  -8   3   63.70    2.10
   2   8  -3    3.33    0.47
  -2  -8   3    4.28    0.65
   1   8  -3   46.59    1.48
  -1  -8   3   46.22    1.72
   0   8  -3   93.59    2.34
   0  -8   3   96.27    2.64
  -1   8  -3    2.43    0.46
   1  -8   3    3.24    0.56
  -2   8  -3   49.14    1.57
   2  -8   3   46.38    1.70
  -3   8  -3   15.59    0.93
   3  -8   3   14.95    1.00
  -4   8  -3    8.07    0.76
   4  -8   3    8.47    0.84
  -5   8  -3   70.51    2.09
   5  -8   3   71.84    2.13
  -6   8  -3   24.48    1.22
   6  -8   3   23.31    1.20
  -7   8  -3    0.11    0.40
   7  -8   3    0.10    0.33
  -8   8  -3   29.29    1.42
   8  -8   3   28.37    1.32
  -9   8  -3    3.51    0.65
 -10   8  -3    9.07    0.99
  -7  -7   3   11.89    0.95
  -6  -7   3   67.95    2.18
  -5  -7   3    0.79    0.39
   4   7  -3   36.36    1.23
  -4  -7   3   35.63    1.49
   3   7  -3   26.65    1.03
  -3  -7   3   27.17    1.27
   2   7  -3   10.07    0.66
  -2  -7   3   10.17    0.87
   1   7  -3   41.83    1.31
  -1  -7   3   41.19    1.54
   0   7  -3   30.16    1.10
   0  -7   3   29.84    1.29
  -1   7  -3   26.98    1.07
   1  -7   3   26.86    1.20
  -2   7  -3   99.00    2.36
   2  -7   3   95.70    2.49
  -3   7  -3    6.22    0.62
   3  -7   3    7.15    0.71
  -4   7  -3   24.81    1.09
   4  -7   3   25.35    1.15
  -5   7  -3   91.91    2.41
   5  -7   3   99.45    2.46
  -6   7  -3    4.51    0.60
   6  -7   3    4.30    0.56
  -7   7  -3   34.26    1.42
   7  -7   3   33.70    1.34
  -8   7  -3   63.90    2.07
   8  -7   3   63.65    1.93
  -9   7  -3    1.37    0.52
   9  -7   3    0.32    0.33
 -10   7  -3   24.19    1.40
 -11   7  -3   29.31    1.56
   9   6  -3   53.03    2.03
   8   6  -3    1.47    0.46
   7   6  -3   34.22    1.49
  -7  -6   3   35.87    1.52
   6   6  -3   36.32    1.46
  -6  -6   3   37.25    1.48
   5   6  -3    4.69    0.55
   5   6  -3    3.09    0.42
  -5  -6   3    3.24    0.52
   4   6  -3   38.09    1.21
   4   6  -3   36.33    1.31
  -4  -6   3   35.91    1.42
   3   6  -3   48.26    1.38
  -3  -6   3   46.97    1.61
   2   6  -3   44.85    1.31
  -2  -6   3   45.87    1.56
   1   6  -3  132.52    2.78
  -1  -6   3  127.66    3.01
   0   6  -3  104.40    2.33
   0  -6   3  102.91    2.54
  -1   6  -3    0.31    0.25
   1  -6   3    0.58    0.28
  -2   6  -3   50.94    1.45
   2  -6   3   48.28    1.51
  -3   6  -3    2.23    0.36
   3  -6   3    2.43    0.40
  -4   6  -3   45.28    1.42
   4  -6   3   45.08    1.43
  -5   6  -3   89.90    2.26
   5  -6   3   91.15    2.25
  -6   6  -3    0.25    0.30
  -7   6  -3   62.14    1.92
   7  -6   3   64.81    1.83
  -8   6  -3   69.56    2.09
   8  -6   3   67.10    1.91
  -9   6  -3    0.54    0.42
   9  -6   3    1.09    0.37
 -10   6  -3   35.28    1.61
 -11   6  -3   21.19    1.32
 -12   6  -3    1.63    0.61
  10   5  -3   21.94    1.40
   9   5  -3   26.02    1.42
   8   5  -3   -0.21    0.33
   7   5  -3   49.78    1.75
   6   5  -3   17.72    0.86
   6   5  -3   17.52    1.00
  -6  -5   3   16.40    0.92
   5   5  -3   24.14    1.06
   5   5  -3   23.10    0.93
  -5  -5   3   24.02    1.10
   4   5  -3   50.73    1.40
   4   5  -3   50.98    1.50
  -4  -5   3   48.55    1.59
   3   5  -3   21.67    0.86
   3   5  -3   21.95    0.85
  -3  -5   3   22.13    1.03
   2   5  -3   51.46    1.36
   2   5  -3   49.20    1.31
  -2  -5   3   52.76    1.58
   1   5  -3  158.70    3.15
   1   5  -3  152.95    2.98
  -1  -5   3  162.52    3.39
   0   5  -3    0.69    0.23
   0  -5   3    0.56    0.27
  -1   5  -3   80.03    1.85
   1  -5   3   76.39    1.93
  -2   5  -3   77.66    1.86
   2  -5   3   80.13    1.94
  -3   5  -3    0.28    0.21
  -4   5  -3   90.92    2.13
   4  -5   3   87.95    2.11
  -5   5  -3   65.25    1.77
   5  -5   3   67.83    1.75
  -6   5  -3   20.91    0.97
   6  -5   3   19.95    0.88
  -7   5  -3  166.98    3.62
   7  -5   3  164.51    3.47
  -8   5  -3   26.01    1.19
   8  -5   3   24.00    1.04
  -9   5  -3    3.13    0.57
   9  -5   3    3.60    0.49
 -10   5  -3   54.49    1.93
 -11   5  -3   14.04    1.09
 -12   5  -3   13.56    1.17
 -13   5  -3   40.54    1.86
  10   4  -3   43.73    1.82
   9   4  -3   12.80    1.05
   8   4  -3   16.82    1.06
   7   4  -3   58.64    1.71
   7   4  -3   63.46    1.94
   6   4  -3    0.87    0.29
   6   4  -3    0.79    0.32
  -6  -4   3    0.52    0.26
   5   4  -3   13.07    0.68
   5   4  -3   11.96    0.74
  -5  -4   3   13.61    0.78
   4   4  -3  179.80    3.63
   4   4  -3  181.83    3.53
  -4  -4   3  177.22    3.71
   3   4  -3    0.62    0.23
   3   4  -3    0.85    0.24
  -3  -4   3    0.77    0.30
   2   4  -3   69.89    1.63
   2   4  -3   69.22    1.60
  -2  -4   3   70.91    1.81
   1   4  -3   99.33    2.08
   1   4  -3   96.21    1.95
  -1  -4   3   97.13    2.24
   0   4  -3    7.90    0.33
   0   4  -3    8.25    0.47
   0  -4   3    8.50    0.54
  -1   4  -3   91.14    1.97
   1  -4   3   91.34    2.05
  -2   4  -3   94.56    2.02
   2  -4   3   88.93    2.03
  -3   4  -3    7.65    0.50
   3  -4   3    7.60    0.50
  -4   4  -3  138.23    2.88
   4  -4   3  142.25    2.88
   4  -4   3  139.75    2.40
  -5   4  -3   90.24    2.13
   5  -4   3   95.09    2.13
   5  -4   3   91.13    1.73
  -6   4  -3    3.89    0.46
   6  -4   3    2.99    0.37
   6  -4   3    3.18    0.28
  -7   4  -3   59.41    1.72
   7  -4   3   58.82    1.61
   7  -4   3   59.10    1.60
  -8   4  -3    8.64    0.74
   8  -4   3    8.02    0.60
  -9   4  -3   42.20    1.55
   9  -4   3   40.78    1.35
 -10   4  -3   43.84    1.67
 -11   4  -3    3.12    0.57
 -12   4  -3   17.25    1.22
  10   3  -3   33.35    1.54
   9   3  -3    7.31    0.76
   8   3  -3   44.92    1.62
   7   3  -3   64.39    1.78
   7   3  -3   67.87    1.98
   6   3  -3    2.40    0.37
   6   3  -3    1.58    0.38
  -6  -3   3    2.57    0.38
   5   3  -3  124.19    2.73
   5   3  -3  121.14    2.60
  -5  -3   3  121.67    2.67
   4   3  -3  131.02    2.78
   4   3  -3  131.77    2.69
  -4  -3   3  131.17    2.80
   3   3  -3    0.46    0.18
   3   3  -3    0.52    0.19
  -3  -3   3    0.79    0.27
   2   3  -3  140.23    2.70
   2   3  -3  131.98    2.65
  -2  -3   3  140.68    2.85
   1   3  -3   36.58    0.98
   1   3  -3   35.37    0.89
  -1  -3   3   38.13    1.09
   0   3  -3   69.41    1.52
   0   3  -3   65.98    1.30
   0  -3   3   68.72    1.59
  -1   3  -3   56.31    1.32
   1  -3   3   56.69    1.37
  -2   3  -3  119.73    2.39
   2  -3   3  119.55    2.42
  -3   3  -3   38.26    1.05
   3  -3   3   38.73    1.07
  -4   3  -3   84.21    1.88
   4  -3   3   84.16    1.88
   4  -3   3   84.35    1.53
  -5   3  -3    0.79    0.22
  -6   3  -3  117.96    2.56
   6  -3   3  117.27    2.26
   6  -3   3  113.57    2.47
  -7   3  -3   70.60    1.84
   7  -3   3   69.19    1.58
   7  -3   3   69.40    1.74
  -8   3  -3    6.38    0.61
   8  -3   3    5.02    0.48
   8  -3   3    5.29    0.46
  -9   3  -3   53.15    1.72
   9  -3   3   55.68    1.57
   9  -3   3   55.73    1.52
 -10   3  -3   71.69    2.11
  10  -3   3   71.07    1.92
  10  -3   3   70.70    1.87
 -11   3  -3    0.29    0.36
  11  -3   3    0.50    0.31
 -12   3  -3   42.73    1.77
  11   2  -3   16.44    1.16
  10   2  -3   34.61    1.53
   9   2  -3   -0.04    0.30
   8   2  -3   51.87    1.71
   7   2  -3   51.15    1.61
   7   2  -3   50.79    1.51
   6   2  -3    4.66    0.49
   6   2  -3    5.48    0.51
  -6  -2   3    4.60    0.42
   5   2  -3  161.42    3.21
   5   2  -3  162.43    3.32
  -5  -2   3  157.77    3.17
   4   2  -3   80.55    1.83
   4   2  -3   82.26    1.90
  -4  -2   3   82.14    1.85
   3   2  -3   74.91    1.70
   3   2  -3   78.14    1.69
  -3  -2   3   76.56    1.74
   2   2  -3  169.35    3.21
   2   2  -3  179.17    3.25
  -2  -2   3  173.18    3.30
   1   2  -3  185.72    3.39
   1   2  -3  193.31    3.50
  -1  -2   3  197.43    3.56
   0   2  -3   40.75    0.84
   0   2  -3   41.03    1.00
   0  -2   3   42.29    1.03
  -1   2  -3   95.29    1.89
  -1   2  -3   92.49    1.59
   1  -2   3   95.64    1.91
   2  -2   3    5.33    0.34
  -3   2  -3  131.04    2.53
   3  -2   3  129.89    2.55
   3  -2   3  132.15    2.23
  -4   2  -3  252.35    4.58
   4  -2   3  260.29    4.61
   4  -2   3  249.96    4.33
  -6   2  -3   28.96    0.96
  -6   2  -3   28.24    0.90
   6  -2   3   28.66    0.84
  -7   2  -3   94.75    2.11
  -7   2  -3   96.96    2.22
   7  -2   3   97.09    2.07
  -8   2  -3   10.36    0.60
  -8   2  -3   10.32    0.67
   8  -2   3   11.12    0.62
  -9   2  -3   56.05    1.54
  -9   2  -3   53.56    1.66
   9  -2   3   56.63    1.56
 -10   2  -3   30.70    1.27
 -10   2  -3   33.58    1.16
  10  -2   3   33.31    1.20
 -11   2  -3   12.01    0.91
  11  -2   3   12.48    0.84
  12  -2   3   48.49    1.67
  13  -2   3   16.43    1.04
  14  -2   3    4.98    0.76
  11   1  -3   54.63    2.00
  10   1  -3   66.55    2.13
   9   1  -3    0.42    0.32
   8   1  -3   37.85    1.40
   7   1  -3   38.79    1.34
   6   1  -3   35.90    1.21
   6   1  -3   35.99    1.16
  -6  -1   3   35.76    0.98
   5   1  -3   46.40    1.32
   5   1  -3   46.22    1.27
  -5  -1   3   45.55    1.14
   4   1  -3    9.44    0.50
   4   1  -3    8.72    0.51
  -4  -1   3    9.05    0.45
   3   1  -3  194.23    3.60
   3   1  -3  194.56    3.58
  -3  -1   3  191.46    3.53
   2   1  -3  392.70    6.79
   2   1  -3  402.13    6.82
  -2  -1   3  396.40    6.81
   1   1  -3  117.41    2.20
   1   1  -3  119.38    2.27
  -1  -1   3  122.10    2.26
   0   1  -3   24.54    0.56
   0   1  -3   25.83    0.67
   0  -1   3   24.64    0.66
  -1   1  -3   17.31    0.37
  -1   1  -3   16.55    0.51
   1  -1   3   17.55    0.53
  -2   1  -3   44.61    1.00
   2  -1   3   44.97    1.04
   2  -1   3   43.48    0.81
  -3   1  -3  171.28    3.14
  -3   1  -3  172.98    3.12
   3  -1   3  173.36    2.96
  -4   1  -3  133.18    2.54
  -4   1  -3  136.22    2.57
   4  -1   3  132.09    2.42
  -5   1  -3   51.57    1.24
  -5   1  -3   50.88    1.24
   5  -1   3   50.98    1.16
  -6   1  -3   54.10    1.33
  -6   1  -3   53.54    1.35
   6  -1   3   53.60    1.30
  -7   1  -3   48.63    1.26
  -7   1  -3   45.38    1.29
   7  -1   3   45.65    1.24
  -8   1  -3   18.16    0.76
  -8   1  -3   17.15    0.78
   8  -1   3   17.93    0.79
  -9   1  -3   68.61    1.75
  -9   1  -3   67.67    1.85
   9  -1   3   71.81    1.86
 -10   1  -3   36.66    1.20
 -10   1  -3   33.28    1.26
  10  -1   3   36.00    1.28
  11  -1   3   69.69    2.01
  12  -1   3   14.42    1.00
  13  -1   3    5.32    0.63
  14  -1   3   26.55    1.40
  11   0  -3   19.90    1.20
  10   0  -3    1.65    0.47
   9   0  -3   18.09    1.02
   8   0  -3   85.18    2.25
   7   0  -3    7.11    0.61
   6   0  -3   98.48    2.29
   5   0  -3  109.15    2.33
   5   0  -3  104.62    2.34
  -5   0   3  107.24    2.04
   4   0  -3   12.80    0.59
   4   0  -3   13.33    0.58
  -4   0   3   13.09    0.45
   3   0  -3  240.65    4.38
   3   0  -3  252.53    4.41
  -3   0   3  237.46    4.21
   2   0  -3  355.68    6.11
   2   0  -3  359.21    6.13
  -2   0   3  351.94    6.00
   1   0  -3   55.32    1.15
   1   0  -3   56.98    1.19
  -1   0   3   54.45    1.10
   0   0  -3  438.48    7.36
   0   0  -3  441.12    7.36
   0   0   3  438.14    7.32
  -1   0  -3   47.01    0.99
  -1   0  -3   49.30    0.92
  -2   0  -3   58.29    1.17
  -2   0  -3   57.35    1.21
  -2   0  -3   62.04    1.11
   2   0   3   58.35    1.10
  -3   0  -3  337.76    5.73
  -3   0  -3  329.24    5.64
   3   0   3  332.33    5.60
  -4   0  -3   69.00    1.40
  -4   0  -3   69.12    1.48
   4   0   3   68.36    1.40
  -5   0  -3   83.78    1.72
  -5   0  -3   83.71    1.78
   5   0   3   85.09    1.75
  -6   0  -3  192.74    3.66
  -6   0  -3  197.87    3.63
   6   0   3  194.57    3.65
  -7   0  -3    3.97    0.39
  -7   0  -3    4.46    0.39
   7   0   3    4.52    0.44
  -8   0  -3   38.57    1.17
  -8   0  -3   38.52    1.15
   8   0   3   38.63    1.24
  -9   0  -3  118.19    2.69
  -9   0  -3  122.87    2.66
   9   0   3  125.38    2.78
 -10   0  -3    9.63    0.65
  10   0   3    9.93    0.78
  11   0   3   20.25    1.11
  12   0   3   39.97    1.57
  13   0   3   -0.25    0.34
  14   0   3   13.92    1.38
  11  -1  -3   34.18    1.50
  10  -1  -3    3.40    0.53
   9  -1  -3   47.38    1.63
   8  -1  -3   59.85    1.78
   7  -1  -3    0.76    0.28
   6  -1  -3   67.34    1.74
   5  -1  -3  125.95    2.64
  -5   1   3  124.08    2.22
   4  -1  -3   11.71    0.55
  -4   1   3   11.47    0.32
   3  -1  -3  312.62    5.38
   3  -1  -3  298.69    5.35
  -3   1   3  300.51    5.04
   2  -1  -3  327.93    5.59
   2  -1  -3  321.62    5.61
  -2   1   3  321.45    5.36
   1  -1  -3   69.87    1.40
   1  -1  -3   70.54    1.42
  -1   1   3   71.02    1.26
   0  -1  -3  177.65    3.06
   0  -1  -3  180.37    3.14
   0  -1  -3  180.69    3.13
  -1  -1  -3  320.12    5.26
  -1  -1  -3  311.74    5.24
  -1  -1  -3  307.59    5.27
  -2  -1  -3    3.15    0.20
  -2  -1  -3    2.70    0.21
  -2  -1  -3    2.84    0.16
   2   1   3    3.09    0.18
  -3  -1  -3   62.29    1.18
   3   1   3   63.08    1.27
  -4  -1  -3   21.71    0.55
  -4  -1  -3   21.31    0.66
   4   1   3   21.94    0.64
  -5  -1  -3  127.89    2.52
  -5  -1  -3  126.78    2.37
   5   1   3  129.61    2.50
  -6  -1  -3   69.24    1.61
  -6  -1  -3   69.77    1.49
   6   1   3   70.22    1.63
  -7  -1  -3    4.70    0.36
  -7  -1  -3    4.23    0.39
   7   1   3    4.36    0.42
  -8  -1  -3   63.78    1.61
  -8  -1  -3   60.98    1.53
   8   1   3   63.18    1.70
  -9  -1  -3   90.50    2.14
   9   1   3   89.36    2.26
 -10  -1  -3   10.65    0.67
  10   1   3   11.15    0.84
 -11  -1  -3   26.57    1.09
  11   1   3   26.06    1.28
  12   1   3   22.23    1.27
  13   1   3   11.53    1.03
  12  -2  -3   17.62    1.48
  11  -2  -3   26.47    1.31
  10  -2  -3   -0.36    0.25
   9  -2  -3   71.46    2.05
   8  -2  -3   38.85    1.36
   7  -2  -3   13.58    0.76
   6  -2  -3   69.90    1.77
   5  -2  -3   86.75    1.98
   4  -2  -3   83.18    1.84
   3  -2  -3  475.02    8.13
   2  -2  -3  119.82    2.29
   1  -2  -3  106.93    1.81
   1  -2  -3  106.51    2.03
   1  -2  -3  106.68    2.01
   0  -2  -3   66.10    1.25
   0  -2  -3   68.26    1.32
   0  -2  -3   67.27    1.33
  -1  -2  -3   62.45    1.27
  -1  -2  -3   66.85    1.29
  -1  -2  -3   66.25    1.21
  -2  -2  -3  169.48    2.80
  -2  -2  -3  170.66    2.97
  -2  -2  -3  164.08    3.00
   2   2   3  164.23    2.96
  -3  -2  -3  320.85    5.47
  -3  -2  -3  307.79    5.17
   3   2   3  315.84    5.41
  -4  -2  -3   19.50    0.45
  -4  -2  -3   19.55    0.65
   4   2   3   20.35    0.64
  -5  -2  -3  192.37    3.35
  -5  -2  -3  192.23    3.63
   5   2   3  195.69    3.62
  -6  -2  -3   80.36    1.83
  -6  -2  -3   79.21    1.60
   6   2   3   80.78    1.84
  -7  -2  -3    0.18    0.16
  -7  -2  -3    0.52    0.15
   7   2   3    0.35    0.23
  -8  -2  -3   47.97    1.37
   8   2   3   49.08    1.49
  -9  -2  -3   20.92    0.89
   9   2   3   18.80    1.00
 -10  -2  -3    8.27    0.63
  10   2   3    7.51    0.71
 -11  -2  -3   70.25    1.95
  11   2   3   72.33    2.21
  12   2   3   10.55    0.99
  13   2   3   16.74    1.20
  12  -3  -3   24.36    1.41
  11  -3  -3   38.24    1.56
  10  -3  -3    3.38    0.54
   9  -3  -3   42.20    1.50
   8  -3  -3    4.23    0.50
   7  -3  -3    6.10    0.56
   6  -3  -3  138.55    2.94
   5  -3  -3   81.92    1.91
   4  -3  -3   86.06    1.89
   3  -3  -3  178.33    3.33
   2  -3  -3   38.95    0.96
   1  -3  -3   24.44    0.57
   1  -3  -3   25.33    0.68
   0  -3  -3   26.34    0.68
   0  -3  -3   25.52    0.65
  -1  -3  -3    2.23    0.23
  -1  -3  -3    2.66    0.22
  -2  -3  -3  128.66    2.46
  -2  -3  -3  129.94    2.40
   2   3   3  126.42    2.39
  -3  -3  -3   56.02    1.32
   3   3   3   55.33    1.24
  -4  -3  -3  103.56    2.17
   4   3   3  102.83    2.10
  -5  -3  -3  175.25    3.38
   5   3   3  170.46    3.33
  -6  -3  -3   51.99    1.38
  -6  -3  -3   49.90    1.05
   6   3   3   50.63    1.37
  -7  -3  -3   30.73    1.05
   7   3   3   31.89    1.11
  -8  -3  -3   48.89    1.44
   8   3   3   49.66    1.54
  -9  -3  -3    0.68    0.26
   9   3   3    0.45    0.36
 -10  -3  -3   57.43    1.70
  10   3   3   59.64    1.91
 -11  -3  -3   70.32    2.00
  11   3   3   72.67    2.24
  12   3   3    0.56    0.45
  13   3   3   24.75    1.46
  12  -4  -3   25.87    1.37
  11  -4  -3   14.47    1.00
  10  -4  -3   12.67    0.90
   9  -4  -3   38.57    1.42
   7  -4  -3   19.59    0.90
   6  -4  -3   36.45    1.17
   5  -4  -3   -0.21    0.16
   4  -4  -3  305.75    5.50
   3  -4  -3  143.86    2.77
   3  -4  -3  142.10    2.54
   2  -4  -3   23.02    0.70
   2  -4  -3   22.39    0.61
   1  -4  -3   31.60    0.82
   1  -4  -3   30.74    0.80
   0  -4  -3  147.22    2.71
   0  -4  -3  145.23    2.75
  -1  -4  -3    0.98    0.19
  -1  -4  -3    0.85    0.16
  -2  -4  -3  289.13    5.31
  -2  -4  -3  302.84    5.21
   2   4   3  294.00    5.20
   2   4   3  304.27    4.93
  -3  -4  -3   13.40    0.60
   3   4   3   14.86    0.56
  -4  -4  -3   96.41    2.13
   4   4   3   93.69    2.01
  -5  -4  -3  209.61    4.05
   5   4   3  205.12    3.94
  -6  -4  -3   25.50    0.97
   6   4   3   26.93    0.98
  -7  -4  -3   94.89    2.26
   7   4   3   91.61    2.24
  -8  -4  -3  169.40    3.60
   8   4   3  171.23    3.66
  -9  -4  -3   12.28    0.76
   9   4   3   11.93    0.91
 -10  -4  -3   43.01    1.45
  10   4   3   39.44    1.59
 -11  -4  -3   22.60    1.09
  11   4   3   23.43    1.33
  12   4   3    3.05    0.59
  12  -5  -3   33.17    1.54
  11  -5  -3    3.16    0.52
  10  -5  -3   43.10    1.59
   9  -5  -3   25.27    1.14
   8  -5  -3    0.02    0.25
   7  -5  -3  117.09    2.68
   6  -5  -3   68.63    1.76
   5  -5  -3   17.03    0.74
   4  -5  -3  138.11    2.56
   4  -5  -3  135.63    2.75
   3  -5  -3   77.22    1.62
   3  -5  -3   77.41    1.71
   2  -5  -3   78.43    1.66
   2  -5  -3   74.16    1.63
   1  -5  -3  248.56    4.57
   1  -5  -3  258.70    4.54
   0  -5  -3  134.39    2.73
   0  -5  -3  140.33    2.63
  -1  -5  -3   55.32    1.28
  -1  -5  -3   54.64    1.40
   1   5   3   56.55    1.15
  -2  -5  -3  232.33    4.20
  -2  -5  -3  233.52    4.38
   2   5   3  227.34    4.19
   2   5   3  234.68    3.93
  -3  -5  -3   54.14    1.46
   3   5   3   54.77    1.33
  -4  -5  -3   12.84    0.67
   4   5   3   12.35    0.61
  -5  -5  -3   67.76    1.78
   5   5   3   64.79    1.66
  -6  -5  -3    5.23    0.51
   6   5   3    4.92    0.48
  -7  -5  -3   97.03    2.40
   7   5   3   98.42    2.40
  -8  -5  -3   67.63    1.93
   8   5   3   68.40    1.98
  -9  -5  -3    0.87    0.32
   9   5   3    0.60    0.40
 -10  -5  -3   38.67    1.46
  10   5   3   40.00    1.64
 -11  -5  -3    6.46    0.70
  11   5   3    6.52    0.82
  12   5   3    4.10    0.70
  12  -6  -3   16.49    1.24
  11  -6  -3    0.30    0.32
 -11   6   3    0.49    0.47
  10  -6  -3   54.25    1.83
   9  -6  -3   33.05    1.33
   8  -6  -3   -0.14    0.22
   7  -6  -3   29.41    1.13
   6  -6  -3    3.06    0.38
   5  -6  -3   45.37    1.30
   4  -6  -3  225.90    4.23
   4  -6  -3  223.54    4.11
   3  -6  -3   29.90    0.92
   3  -6  -3   29.28    0.90
   2  -6  -3    0.89    0.18
   2  -6  -3    0.82    0.22
   1  -6  -3   90.20    1.92
   1  -6  -3   90.72    2.04
  -1   6   3   92.30    1.94
   0  -6  -3   37.99    1.03
   0  -6  -3   37.36    1.15
   0   6   3   40.55    1.01
  -1  -6  -3  175.95    3.55
  -1  -6  -3  174.78    3.34
   1   6   3  179.23    3.35
   1   6   3  176.58    3.18
  -2  -6  -3   21.88    0.75
  -2  -6  -3   22.54    0.89
   2   6   3   20.67    0.57
   2   6   3   21.53    0.76
  -3  -6  -3    0.53    0.23
   3   6   3    0.20    0.09
   3   6   3    0.33    0.18
  -4  -6  -3  118.58    2.71
   4   6   3  118.45    2.53
  -5  -6  -3   73.37    1.98
   5   6   3   73.64    1.85
  -6  -6  -3    1.39    0.35
   6   6   3    1.27    0.34
  -7  -6  -3   87.03    2.32
   7   6   3   89.78    2.30
  -8  -6  -3   20.10    1.03
   8   6   3   20.39    1.12
  -9  -6  -3   43.08    1.58
   9   6   3   44.54    1.68
 -10  -6  -3   32.08    1.38
  10   6   3   31.67    1.53
 -11  -6  -3    4.81    0.65
  11   6   3    4.01    0.69
  11  -7  -3    6.41    0.74
 -11   7   3    4.89    0.77
  10  -7  -3   34.67    1.44
 -10   7   3   34.28    1.64
   9  -7  -3   18.47    1.02
  -9   7   3   18.81    1.19
   8  -7  -3   37.56    1.36
  -8   7   3   37.44    1.54
   7  -7  -3  117.90    2.73
  -7   7   3  119.42    2.97
   6  -7  -3    0.88    0.28
  -6   7   3    0.10    0.36
   5  -7  -3   64.31    1.66
  -5   7   3   64.28    1.82
   4  -7  -3   93.26    2.07
   4  -7  -3   90.68    2.06
  -4   7   3   90.89    2.22
   3  -7  -3   51.47    1.36
   3  -7  -3   55.48    1.46
  -3   7   3   53.64    1.49
   2  -7  -3   70.70    1.64
   2  -7  -3   68.59    1.74
  -2   7   3   70.64    1.72
   1  -7  -3   63.55    1.52
   1  -7  -3   63.63    1.68
  -1   7   3   65.28    1.55
   0  -7  -3   16.12    0.65
   0  -7  -3   13.44    0.73
   0   7   3   15.53    0.62
  -1  -7  -3  146.01    2.93
  -1  -7  -3  147.89    3.19
   1   7   3  147.27    2.78
   1   7   3  149.17    2.94
  -2  -7  -3   85.48    2.16
   2   7   3   82.61    1.67
   2   7   3   83.51    1.91
  -3  -7  -3    5.69    0.58
   3   7   3    5.08    0.30
   3   7   3    5.94    0.47
  -4  -7  -3   36.88    1.34
   4   7   3   35.90    1.18
  -5  -7  -3   24.15    1.09
   5   7   3   23.83    1.00
  -6  -7  -3   21.06    1.06
   6   7   3   22.57    1.06
  -7  -7  -3   77.98    2.24
   7   7   3   78.26    2.18
  -8  -7  -3   12.90    0.91
   8   7   3   12.12    1.02
  -9  -7  -3   30.33    1.39
   9   7   3   33.10    1.54
 -10  -7  -3   29.07    1.38
  10   7   3   26.69    1.48
 -11  -7  -3    0.57    0.38
  11   7   3    0.24    0.51
  11  -8  -3    4.18    0.64
  10  -8  -3   29.59    1.34
 -10   8   3   32.64    1.64
   9  -8  -3   10.33    0.81
  -9   8   3   10.09    0.99
   8  -8  -3   15.32    0.87
  -8   8   3   14.28    1.08
   7  -8  -3   43.46    1.43
  -7   8   3   44.51    1.67
   6  -8  -3   -0.08    0.24
  -6   8   3    1.00    0.45
   5  -8  -3   87.69    2.09
  -5   8   3   87.87    2.31
   4  -8  -3   25.95    1.01
   4  -8  -3   25.24    0.93
  -4   8   3   26.95    1.12
   3  -8  -3    0.59    0.27
   3  -8  -3    0.46    0.18
  -3   8   3    0.52    0.30
   2  -8  -3   96.58    2.28
   2  -8  -3   90.11    2.07
  -2   8   3   92.59    2.16
   1  -8  -3   62.75    1.74
   1  -8  -3   58.68    1.51
  -1   8   3   61.82    1.56
   0  -8  -3   55.45    1.44
   0  -8  -3   54.54    1.66
   0   8   3   56.42    1.41
   0   8   3   58.82    1.48
  -1  -8  -3   98.80    2.48
  -1  -8  -3   99.31    2.20
   1   8   3  100.62    2.08
   1   8   3  100.87    2.21
  -2  -8  -3    0.91    0.34
   2   8   3    1.72    0.30
   2   8   3    1.84    0.25
  -3  -8  -3   42.34    1.49
   3   8   3   40.77    1.28
  -4  -8  -3  105.16    2.68
   4   8   3  103.30    2.44
  -5  -8  -3   10.31    0.83
   5   8   3    9.13    0.75
  -6  -8  -3   30.51    1.33
   6   8   3   25.63    1.22
  -7  -8  -3   71.09    2.20
   7   8   3   70.79    2.14
  -8  -8  -3    4.57    0.65
   8   8   3    3.86    0.63
  -9  -8  -3   32.52    1.49
   9   8   3   33.93    1.63
 -10  -8  -3   23.64    1.32
  10   8   3   20.65    1.40
 -11  -8  -3   -0.05    0.36
 -10   9   3   16.38    1.39
  -9   9   3    1.38    0.56
   8  -9  -3   43.26    1.60
  -8   9   3   43.73    1.80
   7  -9  -3   20.89    0.97
  -7   9   3   22.29    1.25
   6  -9  -3   11.24    0.71
  -6   9   3   11.17    0.94
   5  -9  -3   65.33    1.74
  -5   9   3   66.20    2.00
   4  -9  -3   47.90    1.39
  -4   9   3   48.53    1.59
   3  -9  -3    8.37    0.70
   3  -9  -3    9.14    0.58
  -3   9   3   10.08    0.73
   2  -9  -3  110.28    2.45
   2  -9  -3  114.18    2.72
  -2   9   3  109.61    2.54
   1  -9  -3   23.06    0.89
   1  -9  -3   24.81    1.10
  -1   9   3   26.43    0.98
   0  -9  -3   21.36    1.08
   0  -9  -3   21.85    0.88
   0   9   3   24.01    0.89
   0   9   3   23.34    0.90
  -1  -9  -3   72.21    1.79
  -1  -9  -3   70.94    2.08
   1   9   3   71.69    1.68
   1   9   3   74.38    1.82
  -2  -9  -3    3.61    0.55
   2   9   3    5.71    0.53
  -3  -9  -3   74.88    2.22
   3   9   3   76.36    1.97
  -4  -9  -3   82.43    2.40
   4   9   3   85.30    2.18
  -5  -9  -3    0.94    0.38
   5   9   3    1.00    0.40
  -6  -9  -3   49.45    1.82
   6   9   3   49.12    1.71
  -7  -9  -3   44.20    1.75
   7   9   3   42.91    1.67
  -8  -9  -3    0.68    0.38
   8   9   3   -0.39    0.41
  -9  -9  -3   16.74    1.16
   9   9   3   15.44    1.26
 -10  -9  -3    3.49    0.63
  10   9   3    3.48    0.78
  -9  10   3    0.79    0.52
  -8  10   3   28.76    1.50
  -7  10   3   11.78    1.03
  -6  10   3   18.43    1.15
  -5  10   3   71.24    2.13
   4 -10  -3    3.08    0.48
  -4  10   3    3.48    0.54
   3 -10  -3   27.52    1.03
   3 -10  -3   26.67    1.21
  -3  10   3   27.21    1.15
   2 -10  -3   72.45    2.10
   2 -10  -3   70.25    1.81
  -2  10   3   69.90    1.91
   1 -10  -3    5.91    0.69
   1 -10  -3    5.07    0.49
  -1  10   3    4.67    0.48
  -1  10   3    5.56    0.56
   0 -10  -3   56.68    1.87
   0 -10  -3   55.08    1.55
   0  10   3   58.32    1.57
   0  10   3   55.80    1.57
  -1 -10  -3   44.04    1.64
   1  10   3   41.94    1.35
  -2 -10  -3    0.31    0.36
   2  10   3    0.83    0.31
  -3 -10  -3   80.56    2.42
   3  10   3   80.34    2.11
  -4 -10  -3   26.17    1.35
   4  10   3   28.34    1.22
  -5 -10  -3    0.03    0.34
   5  10   3    0.08    0.37
  -6 -10  -3   54.78    2.02
   6  10   3   57.64    1.92
  -7 -10  -3    5.29    0.76
   7  10   3    3.19    0.64
  -8 -10  -3    8.53    0.96
   8  10   3    6.92    0.85
  -9 -10  -3   34.93    1.69
   9  10   3   34.14    1.79
  -8  11   3   18.51    1.38
  -7  11   3    2.63    0.62
  -6  11   3   16.14    1.11
  -5  11   3   53.63    1.88
  -4  11   3    0.43    0.39
   3 -11  -3   54.04    1.85
  -3  11   3   54.59    1.76
   2 -11  -3   59.86    1.96
  -2  11   3   55.61    1.75
   1 -11  -3    2.46    0.52
  -1  11   3    1.89    0.42
   0 -11  -3   49.39    1.82
  -1 -11  -3   44.13    1.74
  -2 -11  -3   10.65    0.96
   2  11   3    7.73    0.98
  -3 -11  -3   62.57    2.17
   3  11   3   62.79    1.88
  -4 -11  -3   11.90    1.05
   4  11   3   11.34    0.94
  -5 -11  -3   16.40    1.18
   5  11   3   16.47    1.11
  -6 -11  -3   37.36    1.71
   6  11   3   36.22    1.61
  -7 -11  -3    3.81    0.70
   7  11   3    4.66    0.76
   8  11   3    7.99    0.93
  -7  12   3    1.78    0.60
  -6  12   3   15.20    1.13
  -5  12   3   25.41    1.35
  -4  12   3    0.38    0.41
   3 -12  -3   18.46    1.16
  -3  12   3   15.14    1.04
   2 -12  -3   10.26    0.94
  -2  12   3   10.37    0.86
   1 -12  -3   11.70    1.00
   0 -12  -3   77.38    2.45
  -1 -12  -3   27.47    1.48
  -2 -12  -3    5.33    0.76
  -3 -12  -3   26.02    1.47
  -4 -12  -3    1.75    0.55
  -5 -12  -3   25.15    1.48
  -6 -12  -3   34.08    1.72
  -6  13   3   32.58    1.62
  -5  13   3   12.14    1.04
  -4  13   3    3.23    0.62
  -3  13   3   18.29    1.15
   2 -13  -3    3.43    0.66
   1 -13  -3   19.44    1.27
   0 -13  -3   26.87    1.49
  -1 -13  -3    0.44    0.43
  -2 -13  -3   33.70    1.70
  -3 -13  -3   30.85    1.65
  -4 -13  -3    0.68    0.51
  -4  14   3    6.05    0.81
   2 -14  -3    1.52    0.55
   1 -14  -3   18.31    1.32
   0 -14  -3   19.81    1.38
  -1 -14  -3    1.11    0.56
   0  11  -4   18.79    1.18
  -1  11  -4   20.86    1.22
   1 -11   4   18.75    1.79
  -2  11  -4    1.07    0.48
   2 -11   4    1.06    0.64
  -3  11  -4   29.77    1.51
   3 -11   4   33.63    1.82
  -4  11  -4   18.45    1.27
   4 -11   4   19.26    1.48
  -5  11  -4    6.09    0.87
   5 -11   4    7.13    1.14
  -3 -10   4   29.89    1.65
  -2 -10   4   20.82    1.40
   1  10  -4    0.59    0.41
  -1 -10   4    0.99    0.51
   0  10  -4   30.05    1.38
   0 -10   4   34.34    1.67
  -1  10  -4   19.72    1.15
   1 -10   4   18.31    1.32
  -2  10  -4    3.24    0.63
   2 -10   4    2.90    0.69
  -3  10  -4   43.70    1.72
   3 -10   4   44.00    1.92
  -4  10  -4    8.51    0.90
   4 -10   4    6.96    0.90
  -5  10  -4   11.24    1.00
   5 -10   4   10.53    1.09
  -6  10  -4   25.17    1.39
   6 -10   4   24.85    1.49
  -7  10  -4    1.40    0.54
   7 -10   4    0.45    0.52
   8 -10   4   12.90    1.22
  -5  -9   4   21.44    1.37
  -4  -9   4    2.64    0.61
  -3  -9   4   22.07    1.36
   2   9  -4    4.24    0.59
  -2  -9   4    6.00    0.82
   1   9  -4    9.31    0.80
  -1  -9   4   11.13    1.06
   0   9  -4   49.23    1.67
   0  -9   4   49.23    1.92
  -1   9  -4    3.79    0.59
   1  -9   4    4.59    0.74
  -2   9  -4   25.86    1.25
   2  -9   4   24.52    1.42
  -3   9  -4  107.61    2.80
   3  -9   4  104.97    2.98
  -4   9  -4    2.55    0.56
   4  -9   4    2.63    0.59
  -5   9  -4   17.79    1.13
   5  -9   4   16.69    1.17
  -6   9  -4   21.88    1.25
   6  -9   4   19.98    1.25
  -7   9  -4    2.86    0.61
   7  -9   4    2.71    0.63
  -8   9  -4   26.79    1.47
   8  -9   4   27.49    1.46
  -9   9  -4   17.14    1.30
   9  -9   4   16.00    1.19
  -6  -8   4   25.20    1.40
  -5  -8   4    2.69    0.59
  -4  -8   4   32.15    1.53
   3   8  -4   55.29    1.72
  -3  -8   4   57.60    2.04
   2   8  -4    6.12    0.65
  -2  -8   4    6.52    0.81
   1   8  -4   26.11    1.14
  -1  -8   4   28.95    1.40
   0   8  -4   70.57    1.98
   0  -8   4   66.78    2.19
  -1   8  -4    4.45    0.58
   1  -8   4    3.98    0.65
  -2   8  -4   58.10    1.81
   2  -8   4   59.34    1.99
  -3   8  -4   98.13    2.54
   3  -8   4   94.32    2.64
  -4   8  -4    0.06    0.37
   4  -8   4    0.48    0.40
  -5   8  -4   57.87    1.89
   5  -8   4   57.27    1.94
  -6   8  -4   57.82    1.93
   6  -8   4   58.21    1.95
  -7   8  -4    0.40    0.43
   7  -8   4    0.29    0.38
  -8   8  -4   20.00    1.22
   8  -8   4   18.06    1.13
  -9   8  -4   17.77    1.23
   9  -8   4   17.24    1.15
 -10   8  -4    9.81    1.05
  -6  -7   4   18.89    1.15
  -5  -7   4    1.57    0.48
   4   7  -4   35.11    1.29
  -4  -7   4   34.65    1.52
   3   7  -4   88.12    2.24
  -3  -7   4   90.32    2.56
   2   7  -4    3.09    0.48
  -2  -7   4    3.23    0.56
   1   7  -4   19.91    0.94
  -1  -7   4   20.47    1.15
   0   7  -4   28.18    1.12
   0  -7   4   27.44    1.30
  -1   7  -4    2.88    0.45
   1  -7   4    3.81    0.59
  -2   7  -4   64.93    1.83
   2  -7   4   60.93    1.92
  -3   7  -4   34.76    1.30
   3  -7   4   33.60    1.37
  -4   7  -4   11.33    0.82
   4  -7   4    8.11    0.78
  -5   7  -4   71.16    2.07
   5  -7   4   74.63    2.12
  -6   7  -4   24.33    1.20
   6  -7   4   22.23    1.14
  -7   7  -4    9.73    0.88
   7  -7   4    8.45    0.79
  -8   7  -4   27.40    1.34
   8  -7   4   25.73    1.23
  -9   7  -4   -0.25    0.36
   9  -7   4    0.05    0.33
 -10   7  -4   21.05    1.32
 -11   7  -4   24.53    1.48
  -6  -6   4   24.44    1.22
   5   6  -4    0.90    0.33
  -5  -6   4    1.08    0.38
   4   6  -4   39.54    1.32
  -4  -6   4   38.51    1.50
   3   6  -4   36.05    1.23
  -3  -6   4   34.95    1.42
   2   6  -4    6.15    0.58
  -2  -6   4    6.51    0.70
   1   6  -4  112.80    2.55
  -1  -6   4  112.42    2.78
   0   6  -4   63.03    1.71
   0  -6   4   64.23    1.90
  -1   6  -4   19.10    0.88
   1  -6   4   18.28    0.97
  -2   6  -4   76.01    1.96
   2  -6   4   75.68    2.06
  -3   6  -4   36.46    1.27
   3  -6   4   36.75    1.33
  -4   6  -4   11.95    0.77
   4  -6   4   12.26    0.80
  -5   6  -4   79.69    2.12
   5  -6   4   77.95    2.11
  -6   6  -4    8.08    0.74
   6  -6   4    8.33    0.72
  -7   6  -4   53.34    1.77
   7  -6   4   55.84    1.74
  -8   6  -4   46.30    1.68
   8  -6   4   46.81    1.58
  -9   6  -4    1.03    0.44
   9  -6   4    1.16    0.39
 -10   6  -4   19.13    1.23
  10  -6   4   18.62    1.07
 -11   6  -4   16.16    1.21
 -12   6  -4    2.99    0.70
   9   5  -4   57.25    2.11
   8   5  -4    0.42    0.39
   7   5  -4   12.55    0.95
   6   5  -4    3.31    0.53
   6   5  -4    3.35    0.48
  -6  -5   4    3.15    0.51
   5   5  -4    4.81    0.53
   5   5  -4    5.64    0.59
  -5  -5   4    5.27    0.60
   4   5  -4   77.39    1.99
   4   5  -4   73.69    1.92
  -4  -5   4   77.10    2.13
   3   5  -4   10.90    0.86
   3   5  -4   10.65    0.66
  -3  -5   4   10.79    0.83
   2   5  -4   41.91    1.27
  -2  -5   4   42.92    1.46
   1   5  -4  104.71    2.34
  -1  -5   4  104.01    2.54
   0   5  -4    5.15    0.48
   0  -5   4    4.83    0.53
  -1   5  -4   58.73    1.56
   1  -5   4   58.38    1.65
  -2   5  -4  107.26    2.39
   2  -5   4  104.12    2.44
  -3   5  -4   -0.13    0.20
   3  -5   4    0.27    0.23
  -4   5  -4   45.29    1.39
   4  -5   4   46.73    1.42
  -5   5  -4   96.13    2.31
   5  -5   4   93.13    2.28
  -6   5  -4   -0.38    0.24
   6  -5   4    0.13    0.23
  -7   5  -4   86.37    2.30
   7  -5   4   87.75    2.23
  -8   5  -4   34.52    1.39
   8  -5   4   33.71    1.28
  -9   5  -4   15.83    1.04
   9  -5   4   17.07    0.95
 -10   5  -4   40.81    1.68
  10  -5   4   42.04    1.51
 -11   5  -4   19.71    1.24
 -12   5  -4    8.02    0.94
 -13   5  -4   37.12    1.80
  10   4  -4   19.45    1.35
   9   4  -4   18.72    1.23
   8   4  -4    3.76    0.59
   7   4  -4   42.55    1.46
   7   4  -4   42.69    1.59
   6   4  -4   20.11    0.93
   6   4  -4   20.32    1.03
  -6  -4   4   19.86    1.26
   5   4  -4   67.14    1.86
   5   4  -4   65.44    1.76
  -5  -4   4   67.01    1.87
   4   4  -4   50.87    1.48
   4   4  -4   51.94    1.45
  -4  -4   4   48.62    1.54
   3   4  -4   23.11    0.89
   3   4  -4   25.79    0.94
  -3  -4   4   24.58    1.05
   2   4  -4  116.53    2.43
   2   4  -4  121.85    2.54
  -2  -4   4  118.15    2.69
   1   4  -4  163.30    3.18
   1   4  -4  151.98    2.95
  -1  -4   4  161.76    3.34
   0   4  -4    0.60    0.23
   0   4  -4    0.96    0.15
   0  -4   4    0.38    0.25
  -1   4  -4  175.35    3.42
   1  -4   4  173.14    3.49
  -2   4  -4  150.57    3.04
   2  -4   4  149.67    3.09
  -3   4  -4    5.68    0.48
  -4   4  -4   93.14    2.15
   4  -4   4   93.81    2.17
  -5   4  -4  174.21    3.58
   5  -4   4  179.63    3.60
  -6   4  -4    0.84    0.29
   6  -4   4    1.48    0.32
  -7   4  -4   54.36    1.63
   7  -4   4   53.69    1.57
  -8   4  -4    6.24    0.64
   8  -4   4    6.16    0.60
  -9   4  -4   21.49    1.12
   9  -4   4   24.55    1.05
 -10   4  -4   34.50    1.46
  10  -4   4   31.29    1.25
 -11   4  -4    7.71    0.83
 -12   4  -4   21.55    1.34
  10   3  -4   46.25    1.85
   9   3  -4   14.23    1.04
   8   3  -4   11.86    0.85
   8   3  -4   12.66    0.92
   7   3  -4   32.12    1.35
   7   3  -4   34.25    1.26
   6   3  -4   11.09    0.72
   6   3  -4   10.29    0.73
   5   3  -4   78.33    1.94
   5   3  -4   77.24    2.00
  -5  -3   4   76.33    1.95
   4   3  -4   89.41    2.07
   4   3  -4   87.41    2.09
  -4  -3   4   89.71    2.14
   3   3  -4    0.59    0.20
   3   3  -4   -0.13    0.18
  -3  -3   4    0.04    0.22
   2   3  -4  164.30    3.24
   2   3  -4  164.55    3.15
  -2  -3   4  167.52    3.36
   1   3  -4  177.98    3.44
   1   3  -4  176.82    3.27
  -1  -3   4  185.37    3.57
   0   3  -4   54.59    1.33
   0   3  -4   49.89    1.06
   0  -3   4   52.80    1.37
  -1   3  -4  183.19    3.40
  -1   3  -4  171.18    2.97
   1  -3   4  178.24    3.44
  -2   3  -4   47.48    1.25
   2  -3   4   48.94    1.29
  -3   3  -4   31.95    0.98
   3  -3   4   31.38    1.00
  -4   3  -4  120.29    2.53
   4  -3   4  120.30    2.55
  -5   3  -4   67.55    1.66
   5  -3   4   66.15    1.29
   5  -3   4   65.35    1.66
  -6   3  -4   10.20    0.64
   6  -3   4   11.46    0.63
   6  -3   4   11.60    0.45
  -7   3  -4   63.02    1.69
   7  -3   4   56.24    1.37
   7  -3   4   59.04    1.62
  -8   3  -4    5.87    0.60
   8  -3   4    5.34    0.60
   8  -3   4    5.97    0.56
  -9   3  -4   62.59    1.87
   9  -3   4   61.72    1.76
 -10   3  -4   18.68    1.05
  10  -3   4   19.33    0.94
 -11   3  -4    1.42    0.44
 -12   3  -4   34.29    1.92
  10   2  -4   25.08    1.35
   9   2  -4    5.35    0.69
   8   2  -4    9.66    0.81
   7   2  -4   82.85    2.17
   7   2  -4   84.74    2.28
   6   2  -4   23.21    1.00
   6   2  -4   25.31    1.06
   5   2  -4   59.79    1.65
   5   2  -4   60.86    1.60
  -5  -2   4   59.62    1.54
   4   2  -4   97.55    2.17
   4   2  -4   96.50    2.20
  -4  -2   4   97.18    2.16
   3   2  -4    8.34    0.51
   3   2  -4    8.51    0.48
  -3  -2   4    9.19    0.55
   2   2  -4   64.79    1.53
   2   2  -4   65.89    1.48
  -2  -2   4   67.03    1.59
   1   2  -4   37.27    1.01
   1   2  -4   36.62    0.90
  -1  -2   4   37.40    1.04
   0   2  -4  215.35    3.78
   0   2  -4  222.83    4.02
   0  -2   4  222.38    4.04
  -1   2  -4  223.27    4.02
  -1   2  -4  218.23    3.69
   1  -2   4  219.20    4.03
  -2   2  -4   67.60    1.53
   2  -2   4   69.81    1.57
  -3   2  -4   76.65    1.69
   3  -2   4   77.30    1.73
  -4   2  -4   86.10    1.91
   4  -2   4   87.51    1.61
   4  -2   4   92.35    1.97
  -5   2  -4   -0.06    0.15
   5  -2   4    0.13    0.15
   5  -2   4    0.42    0.13
  -6   2  -4   98.04    2.19
   6  -2   4  100.20    2.21
   6  -2   4   98.43    1.98
  -7   2  -4   38.52    1.16
  -7   2  -4   38.71    1.20
   7  -2   4   35.67    1.03
  -8   2  -4    0.14    0.22
  -8   2  -4   -0.46    0.17
   8  -2   4    0.39    0.23
  -9   2  -4   60.73    1.64
  -9   2  -4   58.99    1.74
   9  -2   4   57.66    1.57
 -10   2  -4   32.49    1.18
 -10   2  -4   29.21    1.23
  10  -2   4   30.95    1.14
 -11   2  -4   26.46    1.24
 -11   2  -4   28.34    1.17
  11  -2   4   28.55    1.15
  12  -2   4   44.47    2.15
  10   1  -4   40.40    1.66
   9   1  -4    2.49    0.49
   8   1  -4   21.67    1.08
   7   1  -4   37.44    1.38
   6   1  -4   22.91    0.98
   6   1  -4   23.00    0.96
   5   1  -4  150.11    3.06
   5   1  -4  144.69    3.08
  -5  -1   4  142.98    2.84
   4   1  -4   73.69    1.75
   4   1  -4   74.44    1.78
  -4  -1   4   73.63    1.65
   3   1  -4   50.90    1.31
   3   1  -4   52.90    1.32
  -3  -1   4   51.63    1.26
   2   1  -4  155.03    2.93
   2   1  -4  154.10    2.98
  -2  -1   4  155.73    2.95
   1   1  -4  269.17    4.75
   1   1  -4  278.10    4.87
  -1  -1   4  274.76    4.82
   0   1  -4  186.23    3.33
   0   1  -4  174.12    3.15
   0  -1   4  182.21    3.30
  -1   1  -4  159.40    2.95
  -1   1  -4  158.47    2.74
   1  -1   4  160.45    2.97
  -2   1  -4    0.40    0.07
  -2   1  -4    0.24    0.13
   2  -1   4    0.53    0.15
   2  -1   4    0.41    0.07
  -3   1  -4  178.16    3.27
   3  -1   4  175.68    3.03
   3  -1   4  180.31    3.34
  -4   1  -4  164.49    3.08
  -4   1  -4  168.25    3.12
   4  -1   4  160.08    2.89
  -5   1  -4   30.27    0.88
  -5   1  -4   29.06    0.90
   5  -1   4   30.11    0.78
  -6   1  -4  129.08    2.62
  -6   1  -4  127.28    2.63
   6  -1   4  129.75    2.51
  -7   1  -4  114.36    2.50
  -7   1  -4  116.83    2.51
   7  -1   4  122.73    2.45
  -8   1  -4   20.95    0.86
  -8   1  -4   20.68    0.86
   8  -1   4   21.54    0.85
  -9   1  -4   59.59    1.66
  -9   1  -4   61.91    1.71
   9  -1   4   60.21    1.66
 -10   1  -4    4.46    0.54
 -10   1  -4    4.30    0.48
  10  -1   4    4.03    0.49
 -11   1  -4   22.86    1.05
  11  -1   4   22.67    1.09
  12  -1   4   54.41    1.77
  13  -1   4    3.07    0.53
  14  -1   4   11.44    0.98
  11   0  -4   28.88    1.47
  10   0  -4   21.22    1.23
   9   0  -4    0.08    0.31
   8   0  -4   60.96    1.87
   7   0  -4   -0.07    0.24
   6   0  -4   44.95    1.40
   5   0  -4   60.83    1.62
   5   0  -4   62.28    1.61
   4   0  -4   15.95    0.68
   4   0  -4   14.49    0.66
  -4   0   4   15.00    0.52
   3   0  -4   85.26    1.86
   3   0  -4   86.55    1.86
  -3   0   4   84.21    1.71
   2   0  -4  381.19    6.56
   2   0  -4  371.70    6.51
  -2   0   4  378.12    6.42
   1   0  -4    4.84    0.33
   1   0  -4    4.94    0.29
  -1   0   4    4.72    0.28
   0   0  -4  195.06    3.49
   0   0  -4  205.05    3.61
   0   0   4  204.28    3.55
  -1   0  -4  161.47    2.79
  -1   0  -4  158.74    2.90
   1   0   4  159.90    2.91
  -2   0  -4    4.62    0.27
  -2   0  -4    4.76    0.22
  -2   0  -4    4.66    0.29
  -3   0  -4  166.92    3.05
  -3   0  -4  165.18    2.97
   3   0   4  161.45    2.87
  -4   0  -4  121.49    2.33
  -4   0  -4  128.75    2.45
   4   0   4  122.11    2.28
  -5   0  -4  128.47    2.49
  -5   0  -4  133.21    2.61
   5   0   4  131.11    2.48
  -6   0  -4  211.43    3.97
  -6   0  -4  208.91    3.86
   6   0   4  211.43    3.88
  -7   0  -4   42.59    1.16
  -7   0  -4   41.79    1.22
   7   0   4   45.10    1.22
  -8   0  -4   38.23    1.20
  -8   0  -4   37.60    1.14
   8   0   4   38.65    1.21
  -9   0  -4  101.22    2.37
  -9   0  -4  107.83    2.43
   9   0   4  103.99    2.45
 -10   0  -4    6.67    0.60
  10   0   4    6.68    0.62
 -11   0  -4   58.71    1.74
  11   0   4   59.52    1.85
  12   0   4   30.63    1.39
  13   0   4    2.24    0.49
  14   0   4   23.27    1.35
  11  -1  -4   39.31    1.65
  10  -1  -4   12.69    0.96
   9  -1  -4   13.00    0.90
   8  -1  -4   69.03    1.99
   7  -1  -4    0.57    0.28
   6  -1  -4   86.33    2.12
   5  -1  -4   81.86    1.96
   4  -1  -4    7.37    0.49
   4  -1  -4    8.11    0.51
  -4   1   4    8.21    0.29
   3  -1  -4  129.62    2.59
   3  -1  -4  133.00    2.62
  -3   1   4  126.09    2.29
   2  -1  -4  319.43    5.64
   2  -1  -4  321.01    5.62
  -2   1   4  324.62    5.40
   1  -1  -4   25.99    0.71
   1  -1  -4   25.65    0.73
  -1   1   4   26.82    0.60
   0  -1  -4  493.90    8.30
   0  -1  -4  498.99    8.34
   0   1   4  494.83    8.25
  -1  -1  -4   48.33    1.04
  -1  -1  -4   51.25    1.03
  -1  -1  -4   48.27    1.04
  -2  -1  -4    3.85    0.22
  -2  -1  -4    2.75    0.24
  -2  -1  -4    3.02    0.20
  -3  -1  -4  232.74    4.15
  -3  -1  -4  232.06    4.01
   3   1   4  235.28    4.05
  -4  -1  -4  109.93    2.05
  -4  -1  -4  112.26    2.23
   4   1   4  111.81    2.13
  -5  -1  -4   11.92    0.42
   5   1   4   12.85    0.53
  -6  -1  -4   70.43    1.67
  -6  -1  -4   70.55    1.50
   6   1   4   72.78    1.64
  -7  -1  -4   18.73    0.65
  -7  -1  -4   18.74    0.76
   7   1   4   20.58    0.80
  -8  -1  -4  134.74    2.88
  -8  -1  -4  134.31    2.73
   8   1   4  139.76    2.93
  -9  -1  -4   34.15    1.20
   9   1   4   36.40    1.32
 -10  -1  -4    4.68    0.50
  10   1   4    2.80    0.47
 -11  -1  -4   64.18    1.83
  11   1   4   62.71    1.98
  12   1   4   25.02    1.30
  13   1   4    3.27    0.62
  14   1   4   20.61    1.60
  11  -2  -4   28.31    1.42
  10  -2  -4    4.90    0.63
   9  -2  -4   59.62    1.90
   8  -2  -4   27.47    1.17
   7  -2  -4    2.73    0.42
   6  -2  -4   81.96    2.04
   5  -2  -4   49.45    1.39
   4  -2  -4    0.53    0.18
   3  -2  -4  361.45    6.43
   3  -2  -4  366.51    6.40
   2  -2  -4  174.69    3.27
   2  -2  -4  174.29    3.24
   1  -2  -4   25.18    0.70
   1  -2  -4   24.76    0.53
   1  -2  -4   24.83    0.71
   0  -2  -4  132.35    2.46
   0  -2  -4  134.82    2.48
   0  -2  -4  135.97    2.37
  -1  -2  -4   48.69    1.05
  -1  -2  -4   47.22    1.02
  -1  -2  -4   48.01    1.00
  -2  -2  -4  147.06    2.57
  -2  -2  -4  146.27    2.71
  -2  -2  -4  148.63    2.68
  -3  -2  -4  237.62    4.05
  -3  -2  -4  244.39    4.29
  -3  -2  -4  242.17    4.22
   3   2   4  238.12    4.22
  -4  -2  -4   27.88    0.61
   4   2   4   28.71    0.79
  -5  -2  -4  240.49    4.39
  -5  -2  -4  232.05    4.05
   5   2   4  241.79    4.32
  -6  -2  -4  153.03    2.74
  -6  -2  -4  152.30    3.05
   6   2   4  152.07    3.01
  -7  -2  -4    0.79    0.22
  -7  -2  -4    0.76    0.15
   7   2   4    0.74    0.24
  -8  -2  -4   86.36    2.08
   8   2   4   86.11    2.12
  -9  -2  -4   38.52    1.28
   9   2   4   37.47    1.36
 -10  -2  -4   25.09    1.06
  10   2   4   25.30    1.21
 -11  -2  -4   63.22    1.86
  11   2   4   62.75    2.03
 -12  -2  -4   15.36    1.02
  12   2   4   14.00    1.06
  13   2   4   15.28    1.18
  11  -3  -4   27.27    1.36
  10  -3  -4   -0.37    0.28
   9  -3  -4   63.01    1.95
   8  -3  -4   15.76    0.91
   7  -3  -4   41.07    1.38
   6  -3  -4  160.07    3.36
   5  -3  -4   87.71    2.06
   4  -3  -4   18.85    0.74
   3  -3  -4  182.20    3.46
   2  -3  -4   41.13    1.05
   1  -3  -4   20.42    0.47
   1  -3  -4   20.53    0.64
   0  -3  -4   63.98    1.34
   0  -3  -4   64.33    1.37
   0  -3  -4   65.15    1.27
  -1  -3  -4    0.39    0.13
  -1  -3  -4    0.21    0.12
  -1  -3  -4    0.37    0.12
  -2  -3  -4  236.71    4.16
  -2  -3  -4  229.32    4.18
  -2  -3  -4  240.51    3.96
   2   3   4  232.38    4.15
  -3  -3  -4  140.57    2.70
  -3  -3  -4  138.54    2.63
  -3  -3  -4  140.90    2.35
   3   3   4  137.13    2.63
  -4  -3  -4    5.58    0.39
   4   3   4    4.99    0.35
  -5  -3  -4   91.32    2.02
   5   3   4   89.12    1.95
  -6  -3  -4    9.49    0.55
  -6  -3  -4    9.70    0.31
   6   3   4    9.08    0.55
  -7  -3  -4   65.85    1.71
   7   3   4   67.21    1.72
  -8  -3  -4  129.45    2.85
   8   3   4  129.48    2.89
  -9  -3  -4   40.82    1.35
   9   3   4   39.38    1.44
 -10  -3  -4   22.29    1.03
  10   3   4   23.08    1.19
 -11  -3  -4   87.16    2.31
  11   3   4   86.18    2.48
 -12  -3  -4    2.61    0.47
  12   3   4    2.40    0.59
  13   3   4   20.88    1.33
  11  -4  -4   28.06    1.40
  10  -4  -4    2.83    0.52
   9  -4  -4   36.04    1.42
   8  -4  -4   22.82    1.06
   7  -4  -4   15.40    0.84
   6  -4  -4   86.64    2.12
   5  -4  -4    4.74    0.46
   4  -4  -4  288.90    5.29
   3  -4  -4  178.48    3.41
   2  -4  -4   68.72    1.29
   2  -4  -4   69.30    1.55
   1  -4  -4   23.51    0.62
   1  -4  -4   24.36    0.73
   0  -4  -4   84.96    1.73
   0  -4  -4   88.60    1.79
  -1  -4  -4    0.23    0.13
  -1  -4  -4    0.39    0.14
  -2  -4  -4  269.72    4.72
  -2  -4  -4  255.78    4.76
   2   4   4  270.48    4.72
  -3  -4  -4    0.61    0.16
  -3  -4  -4    0.72    0.19
   3   4   4    0.87    0.17
  -4  -4  -4  134.86    2.77
   4   4   4  133.68    2.66
  -5  -4  -4  184.66    3.65
   5   4   4  182.21    3.55
  -6  -4  -4   40.19    1.24
   6   4   4   39.12    1.20
  -7  -4  -4   16.53    0.80
   7   4   4   16.24    0.82
  -8  -4  -4   71.66    1.94
   8   4   4   73.45    1.98
  -9  -4  -4    0.19    0.24
   9   4   4   -0.22    0.33
 -10  -4  -4   78.67    2.16
  10   4   4   81.65    2.32
 -11  -4  -4   57.18    1.81
  11   4   4   55.80    1.99
 -12  -4  -4    1.34    0.38
  12   4   4    0.84    0.48
  13   4   4   16.99    1.38
  11  -5  -4    0.71    0.40
  10  -5  -4   21.59    1.15
   9  -5  -4   56.63    1.83
   8  -5  -4    0.41    0.29
   7  -5  -4   33.70    1.24
   6  -5  -4   62.75    1.71
   5  -5  -4    1.90    0.31
   4  -5  -4  294.22    5.40
   3  -5  -4    9.77    0.52
   3  -5  -4   10.72    0.39
   2  -5  -4    1.13    0.21
   2  -5  -4    1.79    0.20
   1  -5  -4  209.39    3.83
   1  -5  -4  206.02    3.77
   0  -5  -4   70.40    1.60
   0  -5  -4   73.07    1.59
  -1  -5  -4    0.94    0.20
  -1  -5  -4    0.94    0.18
  -2  -5  -4  339.03    5.94
  -2  -5  -4  331.64    6.05
   2   5   4  337.62    5.93
   2   5   4  336.96    5.64
  -3  -5  -4    6.87    0.49
  -3  -5  -4    7.00    0.43
  -4  -5  -4  172.37    3.49
   4   5   4  170.63    3.33
  -5  -5  -4  120.52    2.71
   5   5   4  122.31    2.59
  -6  -5  -4    4.65    0.50
   6   5   4    4.52    0.47
  -7  -5  -4   75.97    2.01
   7   5   4   73.52    1.95
  -8  -5  -4  119.41    2.86
   8   5   4  123.28    2.89
  -9  -5  -4    0.86    0.32
   9   5   4    0.93    0.43
 -10  -5  -4   85.73    2.38
  10   5   4   93.30    2.57
 -11  -5  -4   16.88    1.02
  11   5   4   15.03    1.19
 -12  -5  -4    2.87    0.53
  12   5   4    2.65    0.60
  11  -6  -4    0.46    0.36
  10  -6  -4   15.33    1.00
   9  -6  -4   25.22    1.19
   8  -6  -4    1.86    0.40
   7  -6  -4  144.89    3.23
   6  -6  -4  144.74    3.13
   5  -6  -4   24.52    0.94
   4  -6  -4   99.20    2.22
   3  -6  -4   68.72    1.64
   3  -6  -4   67.50    1.51
   2  -6  -4  104.72    2.20
   2  -6  -4  102.14    2.15
   1  -6  -4  154.25    3.06
   1  -6  -4  155.77    3.03
   0  -6  -4   77.55    1.84
   0  -6  -4   80.68    1.77
  -1  -6  -4   46.95    1.33
   1   6   4   48.39    1.09
  -2  -6  -4  110.21    2.36
  -2  -6  -4  112.49    2.52
   2   6   4  115.47    2.38
   2   6   4  117.58    2.10
  -3  -6  -4    6.11    0.50
   3   6   4    6.00    0.47
  -4  -6  -4   94.02    2.28
   4   6   4   94.50    2.13
  -5  -6  -4   26.94    1.09
   5   6   4   28.00    1.02
  -6  -6  -4    7.43    0.63
   6   6   4    4.74    0.50
  -7  -6  -4   77.32    2.13
   7   6   4   76.68    2.07
  -8  -6  -4   46.42    1.61
   8   6   4   46.57    1.61
  -9  -6  -4    7.12    0.70
   9   6   4    5.60    0.68
 -10  -6  -4   61.59    1.97
  10   6   4   57.86    2.03
 -11  -6  -4   13.34    0.96
  11   6   4   12.48    1.14
 -12  -6  -4    3.11    0.54
  12   6   4    1.95    0.58
  11  -7  -4    0.10    0.32
  10  -7  -4   42.03    1.63
   9  -7  -4    6.45    0.69
   8  -7  -4    6.16    0.66
   7  -7  -4   86.38    2.23
   6  -7  -4   54.68    1.60
   5  -7  -4   46.78    1.39
   4  -7  -4  170.25    3.43
   3  -7  -4   58.79    1.48
   3  -7  -4   57.19    1.49
   2  -7  -4   56.50    1.48
   2  -7  -4   55.78    1.44
   1  -7  -4   59.74    1.57
   1  -7  -4   58.03    1.46
  -1   7   4   56.94    1.44
   0  -7  -4   19.08    0.84
   0  -7  -4   18.33    0.72
   0   7   4   19.13    0.70
  -1  -7  -4  127.25    2.84
  -1  -7  -4  127.46    2.65
   1   7   4  133.08    2.68
   1   7   4  128.72    2.48
  -2  -7  -4   63.71    1.76
  -2  -7  -4   61.86    1.56
   2   7   4   64.10    1.59
   2   7   4   63.64    1.33
  -3  -7  -4    4.39    0.51
   3   7   4    3.90    0.39
  -4  -7  -4  143.30    3.23
   4   7   4  144.44    3.03
  -5  -7  -4   10.08    0.73
   5   7   4    9.02    0.67
  -6  -7  -4   14.24    0.88
   6   7   4   14.12    0.85
  -7  -7  -4   64.12    1.96
   7   7   4   61.34    1.87
  -8  -7  -4    5.01    0.64
   8   7   4    4.86    0.64
  -9  -7  -4   52.34    1.84
   9   7   4   51.23    1.86
 -10  -7  -4   40.68    1.63
  10   7   4   41.03    1.76
 -11  -7  -4    3.18    0.57
  11   7   4    1.65    0.58
 -12  -7  -4   13.36    1.05
  11  -8  -4    3.68    0.62
  10  -8  -4   27.50    1.31
 -10   8   4   26.41    1.51
   9  -8  -4    3.37    0.52
  -9   8   4    4.11    0.67
   8  -8  -4   17.44    0.97
  -8   8   4   19.20    1.20
   7  -8  -4   97.76    2.46
  -7   8   4   99.87    2.68
   6  -8  -4    0.50    0.29
  -6   8   4    0.81    0.43
   5  -8  -4    1.89    0.35
  -5   8   4    1.49    0.43
   4  -8  -4  103.52    2.38
  -4   8   4  107.67    2.54
   3  -8  -4    2.05    0.32
   3  -8  -4    2.07    0.35
  -3   8   4    2.48    0.41
   2  -8  -4   89.37    2.09
   2  -8  -4   92.64    2.21
  -2   8   4   93.74    2.16
   1  -8  -4   31.72    1.15
   1  -8  -4   30.72    1.01
  -1   8   4   31.65    1.04
   0  -8  -4   14.87    0.69
   0  -8  -4   14.38    0.81
   0   8   4   16.90    0.70
  -1  -8  -4   58.63    1.53
  -1  -8  -4   57.73    1.73
   1   8   4   59.04    1.54
   1   8   4   57.71    1.38
  -2  -8  -4   20.75    1.00
  -2  -8  -4   20.68    0.83
   2   8   4   18.73    0.66
   2   8   4   21.59    0.85
  -3  -8  -4   34.54    1.33
   3   8   4   35.56    1.17
  -4  -8  -4  134.42    3.18
   4   8   4  133.59    2.94
  -5  -8  -4    0.64    0.33
   5   8   4    0.43    0.32
  -6  -8  -4   63.04    2.00
   6   8   4   63.09    1.87
  -7  -8  -4   64.80    2.07
   7   8   4   63.03    1.97
  -8  -8  -4   -0.21    0.27
   8   8   4   -0.07    0.39
  -9  -8  -4   44.94    1.74
   9   8   4   43.42    1.77
 -10  -8  -4   40.95    1.73
  10   8   4   43.80    1.91
  11   8   4   -0.78    0.48
  10  -9  -4   23.97    1.25
   9  -9  -4   -0.03    0.28
  -9   9   4   -0.08    0.47
   8  -9  -4   19.68    1.04
  -8   9   4   21.44    1.30
   7  -9  -4   29.17    1.21
  -7   9   4   31.17    1.44
   6  -9  -4    1.43    0.36
  -6   9   4    2.03    0.53
   5  -9  -4  127.87    2.86
  -5   9   4  127.07    3.06
   4  -9  -4  112.97    2.58
  -4   9   4  114.04    2.73
   3  -9  -4   -0.04    0.24
   3  -9  -4    0.07    0.19
  -3   9   4    0.51    0.32
   2  -9  -4   59.97    1.60
   2  -9  -4   58.63    1.73
  -2   9   4   58.46    1.64
   1  -9  -4   25.11    0.95
   1  -9  -4   26.17    1.11
  -1   9   4   26.86    0.99
   0  -9  -4   36.43    1.38
   0  -9  -4   37.15    1.20
   0   9   4   39.71    1.17
   0   9   4   39.07    1.23
  -1  -9  -4   47.58    1.40
  -1  -9  -4   48.94    1.64
   1   9   4   49.29    1.29
   1   9   4   50.16    1.44
  -2  -9  -4    1.07    0.37
  -2  -9  -4    1.19    0.29
   2   9   4    1.28    0.31
  -3  -9  -4   94.52    2.56
   3   9   4   95.55    2.30
  -4  -9  -4  114.03    2.92
   4   9   4  111.04    2.65
  -5  -9  -4    0.27    0.32
   5   9   4    0.10    0.35
  -6  -9  -4   69.06    2.20
   6   9   4   69.07    2.05
  -7  -9  -4   54.14    1.96
   7   9   4   54.78    1.87
  -8  -9  -4    2.19    0.53
   8   9   4    1.51    0.54
  -9  -9  -4   23.40    1.33
   9   9   4   22.44    1.40
 -10  -9  -4   11.59    1.03
  10   9   4    7.97    0.94
  -9  10   4    1.53    0.58
  -8  10   4   44.65    1.87
   7 -10  -4    4.68    0.56
  -7  10   4    4.23    0.69
   6 -10  -4    3.44    0.47
  -6  10   4    4.33    0.68
   5 -10  -4   82.76    2.17
  -5  10   4   89.33    2.43
   4 -10  -4   25.06    1.02
  -4  10   4   25.47    1.20
   3 -10  -4   17.81    0.87
  -3  10   4   19.38    1.00
   2 -10  -4   96.48    2.47
   2 -10  -4   88.88    2.21
  -2  10   4   92.07    2.28
   1 -10  -4    4.98    0.51
   1 -10  -4    5.88    0.64
  -1  10   4    6.56    0.64
   0 -10  -4   32.55    1.36
   0 -10  -4   28.23    1.10
   0  10   4   30.44    1.08
   0  10   4   31.12    1.14
  -1 -10  -4   92.88    2.25
  -1 -10  -4   91.35    2.54
   1  10   4   93.46    2.25
  -2 -10  -4    0.93    0.38
   2  10   4    0.88    0.33
  -3 -10  -4   46.45    1.74
   3  10   4   47.66    1.53
  -4 -10  -4   54.75    1.93
   4  10   4   53.53    1.70
  -5 -10  -4    5.94    0.75
   5  10   4    6.59    0.68
  -6 -10  -4   70.82    2.32
   6  10   4   71.45    2.18
  -7 -10  -4   29.32    1.48
   7  10   4   29.98    1.43
  -8 -10  -4    6.38    0.82
   8  10   4    5.60    0.77
  -9 -10  -4   44.58    1.91
   9  10   4   45.15    1.94
  -8  11   4   31.71    1.64
  -7  11   4   14.49    1.17
  -6  11   4   21.02    1.25
  -5  11   4   52.24    1.85
  -4  11   4    2.58    0.54
   3 -11  -4   11.68    0.80
  -3  11   4   12.24    0.91
   2 -11  -4   51.85    1.76
   2 -11  -4   50.37    1.53
  -2  11   4   46.32    1.57
   1 -11  -4    0.27    0.25
   1 -11  -4    0.54    0.37
  -1  11   4    0.81    0.35
  -1  11   4   -0.10    0.27
   0 -11  -4   40.99    1.63
   0 -11  -4   40.95    1.37
   0  11   4   39.69    1.37
  -1 -11  -4   32.43    1.48
  -1 -11  -4   31.00    1.19
   1  11   4   32.78    1.23
  -2 -11  -4    1.45    0.46
   2  11   4    2.02    0.42
  -3 -11  -4   21.98    1.26
   3  11   4   18.92    1.04
  -4 -11  -4    8.73    0.93
   4  11   4    8.71    0.81
  -5 -11  -4    9.47    0.94
   5  11   4    8.19    0.80
  -6 -11  -4   49.30    1.97
   6  11   4   50.16    1.87
  -7 -11  -4    2.12    0.54
   7  11   4    2.00    0.59
  -8 -11  -4   16.57    1.26
   8  11   4   14.04    1.29
  -7  12   4    2.10    0.62
  -6  12   4   19.39    1.24
  -5  12   4   31.98    1.47
  -4  12   4    0.75    0.43
  -3  12   4   33.67    1.41
   2 -12  -4   28.12    1.36
  -2  12   4   23.35    1.15
   1 -12  -4    0.15    0.34
   0 -12  -4   47.76    1.85
  -1 -12  -4    2.13    0.54
  -2 -12  -4   32.23    1.56
  -3 -12  -4   62.46    2.22
   3  12   4   60.92    2.60
  -4 -12  -4    5.23    0.81
   4  12   4    4.43    0.65
  -5 -12  -4   12.20    1.12
   5  12   4   10.58    1.03
  -6 -12  -4   36.38    1.76
   6  12   4   35.62    1.62
   7  12   4   -0.58    0.47
  -6  13   4   32.42    1.60
  -5  13   4   13.79    1.08
  -4  13   4    3.37    0.61
  -3  13   4   24.66    1.28
   2 -13  -4   12.70    1.13
   1 -13  -4   12.02    1.07
   0 -13  -4   37.42    1.71
  -1 -13  -4    0.11    0.40
  -2 -13  -4   16.60    1.24
  -3 -13  -4   24.45    1.48
  -4 -13  -4    0.17    0.40
  -4  14   4   10.44    1.23
   1 -14  -4   26.46    1.53
   0 -14  -4   16.13    1.28
  -1 -14  -4    2.07    0.59
  -2 -14  -4   34.98    1.81
  -1  11  -5    7.67    0.96
  -2  11  -5    2.91    0.85
   1  10  -5   -0.65    0.36
  -1 -10   5   -0.12    0.52
   0  10  -5   25.98    1.32
   0 -10   5   25.17    1.52
  -1  10  -5   12.75    1.03
   1 -10   5   12.59    1.21
  -2  10  -5    1.49    0.55
   2 -10   5    1.56    0.60
  -3  10  -5   26.85    1.42
   3 -10   5   29.68    1.66
  -4  10  -5    9.69    0.96
   4 -10   5    7.53    1.01
  -5  10  -5   11.30    1.07
   5 -10   5   12.04    1.20
  -6  10  -5   33.68    1.68
   6 -10   5   36.06    1.82
   7 -10   5    0.89    0.68
  -4  -9   5    0.23    0.43
  -3  -9   5   23.85    1.47
   2   9  -5   12.31    0.93
  -2  -9   5   11.99    1.14
   1   9  -5    6.90    0.77
  -1  -9   5    5.90    0.84
   0   9  -5   33.21    1.43
   0  -9   5   33.77    1.65
  -1   9  -5    8.51    0.84
   1  -9   5    8.65    0.95
  -2   9  -5   12.06    0.96
   2  -9   5   11.73    1.15
  -3   9  -5   30.44    1.44
   3  -9   5   29.49    1.55
  -4   9  -5    7.43    0.85
   4  -9   5    6.59    0.86
  -5   9  -5   20.06    1.23
   5  -9   5   20.25    1.32
  -6   9  -5   25.11    1.38
   6  -9   5   26.98    1.48
  -7   9  -5    0.28    0.45
   7  -9   5    0.43    0.47
  -8   9  -5   11.98    1.09
   8  -9   5    8.44    0.95
   9  -9   5   23.32    1.44
  -5  -8   5   16.80    1.19
  -4  -8   5   11.43    1.06
   3   8  -5   39.32    1.50
  -3  -8   5   43.85    1.79
   2   8  -5   15.81    0.97
  -2  -8   5   15.40    1.17
   1   8  -5    9.34    0.79
  -1  -8   5    8.31    0.90
   0   8  -5   31.94    1.33
   0  -8   5   33.34    1.55
  -1   8  -5    0.19    0.36
   1  -8   5   -0.40    0.36
  -2   8  -5   51.96    1.75
   2  -8   5   50.96    1.91
  -3   8  -5   56.34    1.87
   3  -8   5   56.59    2.00
  -4   8  -5    0.32    0.38
   4  -8   5    0.36    0.44
  -5   8  -5   31.54    1.41
   5  -8   5   30.30    1.45
  -6   8  -5   19.13    1.16
   6  -8   5   18.37    1.17
  -7   8  -5   -0.15    0.38
   7  -8   5   -0.54    0.34
  -8   8  -5   45.87    1.84
   8  -8   5   45.90    1.80
  -9   8  -5    7.63    0.92
   9  -8   5    6.55    0.82
 -10   8  -5    3.69    1.04
  10  -8   5    2.28    0.60
  -5  -7   5    5.97    0.75
   4   7  -5   26.02    1.19
  -4  -7   5   28.83    1.41
   3   7  -5   48.76    1.60
  -3  -7   5   47.06    1.81
   2   7  -5    5.98    0.62
  -2  -7   5    5.51    0.75
   1   7  -5   19.20    0.99
  -1  -7   5   19.09    1.16
   0   7  -5   42.29    1.46
   0  -7   5   40.04    1.62
  -1   7  -5   -0.16    0.29
   1  -7   5   -0.32    0.30
  -2   7  -5   26.98    1.18
   2  -7   5   27.68    1.30
  -3   7  -5   16.12    0.97
   3  -7   5   17.13    1.06
  -4   7  -5   25.85    1.20
   4  -7   5   24.96    1.24
  -5   7  -5   39.47    1.54
   5  -7   5   43.17    1.59
  -6   7  -5   31.95    1.39
   6  -7   5   30.51    1.37
  -7   7  -5    6.61    0.77
   7  -7   5    7.00    0.78
  -8   7  -5   31.24    1.46
   8  -7   5   30.99    1.41
  -9   7  -5    3.70    0.68
   9  -7   5    4.32    0.67
 -10   7  -5   25.67    1.47
  10  -7   5   25.19    1.33
 -11   7  -5   22.62    1.43
   5   6  -5    1.04    0.40
  -5  -6   5    1.01    0.39
   4   6  -5   50.47    1.61
  -4  -6   5   52.07    1.81
   3   6  -5   53.56    1.63
  -3  -6   5   52.65    1.83
   2   6  -5    0.69    0.32
  -2  -6   5    0.93    0.41
   1   6  -5   41.67    1.40
  -1  -6   5   44.43    1.60
   0   6  -5   28.97    1.13
   0  -6   5   29.14    1.28
  -1   6  -5   23.22    1.03
   1  -6   5   23.61    1.14
  -2   6  -5   92.02    2.32
   2  -6   5   94.19    2.44
  -3   6  -5   33.64    1.27
   3  -6   5   34.40    1.35
  -4   6  -5   17.94    0.96
   4  -6   5   18.47    1.01
  -5   6  -5   10.60    0.82
   5  -6   5   11.72    0.84
  -6   6  -5    8.30    0.77
   6  -6   5    8.84    0.79
  -7   6  -5   59.15    1.92
   7  -6   5   59.99    1.88
  -8   6  -5   30.46    1.38
   8  -6   5   29.54    1.32
  -9   6  -5    3.95    0.66
   9  -6   5    4.57    0.63
 -10   6  -5   24.97    1.38
  10  -6   5   24.76    1.26
 -11   6  -5   16.50    1.24
 -12   6  -5    2.49    0.64
   6   5  -5   31.49    1.27
   5   5  -5    2.53    0.46
  -5  -5   5    2.51    0.48
   4   5  -5   58.78    1.71
  -4  -5   5   59.96    1.88
   3   5  -5   29.38    1.13
  -3  -5   5   30.15    1.28
   2   5  -5   15.72    0.82
  -2  -5   5   16.11    0.97
   1   5  -5   76.55    1.94
  -1  -5   5   74.73    2.09
   0   5  -5   38.46    1.25
   0  -5   5   37.71    1.37
  -1   5  -5   18.98    0.87
   1  -5   5   18.66    0.95
  -2   5  -5   69.09    1.82
   2  -5   5   67.94    1.87
  -3   5  -5    1.49    0.35
   3  -5   5    1.20    0.36
  -4   5  -5   81.58    2.09
   4  -5   5   79.54    2.10
  -5   5  -5   77.63    2.07
   5  -5   5   79.43    2.10
  -6   5  -5   -0.14    0.28
   6  -5   5   -0.06    0.24
  -7   5  -5   68.22    1.99
   7  -5   5   65.53    1.93
  -8   5  -5   44.05    1.60
   8  -5   5   45.77    1.58
  -9   5  -5    1.36    0.47
   9  -5   5    0.65    0.37
 -10   5  -5   31.25    1.45
  10  -5   5   29.31    1.32
 -11   5  -5   10.20    0.97
  11  -5   5    9.57    0.88
 -12   5  -5    5.65    0.82
 -13   5  -5   33.11    1.71
   9   4  -5   20.08    1.30
   8   4  -5    4.15    0.63
   7   4  -5   28.47    1.32
   7   4  -5   28.27    1.25
   6   4  -5   18.34    1.02
   6   4  -5   18.45    0.96
   5   4  -5   13.93    0.83
   5   4  -5   13.18    0.81
  -5  -4   5   13.46    0.84
   4   4  -5  135.65    2.96
   4   4  -5  134.60    2.97
  -4  -4   5  132.79    3.08
   3   4  -5    9.32    0.64
   3   4  -5    8.72    0.57
  -3  -4   5    8.18    0.72
   2   4  -5   19.05    0.85
  -2  -4   5   18.67    0.93
   1   4  -5   24.17    0.94
  -1  -4   5   25.82    1.05
   0   4  -5    0.02    0.20
   0  -4   5    0.01    0.24
  -1   4  -5  127.34    2.73
   1  -4   5  127.84    2.80
  -2   4  -5  169.97    3.46
   2  -4   5  172.36    3.52
  -3   4  -5    1.44    0.31
   3  -4   5    1.61    0.33
  -4   4  -5   39.66    1.27
   4  -4   5   39.87    1.28
  -5   4  -5   28.15    1.06
   5  -4   5   27.84    1.07
  -6   4  -5   14.69    0.83
   6  -4   5   15.18    0.84
  -7   4  -5   52.47    1.65
   7  -4   5   56.57    1.67
  -8   4  -5   30.50    1.26
   8  -4   5   30.35    1.22
  -9   4  -5   18.25    1.05
   9  -4   5   17.08    0.96
 -10   4  -5   44.22    1.67
  10  -4   5   44.18    1.57
 -11   4  -5   12.97    1.01
  11  -4   5   11.60    0.88
 -12   4  -5   15.77    1.17
   9   3  -5    5.96    0.76
   8   3  -5   10.04    0.87
   8   3  -5    8.92    0.84
   7   3  -5   50.95    1.76
   7   3  -5   51.13    1.67
   6   3  -5   12.18    0.80
   6   3  -5   10.49    0.78
   5   3  -5  109.76    2.61
   5   3  -5  107.02    2.55
  -5  -3   5  111.56    3.12
   4   3  -5  106.96    2.44
   4   3  -5  106.17    2.44
  -4  -3   5  103.32    2.47
   3   3  -5   17.65    0.80
   3   3  -5   17.02    0.74
  -3  -3   5   18.55    0.87
   2   3  -5   79.95    1.88
   2   3  -5   75.92    1.74
  -2  -3   5   76.85    1.94
   1   3  -5   43.69    1.08
   1   3  -5   44.08    1.26
  -1  -3   5   46.41    1.34
   0   3  -5    7.16    0.32
   0   3  -5    6.90    0.51
   0  -3   5    6.88    0.54
  -1   3  -5  238.08    4.49
   1  -3   5  241.87    4.54
  -2   3  -5  168.94    3.33
   2  -3   5  167.86    3.37
  -3   3  -5   12.82    0.65
   3  -3   5   12.23    0.64
  -4   3  -5  135.40    2.85
   4  -3   5  138.28    2.91
  -5   3  -5   48.80    1.41
   5  -3   5   52.44    1.47
  -6   3  -5   22.32    0.92
   6  -3   5   22.35    0.93
  -7   3  -5   37.09    1.27
   7  -3   5   40.00    1.30
  -8   3  -5    3.50    0.49
   8  -3   5    3.52    0.47
  -9   3  -5   55.59    1.75
   9  -3   5   55.72    1.70
 -10   3  -5   56.84    1.84
  10  -3   5   54.82    1.74
 -11   3  -5    3.87    0.60
  11  -3   5    4.32    0.59
  10   2  -5   41.78    1.77
   9   2  -5    1.87    0.50
   8   2  -5   18.50    1.09
   7   2  -5   37.44    1.44
   7   2  -5   35.97    1.36
   6   2  -5   13.79    0.83
   6   2  -5   12.94    0.81
   5   2  -5  105.69    2.45
   5   2  -5  103.90    2.48
   4   2  -5   44.99    1.35
   4   2  -5   49.16    1.39
  -4  -2   5   45.10    1.34
   3   2  -5    0.21    0.17
   3   2  -5    0.12    0.21
  -3  -2   5    0.32    0.23
   2   2  -5   76.16    1.79
   2   2  -5   75.72    1.69
  -2  -2   5   75.72    1.81
   1   2  -5   87.97    1.96
   1   2  -5   87.61    1.79
  -1  -2   5   87.48    1.96
   0   2  -5    5.63    0.29
   0   2  -5    5.56    0.41
   0  -2   5    6.22    0.45
  -1   2  -5   85.81    1.88
  -1   2  -5   83.27    1.55
   1  -2   5   84.79    1.88
  -2   2  -5   22.52    0.78
  -2   2  -5   22.21    0.46
   2  -2   5   23.64    0.82
  -3   2  -5  102.23    2.18
   3  -2   5  102.99    2.23
  -4   2  -5  175.86    3.35
   4  -2   5  165.64    2.92
   4  -2   5  172.17    3.40
  -5   2  -5   23.27    0.84
   5  -2   5   22.48    0.60
   5  -2   5   22.12    0.86
  -6   2  -5    8.78    0.57
   6  -2   5    8.45    0.57
   6  -2   5    9.00    0.43
  -7   2  -5   77.59    1.92
   7  -2   5   77.87    1.70
   7  -2   5   77.01    1.95
  -8   2  -5    0.70    0.27
   8  -2   5    0.74    0.27
   8  -2   5    0.50    0.24
  -9   2  -5   51.15    1.60
 -10   2  -5   10.99    0.79
 -11   2  -5   14.76    1.06
  10   1  -5   26.57    1.38
   9   1  -5    1.41    0.44
   8   1  -5   28.18    1.28
   7   1  -5   73.25    2.10
   7   1  -5   72.25    2.04
   6   1  -5   24.88    1.07
   6   1  -5   25.37    1.07
   5   1  -5   49.16    1.48
   5   1  -5   48.31    1.46
   4   1  -5   35.83    1.13
   4   1  -5   34.83    1.12
  -4  -1   5   31.86    1.00
   3   1  -5   13.89    0.66
   3   1  -5   14.31    0.64
  -3  -1   5   14.53    0.63
   2   1  -5  142.42    2.86
   2   1  -5  140.07    2.78
  -2  -1   5  145.32    2.81
   1   1  -5   20.56    0.73
   1   1  -5   19.86    0.63
  -1  -1   5   20.51    0.69
   0   1  -5   30.07    0.88
   0   1  -5   29.35    0.74
   0  -1   5   29.87    0.86
  -1   1  -5   72.54    1.40
  -1   1  -5   73.30    1.62
   1  -1   5   74.57    1.63
  -2   1  -5    0.10    0.14
  -2   1  -5    0.13    0.07
   2  -1   5    0.15    0.14
  -3   1  -5   85.21    1.79
   3  -1   5   83.36    1.85
   3  -1   5   81.54    1.51
  -4   1  -5  108.21    2.21
   4  -1   5  105.96    1.97
   4  -1   5  110.69    2.31
  -5   1  -5    0.19    0.16
  -5   1  -5    0.03    0.14
   5  -1   5    0.19    0.13
  -6   1  -5   97.69    2.17
  -6   1  -5   98.01    2.12
   6  -1   5   96.44    1.97
  -7   1  -5   35.44    1.09
  -7   1  -5   35.69    1.14
   7  -1   5   35.41    1.03
  -8   1  -5    2.90    0.39
  -8   1  -5    3.23    0.40
   8  -1   5    2.71    0.35
  -9   1  -5   94.35    2.29
  -9   1  -5   94.81    2.30
   9  -1   5   98.00    2.23
 -10   1  -5   25.86    1.09
 -10   1  -5   29.00    1.13
  10  -1   5   28.14    1.11
 -11   1  -5   21.02    1.06
  11  -1   5   23.51    1.08
 -12   1  -5   41.35    1.52
  12  -1   5   41.50    1.58
  10   0  -5   16.71    1.13
   9   0  -5   -0.05    0.32
   8   0  -5   21.34    1.09
   7   0  -5    8.70    0.75
   6   0  -5   58.26    1.72
   6   0  -5   60.51    1.73
   5   0  -5  116.75    2.55
   5   0  -5  106.40    2.51
   4   0  -5    2.74    0.36
   4   0  -5    2.14    0.32
  -4   0   5    2.55    0.27
   3   0  -5   52.40    1.34
   3   0  -5   52.21    1.37
  -3   0   5   49.48    1.20
   2   0  -5  132.60    2.65
   2   0  -5  130.24    2.59
  -2   0   5  131.69    2.50
   1   0  -5   15.28    0.60
   1   0  -5   15.28    0.55
  -1   0   5   15.41    0.53
   0   0  -5  321.72    5.55
   0   0  -5  306.95    5.41
   0   0   5  318.72    5.48
  -1   0  -5   85.14    1.73
  -1   0  -5   82.39    1.59
   1   0   5   82.06    1.72
  -2   0  -5    1.76    0.17
  -2   0  -5    1.38    0.19
   2   0   5    1.65    0.21
  -3   0  -5  260.98    4.65
  -3   0  -5  264.11    4.44
  -3   0  -5  258.39    4.58
   3   0   5  255.46    4.43
  -4   0  -5   68.34    1.48
  -4   0  -5   70.86    1.58
   4   0   5   67.49    1.38
  -6   0  -5  239.02    4.42
  -6   0  -5  243.26    4.56
   6   0   5  249.51    4.41
  -7   0  -5   32.78    1.06
  -7   0  -5   32.53    0.96
   7   0   5   30.06    0.97
  -8   0  -5   23.93    0.97
  -8   0  -5   24.95    0.88
   8   0   5   25.85    0.95
  -9   0  -5   91.89    2.23
  -9   0  -5   88.31    2.13
   9   0   5   93.05    2.21
 -10   0  -5    1.13    0.32
  10   0   5    0.69    0.34
 -11   0  -5   10.56    0.84
  11   0   5   13.51    0.92
 -12   0  -5   75.67    2.16
  12   0   5   80.10    2.26
  13   0   5    1.30    0.44
  14   0   5   21.38    1.24
  10  -1  -5    9.00    0.88
   9  -1  -5   11.04    0.90
   8  -1  -5  124.90    3.05
   7  -1  -5    1.27    0.34
   6  -1  -5   32.23    1.19
   5  -1  -5   37.15    1.22
   5  -1  -5   39.76    1.26
   4  -1  -5    6.91    0.52
   4  -1  -5    6.46    0.48
   3  -1  -5  136.28    2.71
   3  -1  -5  131.95    2.72
  -3   1   5  129.96    2.41
   2  -1  -5   66.15    1.54
   2  -1  -5   67.06    1.51
  -2   1   5   65.79    1.32
   1  -1  -5   32.85    0.89
   1  -1  -5   33.79    0.93
  -1   1   5   33.77    0.78
   0  -1  -5  412.95    7.00
   0  -1  -5  404.73    6.94
   0   1   5  405.25    6.90
  -1  -1  -5   63.11    1.33
  -1  -1  -5   64.59    1.32
  -1  -1  -5   64.00    1.36
  -2  -1  -5    7.90    0.34
  -2  -1  -5    8.04    0.38
  -2  -1  -5    8.36    0.36
  -3  -1  -5  106.20    2.03
  -3  -1  -5  109.68    2.02
  -3  -1  -5  106.44    2.14
   3   1   5  104.23    2.01
  -4  -1  -5  195.57    3.53
  -4  -1  -5  204.74    3.72
   4   1   5  197.42    3.55
  -5  -1  -5   25.86    0.72
  -5  -1  -5   27.85    0.89
   5   1   5   27.09    0.78
  -6  -1  -5   67.16    1.65
  -6  -1  -5   67.17    1.45
   6   1   5   68.23    1.56
  -7  -1  -5    6.26    0.38
  -7  -1  -5    5.57    0.48
   7   1   5    6.03    0.50
  -8  -1  -5   39.40    1.10
  -8  -1  -5   40.30    1.28
   8   1   5   42.25    1.28
  -9  -1  -5   80.37    2.05
   9   1   5   81.89    2.07
 -10  -1  -5    0.72    0.29
  10   1   5   -0.06    0.32
 -11  -1  -5   41.81    1.51
  11   1   5   44.20    1.57
 -12  -1  -5   46.23    1.62
  12   1   5   49.45    1.75
  13   1   5    0.52    0.41
  14   1   5   26.64    1.46
  10  -2  -5    6.62    0.78
   9  -2  -5   28.95    1.35
   8  -2  -5   44.57    1.58
   7  -2  -5   -0.14    0.23
   6  -2  -5  143.76    3.15
   5  -2  -5   67.78    1.77
   4  -2  -5    0.74    0.25
   4  -2  -5    0.51    0.21
   3  -2  -5  143.82    2.94
   3  -2  -5  147.44    2.92
   2  -2  -5   74.60    1.67
   2  -2  -5   77.07    1.72
   1  -2  -5   85.49    1.81
   1  -2  -5   87.38    1.80
  -1   2   5   85.70    1.59
   0  -2  -5  361.06    6.28
   0  -2  -5  364.44    6.15
   0  -2  -5  369.38    6.28
  -1  -2  -5   26.52    0.72
  -1  -2  -5   27.39    0.70
  -1  -2  -5   26.24    0.70
  -2  -2  -5   16.48    0.56
  -2  -2  -5   17.65    0.51
  -2  -2  -5   18.21    0.56
  -3  -2  -5   46.25    1.05
  -3  -2  -5   44.03    0.95
   3   2   5   43.33    1.03
  -4  -2  -5   78.04    1.70
  -4  -2  -5   74.87    1.45
   4   2   5   75.28    1.60
  -5  -2  -5  145.01    2.63
  -5  -2  -5  148.93    2.95
   5   2   5  148.68    2.84
  -6  -2  -5  153.76    3.09
  -6  -2  -5  147.51    2.74
   6   2   5  155.88    3.01
  -7  -2  -5   16.24    0.53
  -7  -2  -5   16.43    0.74
   7   2   5   16.15    0.74
  -8  -2  -5   30.19    1.10
   8   2   5   30.52    1.11
  -9  -2  -5    1.10    0.33
   9   2   5    1.52    0.40
 -10  -2  -5    3.26    0.45
  10   2   5    3.63    0.55
 -11  -2  -5  120.38    2.90
  11   2   5  120.12    3.00
 -12  -2  -5   21.62    1.11
  12   2   5   21.86    1.24
  13   2   5    1.75    0.54
  14   2   5   16.81    1.62
  11  -3  -5   41.02    2.24
  10  -3  -5    1.39    0.41
   9  -3  -5   39.50    1.56
   8  -3  -5   16.48    0.98
   7  -3  -5    1.97    0.41
   6  -3  -5   60.58    1.72
   5  -3  -5   54.57    1.53
   4  -3  -5   16.34    0.73
   3  -3  -5  169.86    3.32
   2  -3  -5    2.45    0.30
   2  -3  -5    1.89    0.26
   1  -3  -5   22.45    0.71
   1  -3  -5   21.95    0.72
   1  -3  -5   21.61    0.52
   0  -3  -5   81.80    1.71
   0  -3  -5   82.25    1.68
   0  -3  -5   80.12    1.57
  -1  -3  -5   13.84    0.47
  -1  -3  -5   13.61    0.46
  -1  -3  -5   13.94    0.51
  -2  -3  -5   72.56    1.41
  -2  -3  -5   72.39    1.54
  -2  -3  -5   73.64    1.56
  -3  -3  -5  202.51    3.74
  -3  -3  -5  203.56    3.46
  -3  -3  -5  205.25    3.69
   3   3   5  197.51    3.68
  -4  -3  -5    1.70    0.24
  -4  -3  -5    1.83    0.14
   4   3   5    1.51    0.22
  -5  -3  -5   86.23    1.57
  -5  -3  -5   88.80    1.99
   5   3   5   88.86    1.91
  -6  -3  -5   29.84    0.74
   6   3   5   28.83    0.96
  -7  -3  -5   19.73    0.85
   7   3   5   20.85    0.86
  -8  -3  -5   61.47    1.71
   8   3   5   61.01    1.71
  -9  -3  -5    4.82    0.53
   9   3   5    4.66    0.59
 -10  -3  -5   43.19    1.47
  10   3   5   42.77    1.59
 -11  -3  -5  103.88    2.65
  11   3   5  103.29    2.76
 -12  -3  -5    5.98    0.66
  12   3   5    6.01    0.75
  13   3   5   17.21    1.27
  11  -4  -5   32.58    1.67
  10  -4  -5    0.68    0.35
   9  -4  -5   23.39    1.17
   8  -4  -5    1.87    0.42
   7  -4  -5   50.98    1.63
   6  -4  -5  133.01    2.98
   5  -4  -5   23.65    0.94
   4  -4  -5   51.43    1.41
   3  -4  -5   56.69    1.44
   2  -4  -5   28.64    0.89
   1  -4  -5  337.80    5.94
   1  -4  -5  335.48    5.67
   0  -4  -5  141.17    2.63
   0  -4  -5  145.84    2.78
  -1  -4  -5    4.37    0.30
  -1  -4  -5    4.24    0.32
  -2  -4  -5  233.75    4.20
  -2  -4  -5  229.74    4.22
  -3  -4  -5  175.80    3.26
  -3  -4  -5  167.45    3.31
   3   4   5  172.74    3.26
  -4  -4  -5    0.25    0.15
   4   4   5    0.02    0.13
  -5  -4  -5  123.36    2.65
   5   4   5  122.90    2.55
   6   4   5   40.02    1.21
  -7  -4  -5   48.47    1.45
   7   4   5   46.59    1.41
  -8  -4  -5   37.83    1.32
   8   4   5   39.72    1.36
  -9  -4  -5   58.10    1.74
   9   4   5   59.42    1.81
 -10  -4  -5   29.16    1.22
  10   4   5   27.24    1.33
 -11  -4  -5   52.12    1.75
  11   4   5   50.16    1.85
 -12  -4  -5    0.54    0.35
  12   4   5    0.26    0.44
 -13  -4  -5   17.03    1.33
  13   4   5   17.43    1.29
  11  -5  -5   14.98    1.32
  10  -5  -5    9.10    0.85
   9  -5  -5   40.81    1.57
   8  -5  -5    5.28    0.59
   7  -5  -5   15.28    0.87
   6  -5  -5   54.07    1.61
   5  -5  -5    0.03    0.19
   4  -5  -5  144.78    3.02
   3  -5  -5   89.48    2.03
   2  -5  -5    0.89    0.22
   2  -5  -5    1.10    0.15
   1  -5  -5  162.95    3.11
   1  -5  -5  156.25    2.91
   0  -5  -5   40.94    1.09
   0  -5  -5   39.42    1.02
  -1  -5  -5   17.99    0.66
  -1  -5  -5   18.15    0.67
  -2  -5  -5  289.64    5.18
  -2  -5  -5  286.15    5.24
  -3  -5  -5    6.22    0.46
  -3  -5  -5    6.19    0.42
   3   5   5    5.59    0.41
  -4  -5  -5   60.70    1.61
   4   5   5   61.20    1.51
  -5  -5  -5  194.07    3.90
   5   5   5  190.97    3.75
  -6  -5  -5   14.34    0.77
   6   5   5   13.08    0.72
  -7  -5  -5   15.82    0.84
   7   5   5   15.96    0.85
  -8  -5  -5   57.40    1.76
   8   5   5   60.46    1.78
  -9  -5  -5    2.16    0.42
   9   5   5    1.97    0.49
 -10  -5  -5   40.78    1.53
  10   5   5   43.19    1.65
 -11  -5  -5   17.42    1.03
  11   5   5   15.69    1.18
 -12  -5  -5    0.22    0.32
  12   5   5    0.39    0.46
 -13  -5  -5   34.53    1.56
  10  -6  -5   18.42    1.11
   9  -6  -5   45.14    1.66
   8  -6  -5    0.02    0.28
   7  -6  -5   17.30    0.93
   6  -6  -5    9.84    0.69
   5  -6  -5    4.61    0.48
   4  -6  -5  108.52    2.44
   3  -6  -5   38.93    1.18
   2  -6  -5   32.36    0.89
   2  -6  -5   35.06    1.06
   1  -6  -5  191.51    3.62
   1  -6  -5  196.23    3.72
   0  -6  -5   21.81    0.77
   0  -6  -5   20.24    0.76
  -1  -6  -5   40.70    1.13
  -1  -6  -5   39.72    1.17
  -2  -6  -5  203.79    3.86
  -2  -6  -5  197.89    3.97
   2   6   5  207.51    3.88
  -3  -6  -5   32.47    1.01
  -3  -6  -5   31.19    1.10
   3   6   5   32.19    1.01
  -4  -6  -5   52.21    1.54
   4   6   5   53.87    1.44
  -5  -6  -5   80.46    2.10
   5   6   5   81.53    1.97
  -6  -6  -5    1.59    0.34
   6   6   5    1.04    0.31
  -7  -6  -5   61.04    1.83
   7   6   5   59.06    1.74
  -8  -6  -5   72.21    2.09
   8   6   5   71.05    2.04
  -9  -6  -5    7.59    0.72
   9   6   5    5.46    0.64
 -10  -6  -5   56.71    1.90
  10   6   5   57.61    1.99
 -11  -6  -5   14.91    1.01
  11   6   5   12.33    1.14
 -12  -6  -5    4.12    0.61
  12   6   5    3.06    0.66
 -13  -6  -5   15.73    1.13
  10  -7  -5   20.10    1.18
   9  -7  -5   30.15    1.36
   8  -7  -5   11.02    0.84
   7  -7  -5   65.08    1.92
   6  -7  -5   10.16    0.74
   5  -7  -5   15.01    0.82
   4  -7  -5   93.88    2.22
   3  -7  -5   40.71    1.24
   2  -7  -5   57.81    1.47
   2  -7  -5   60.27    1.54
   1  -7  -5  115.72    2.49
   1  -7  -5  117.96    2.51
   0  -7  -5    0.46    0.22
   0  -7  -5    0.69    0.20
  -1  -7  -5   88.65    2.02
  -1  -7  -5   89.82    2.14
   1   7   5   87.68    1.83
  -2  -7  -5  162.14    3.30
  -2  -7  -5  163.72    3.46
   2   7   5  164.24    3.30
   2   7   5  167.77    2.99
  -3  -7  -5    2.99    0.41
  -3  -7  -5    2.80    0.35
   3   7   5    2.12    0.32
  -4  -7  -5   60.82    1.80
   4   7   5   64.29    1.67
  -5  -7  -5   79.33    2.14
   5   7   5   74.31    1.94
  -6  -7  -5    1.12    0.36
   6   7   5    0.37    0.29
  -7  -7  -5   41.31    1.53
   7   7   5   40.51    1.45
  -8  -7  -5    3.58    0.56
   8   7   5    2.33    0.50
  -9  -7  -5   36.64    1.50
   9   7   5   34.68    1.52
 -10  -7  -5   47.38    1.79
  10   7   5   49.23    1.89
 -11  -7  -5    8.74    0.89
  11   7   5    9.18    0.95
 -12  -7  -5   10.15    0.94
  10  -8  -5   28.77    1.38
   9  -8  -5    5.74    0.68
   8  -8  -5   16.56    1.00
   7  -8  -5   35.46    1.36
   6  -8  -5   11.29    0.77
   5  -8  -5    6.06    0.57
   4  -8  -5   22.03    0.93
   3  -8  -5    0.52    0.23
   2  -8  -5   84.29    2.01
   2  -8  -5   79.69    1.97
   1  -8  -5   42.57    1.26
   1  -8  -5   41.73    1.32
  -1   8   5   41.42    1.22
   0  -8  -5   16.92    0.84
   0  -8  -5   17.95    0.78
   0   8   5   17.76    0.74
  -1  -8  -5  107.02    2.38
  -1  -8  -5  106.42    2.55
   1   8   5  104.33    2.16
  -2  -8  -5   99.89    2.28
  -2  -8  -5   96.16    2.45
   2   8   5   99.92    2.28
  -3  -8  -5   14.46    0.85
  -3  -8  -5   12.67    0.70
   3   8   5   12.85    0.74
  -4  -8  -5   94.56    2.50
   4   8   5   97.67    2.32
  -5  -8  -5   22.74    1.12
   5   8   5   21.52    1.00
  -6  -8  -5   20.09    1.10
   6   8   5   19.57    1.06
  -7  -8  -5   93.36    2.60
   7   8   5   91.27    2.46
  -8  -8  -5    1.67    0.46
   8   8   5    1.81    0.51
  -9  -8  -5   34.97    1.54
   9   8   5   33.19    1.55
 -10  -8  -5   49.15    1.88
  10   8   5   46.61    1.91
 -11  -8  -5   -0.10    0.32
  11   8   5   -0.28    0.50
  10  -9  -5   28.93    1.42
   9  -9  -5    1.87    0.45
  -9   9   5    2.41    0.64
   8  -9  -5   25.91    1.22
  -8   9   5   25.56    1.42
   7  -9  -5   33.16    1.33
  -7   9   5   34.50    1.51
   6  -9  -5    7.44    0.69
  -6   9   5    6.17    0.73
   5  -9  -5   24.67    1.06
  -5   9   5   27.79    1.25
   4  -9  -5   56.68    1.65
  -4   9   5   59.79    1.78
   3  -9  -5    2.74    0.37
   2  -9  -5   77.53    2.03
   2  -9  -5   74.67    1.93
  -2   9   5   78.09    1.97
   1  -9  -5   31.00    1.10
   1  -9  -5   29.70    1.18
  -1   9   5   32.13    1.10
   0  -9  -5    1.30    0.34
   0  -9  -5    1.34    0.29
  -1  -9  -5   66.63    1.75
  -1  -9  -5   64.21    1.93
   1   9   5   66.80    1.76
   1   9   5   64.78    1.57
  -2  -9  -5    7.53    0.71
  -2  -9  -5    8.73    0.62
   2   9   5    7.94    0.62
  -3  -9  -5   29.05    1.27
   3   9   5   27.74    1.12
  -4  -9  -5  123.07    3.08
   4   9   5  121.90    2.83
  -5  -9  -5   20.35    1.13
   5   9   5   20.10    1.03
  -6  -9  -5   12.75    0.95
   6   9   5   10.65    0.90
  -7  -9  -5   33.23    1.50
   7   9   5   32.88    1.44
  -8  -9  -5    0.17    0.33
   8   9   5   -0.35    0.40
  -9  -9  -5   40.94    1.74
   9   9   5   39.39    1.75
 -10  -9  -5   26.37    1.46
  10   9   5   25.93    1.54
 -11  -9  -5    2.36    0.92
   9 -10  -5   -0.06    0.30
   8 -10  -5    8.90    0.82
  -8  10   5    9.96    0.99
   7 -10  -5   21.41    1.09
  -7  10   5   21.55    1.29
   6 -10  -5   10.24    0.78
  -6  10   5   11.04    1.01
   5 -10  -5   38.99    1.38
  -5  10   5   37.85    1.55
   4 -10  -5    0.50    0.28
  -4  10   5    1.63    0.47
   3 -10  -5   40.93    1.38
  -3  10   5   42.90    1.47
   2 -10  -5   74.78    1.97
   2 -10  -5   76.70    2.16
  -2  10   5   73.32    1.98
   1 -10  -5   16.76    0.97
   1 -10  -5   17.63    0.86
  -1  10   5   18.58    0.87
   0 -10  -5   23.55    1.13
   0 -10  -5   22.59    0.98
   0  10   5   24.71    0.96
   0  10   5   25.25    1.04
  -1 -10  -5   64.79    2.01
  -1 -10  -5   65.93    1.81
   1  10   5   62.98    1.78
  -2 -10  -5    4.07    0.59
  -2 -10  -5    4.11    0.48
   2  10   5    4.26    0.51
  -3 -10  -5  111.19    2.92
   3  10   5  108.58    2.63
  -4 -10  -5   87.93    2.56
   4  10   5   87.78    2.33
  -5 -10  -5    3.74    0.62
   5  10   5    4.33    0.58
  -6 -10  -5   30.87    1.47
   6  10   5   31.28    1.41
  -7 -10  -5   21.55    1.29
   7  10   5   20.73    1.27
  -8 -10  -5    2.63    0.60
   8  10   5    2.26    0.59
  -9 -10  -5   51.28    2.03
   9  10   5   51.49    2.05
  -8  11   5   36.31    1.80
  -7  11   5   12.12    1.12
   6 -11  -5    5.25    0.61
  -6  11   5    7.13    0.83
   5 -11  -5   56.07    1.76
  -5  11   5   56.83    1.93
   4 -11  -5    1.30    0.34
  -4  11   5    0.99    0.46
   3 -11  -5   26.93    1.13
  -3  11   5   28.19    1.23
   2 -11  -5   33.52    1.26
  -2  11   5   35.42    1.33
   1 -11  -5    3.59    0.57
   1 -11  -5    3.91    0.48
  -1  11   5    4.17    0.52
   0 -11  -5   59.81    1.78
   0 -11  -5   62.26    2.03
   0  11   5   59.71    1.78
  -1 -11  -5  112.43    2.97
  -1 -11  -5  109.96    2.65
   1  11   5  108.35    2.64
  -2 -11  -5    1.96    0.51
   2  11   5    1.49    0.41
  -3 -11  -5   22.12    1.27
   3  11   5   24.61    1.16
  -4 -11  -5   25.86    1.37
   4  11   5   25.53    1.23
  -5 -11  -5    5.97    0.77
   5  11   5    4.38    0.62
  -6 -11  -5   24.19    1.38
   6  11   5   23.34    1.32
  -7 -11  -5   23.05    1.39
   7  11   5   23.92    1.37
  -8 -11  -5    6.45    0.84
   8  11   5    5.60    0.81
   9  11   5   33.72    2.23
  -7  12   5   15.91    1.24
  -6  12   5   23.17    1.34
  -5  12   5   28.10    1.42
  -4  12   5    0.16    0.40
  -3  12   5   15.30    1.01
   2 -12  -5   18.73    1.00
  -2  12   5   19.00    1.06
   1 -12  -5    0.30    0.27
   1 -12  -5    0.53    0.37
  -1  12   5    0.04    0.32
   0 -12  -5   46.33    1.56
   0 -12  -5   48.23    1.83
   0  12   5   44.41    1.56
  -1 -12  -5   17.84    0.97
  -1 -12  -5   19.80    1.21
   1  12   5   17.54    1.01
  -2 -12  -5   14.01    1.09
   2  12   5   13.36    0.94
  -3 -12  -5   32.02    1.59
   3  12   5   33.12    1.41
  -4 -12  -5    8.02    0.94
   4  12   5   10.29    0.93
  -5 -12  -5    8.46    0.96
   5  12   5    7.67    0.80
  -6 -12  -5   23.84    1.45
   6  12   5   25.39    1.39
  -7 -12  -5    2.26    0.59
   7  12   5    1.54    0.60
   8  12   5   19.07    1.49
  -6  13   5   17.47    1.26
  -5  13   5   13.62    1.08
  -4  13   5    6.27    0.74
  -3  13   5   34.50    1.52
   1 -13  -5    6.28    0.81
   0 -13  -5   51.34    1.98
  -1 -13  -5    4.31    0.73
  -2 -13  -5   24.22    1.43
  -3 -13  -5   55.26    2.17
  -4 -13  -5    0.22    0.42
  -5 -13  -5    9.53    1.03
   5  13   5    8.13    1.07
   6  13   5   18.44    1.41
   0 -14  -5   25.23    1.49
  -1 -14  -5   -0.02    0.39
  -2 -14  -5   29.95    1.65
  -3 -14  -5   38.41    2.06
   0  10  -6   13.05    1.07
  -1  10  -6   12.31    1.07
  -2  10  -6    1.06    0.52
  -3  10  -6   18.84    1.30
   2   9  -6    8.16    0.86
  -2  -9   6    7.55    0.95
   1   9  -6    2.07    0.53
  -1  -9   6    3.26    0.71
   0   9  -6   26.94    1.34
   0  -9   6   26.90    1.56
  -1   9  -6    8.05    0.83
   1  -9   6    6.20    0.86
  -2   9  -6   10.90    0.97
   2  -9   6    9.68    1.09
  -3   9  -6   42.71    1.74
   3  -9   6   43.52    1.92
  -4   9  -6    5.69    0.80
   4  -9   6    4.30    0.79
  -5   9  -6   20.92    1.28
   5  -9   6   19.52    1.37
  -6   9  -6   30.36    1.56
   6  -9   6   32.31    1.67
  -7   9  -6    3.28    0.77
   7  -9   6    2.58    0.71
  -4  -8   6    1.26    0.51
   3   8  -6   39.56    1.57
  -3  -8   6   42.44    1.83
   2   8  -6    8.45    0.83
  -2  -8   6    9.48    1.03
   1   8  -6    9.84    0.87
  -1  -8   6    9.88    1.03
   0   8  -6   30.81    1.37
   0  -8   6   31.41    1.56
  -1   8  -6    4.97    0.67
   1  -8   6    4.50    0.77
  -2   8  -6   28.21    1.34
   2  -8   6   28.30    1.50
  -3   8  -6   44.06    1.69
   3  -8   6   43.81    1.81
  -4   8  -6    3.42    0.62
   4  -8   6    2.83    0.64
  -5   8  -6   43.17    1.72
   5  -8   6   42.66    1.78
  -6   8  -6   26.37    1.37
   6  -8   6   24.96    1.39
  -7   8  -6    0.30    0.44
   7  -8   6   -0.20    0.39
  -8   8  -6   13.87    1.17
   8  -8   6   14.75    1.16
  -9   8  -6   29.02    1.75
   9  -8   6   31.48    1.59
  10  -8   6    2.74    0.65
   4   7  -6    6.56    0.76
  -4  -7   6    7.87    0.86
   3   7  -6   38.27    1.49
  -3  -7   6   39.96    1.68
   2   7  -6   10.49    0.83
  -2  -7   6   12.18    1.06
   1   7  -6   16.20    0.97
  -1  -7   6   16.09    1.14
   0   7  -6   24.20    1.16
   0  -7   6   23.61    1.31
  -1   7  -6    0.18    0.35
   1  -7   6    0.24    0.41
  -2   7  -6   48.07    1.69
   2  -7   6   49.60    1.83
  -3   7  -6   28.45    1.30
   3  -7   6   29.70    1.41
  -4   7  -6    4.62    0.63
   4  -7   6    4.70    0.67
  -5   7  -6   60.94    2.00
   5  -7   6   64.22    2.07
  -6   7  -6   24.68    1.26
   6  -7   6   21.35    1.23
  -7   7  -6    4.16    0.68
   7  -7   6    3.83    0.63
  -8   7  -6   32.72    1.53
   8  -7   6   34.65    1.57
  -9   7  -6    3.74    0.70
   9  -7   6    2.85    0.63
 -10   7  -6    5.59    0.85
  10  -7   6    4.76    0.75
  11  -7   6   24.07    1.41
   5   6  -6   13.36    0.94
   4   6  -6   19.27    1.06
  -4  -6   6   20.04    1.18
   3   6  -6   46.13    1.57
  -3  -6   6   45.69    1.76
   2   6  -6    0.51    0.35
  -2  -6   6    0.29    0.38
   1   6  -6   18.53    0.97
  -1  -6   6   19.27    1.12
   0   6  -6   20.17    1.01
   0  -6   6   22.23    1.17
  -1   6  -6    9.85    0.77
   1  -6   6   10.93    0.89
  -2   6  -6   61.00    1.84
   2  -6   6   61.53    1.93
  -3   6  -6   60.94    1.86
   3  -6   6   61.48    1.92
  -4   6  -6   14.82    0.94
   4  -6   6   15.27    0.98
  -5   6  -6   75.08    2.17
   5  -6   6   76.80    2.21
  -6   6  -6   16.57    1.02
   6  -6   6   14.18    0.98
  -7   6  -6   15.89    1.05
   7  -6   6   16.25    1.05
  -8   6  -6   40.78    1.63
   8  -6   6   39.08    1.59
  -9   6  -6    0.49    0.43
   9  -6   6    0.04    0.37
 -10   6  -6   22.04    1.34
  10  -6   6   21.14    1.25
 -11   6  -6   31.05    1.59
  11  -6   6   29.12    1.46
   6   5  -6   27.39    1.26
   5   5  -6    3.20    0.53
   4   5  -6   27.52    1.18
  -4  -5   6   27.71    1.27
   3   5  -6   21.26    1.02
  -3  -5   6   21.76    1.15
   2   5  -6    8.90    0.70
  -2  -5   6    9.26    0.81
   1   5  -6   60.37    1.73
  -1  -5   6   59.41    1.88
   0   5  -6    9.82    0.71
   0  -5   6    7.71    0.75
  -1   5  -6   21.87    1.00
   1  -5   6   22.34    1.08
  -2   5  -6   51.83    1.59
   2  -5   6   52.00    1.65
  -3   5  -6    3.16    0.48
   3  -5   6    3.36    0.48
  -4   5  -6   87.88    2.28
   4  -5   6   90.31    2.34
  -5   5  -6   92.75    2.38
   5  -5   6   91.04    2.39
  -6   5  -6    2.17    0.47
   6  -5   6    2.19    0.44
  -7   5  -6  128.84    3.11
   7  -5   6  129.26    3.11
  -8   5  -6   34.93    1.44
   8  -5   6   32.36    1.38
  -9   5  -6    1.71    0.50
   9  -5   6    1.84    0.48
 -10   5  -6   34.89    1.56
  10  -5   6   34.04    1.47
 -11   5  -6   33.44    1.58
  11  -5   6   32.50    1.49
 -12   5  -6    1.72    0.58
   7   4  -6   25.44    1.26
   6   4  -6   28.05    1.24
   5   4  -6    0.75    0.34
   4   4  -6   51.66    1.61
  -4  -4   6   50.88    1.66
   3   4  -6   18.55    0.92
  -3  -4   6   16.90    0.97
   2   4  -6   26.02    1.05
  -2  -4   6   26.04    1.14
   1   4  -6  112.32    2.56
  -1  -4   6  110.71    2.67
   0   4  -6   18.37    0.87
   0  -4   6   21.58    0.99
  -1   4  -6   24.30    0.99
   1  -4   6   24.56    1.04
  -2   4  -6   94.77    2.27
   2  -4   6   95.20    2.32
  -3   4  -6    0.57    0.30
   3  -4   6    0.15    0.25
  -4   4  -6  121.09    2.75
   4  -4   6  120.93    2.79
  -5   4  -6  142.98    3.18
   5  -4   6  147.09    3.23
  -6   4  -6    3.37    0.51
   6  -4   6    2.71    0.45
  -7   4  -6   77.15    2.11
   7  -4   6   75.80    2.11
  -8   4  -6   32.38    1.33
   8  -4   6   31.85    1.31
  -9   4  -6    1.46    0.44
   9  -4   6    1.37    0.42
 -10   4  -6   34.00    1.48
  10  -4   6   33.26    1.39
 -11   4  -6    7.03    0.81
  11  -4   6    7.63    0.81
 -12   4  -6    4.63    0.72
  12  -4   6    5.16    0.73
   9   3  -6    7.29    0.84
   8   3  -6    7.72    0.81
   8   3  -6    7.56    0.82
   7   3  -6   43.22    1.64
   7   3  -6   41.70    1.59
   6   3  -6   20.13    1.07
   6   3  -6   20.34    1.06
   5   3  -6    7.15    0.68
   5   3  -6    6.62    0.65
   4   3  -6   53.27    1.59
   4   3  -6   52.61    1.56
  -4  -3   6   50.24    1.58
   3   3  -6    8.07    0.55
   3   3  -6    8.03    0.64
  -3  -3   6    7.51    0.66
   2   3  -6   24.79    1.19
   2   3  -6   23.59    0.96
  -2  -3   6   23.28    1.00
   1   3  -6   16.41    0.78
  -1  -3   6   15.73    0.81
   0   3  -6    2.35    0.35
   0  -3   6    1.88    0.35
  -1   3  -6  152.69    3.15
   1  -3   6  151.39    3.17
  -2   3  -6   85.07    2.03
   2  -3   6   86.71    2.08
  -3   3  -6    0.31    0.24
   3  -3   6    0.32    0.24
  -4   3  -6  109.42    2.47
   4  -3   6  110.45    2.53
  -5   3  -6   56.96    1.59
   5  -3   6   57.42    1.63
  -6   3  -6    4.48    0.51
   6  -3   6    4.53    0.53
  -7   3  -6   72.22    1.94
   7  -3   6   71.32    1.97
  -8   3  -6   15.55    0.89
   8  -3   6   15.29    0.87
  -9   3  -6   39.07    1.43
   9  -3   6   36.17    1.39
 -10   3  -6   71.75    2.13
  10  -3   6   70.42    2.09
 -11   3  -6    3.28    0.58
  11  -3   6    3.66    0.58
  12  -3   6   14.26    0.99
   9   2  -6    3.47    0.61
   8   2  -6   12.90    1.01
   8   2  -6   15.84    1.06
   7   2  -6   70.36    2.10
   7   2  -6   72.02    2.15
   6   2  -6    1.22    0.34
   6   2  -6    1.20    0.39
   5   2  -6   59.00    1.72
   5   2  -6   56.62    1.69
   4   2  -6   81.04    2.05
   4   2  -6   80.68    2.03
   3   2  -6    6.88    0.50
   3   2  -6    6.14    0.55
  -3  -2   6    6.44    0.57
   2   2  -6   27.86    0.90
   2   2  -6   28.47    1.01
  -2  -2   6   29.06    1.03
   1   2  -6   22.49    0.87
   1   2  -6   22.49    0.72
  -1  -2   6   22.80    0.87
   0   2  -6   20.35    0.62
   0   2  -6   21.33    0.82
   0  -2   6   21.28    0.82
  -1   2  -6  212.66    3.72
  -1   2  -6  213.15    4.07
   1  -2   6  213.27    4.07
  -2   2  -6   23.95    0.87
   2  -2   6   24.55    0.90
  -3   2  -6   67.77    1.66
   3  -2   6   68.13    1.72
  -4   2  -6  172.84    3.39
   4  -2   6  166.32    3.44
  -5   2  -6   18.09    0.79
   5  -2   6   19.61    0.84
  -6   2  -6   20.21    0.85
   6  -2   6   20.44    0.89
  -7   2  -6  132.97    2.92
   7  -2   6  137.35    3.02
  -8   2  -6   17.48    0.86
   8  -2   6   16.19    0.87
  -9   2  -6   39.51    1.37
   9  -2   6   37.85    1.38
 -10   2  -6   22.26    1.07
  10  -2   6   20.70    1.04
  11  -2   6    1.34    0.40
  12  -2   6   22.75    1.16
   8   1  -6   40.00    1.60
   7   1  -6   49.19    1.68
   7   1  -6   48.99    1.69
   6   1  -6    6.09    0.63
   6   1  -6    7.12    0.69
   5   1  -6   89.60    2.25
   5   1  -6   88.73    2.24
   4   1  -6   20.90    0.91
   4   1  -6   19.91    0.87
   3   1  -6    0.14    0.21
   3   1  -6    0.26    0.19
  -3  -1   6    0.24    0.22
   2   1  -6   54.35    1.44
   2   1  -6   52.01    1.35
  -2  -1   6   53.43    1.38
   1   1  -6   54.36    1.42
   1   1  -6   53.94    1.28
  -1  -1   6   54.82    1.36
   0   1  -6   16.93    0.56
   0   1  -6   16.71    0.69
   0  -1   6   16.67    0.67
  -1   1  -6  153.76    2.79
  -1   1  -6  153.70    3.04
   1  -1   6  156.73    3.05
  -2   1  -6   14.06    0.42
  -2   1  -6   14.61    0.63
   2  -1   6   15.21    0.65
  -3   1  -6  133.57    2.61
  -3   1  -6  127.58    2.26
   3  -1   6  119.11    2.24
   3  -1   6  129.89    2.66
  -4   1  -6   54.34    1.34
   4  -1   6   51.21    1.40
   4  -1   6   49.46    1.04
  -5   1  -6    0.56    0.20
   5  -1   6    0.37    0.14
   5  -1   6    0.62    0.24
  -6   1  -6   69.92    1.75
  -6   1  -6   72.37    1.71
   6  -1   6   67.45    1.48
  -7   1  -6  156.55    3.17
  -7   1  -6  158.22    3.25
   7  -1   6  151.23    2.98
  -8   1  -6    1.40    0.33
  -8   1  -6    1.65    0.32
   8  -1   6    1.78    0.30
  -9   1  -6  105.00    2.52
  -9   1  -6  103.21    2.45
   9  -1   6  105.33    2.76
 -10   1  -6   10.02    0.77
 -10   1  -6   10.89    0.80
 -11   1  -6    8.12    0.76
 -12   1  -6   32.45    1.36
  10   0  -6   21.71    1.68
   9   0  -6    4.06    0.62
   8   0  -6   46.58    1.71
   7   0  -6   14.67    0.92
   6   0  -6   14.24    0.86
   6   0  -6   15.06    0.90
   5   0  -6  104.84    2.48
   5   0  -6   99.07    2.44
   4   0  -6    5.35    0.48
   4   0  -6    5.12    0.50
   3   0  -6    6.64    0.49
   3   0  -6    8.07    0.55
  -3   0   6    6.69    0.45
   2   0  -6  132.84    2.75
   2   0  -6  131.05    2.67
  -2   0   6  133.73    2.59
   1   0  -6    2.95    0.30
   1   0  -6    2.91    0.34
  -1   0   6    2.97    0.29
   0   0  -6   87.99    1.91
   0   0  -6   86.91    1.77
   0   0   6   87.82    1.84
  -1   0  -6  151.72    2.91
  -1   0  -6  148.57    2.75
   1   0   6  150.86    2.90
  -2   0  -6   26.86    0.68
  -2   0  -6   27.29    0.83
   2   0   6   26.48    0.84
  -3   0  -6  283.96    5.05
  -3   0  -6  289.75    4.86
   3   0   6  276.11    4.85
  -4   0  -6  116.58    2.32
  -4   0  -6  116.21    2.40
   4   0   6  112.38    2.14
  -5   0  -6    0.68    0.19
  -5   0  -6    0.47    0.21
   5   0   6    0.70    0.16
  -6   0  -6  134.91    2.82
  -6   0  -6  133.84    2.68
   6   0   6  133.69    2.59
  -7   0  -6   52.69    1.35
  -7   0  -6   51.96    1.47
   7   0   6   54.03    1.35
  -8   0  -6    1.03    0.24
  -8   0  -6    0.27    0.25
   8   0   6    0.84    0.27
  -9   0  -6  112.73    2.65
  -9   0  -6  111.55    2.53
   9   0   6  117.25    2.57
 -10   0  -6   10.51    0.77
  10   0   6    9.79    0.77
  11   0   6    8.05    0.77
 -12   0  -6   35.10    1.41
  12   0   6   36.58    1.47
 -13   0  -6    2.88    0.53
  10  -1  -6   12.44    1.03
   9  -1  -6   13.04    1.00
   8  -1  -6   45.26    1.65
   7  -1  -6   65.17    1.96
   6  -1  -6   25.05    1.09
   5  -1  -6   81.14    2.09
   5  -1  -6   83.25    2.10
   4  -1  -6    8.50    0.58
   4  -1  -6    9.24    0.63
   3  -1  -6   32.35    1.06
   3  -1  -6   33.20    1.05
  -3   1   6   31.98    0.86
   2  -1  -6   88.13    1.97
   2  -1  -6   86.57    1.91
  -2   1   6   85.86    1.72
   1  -1  -6    0.33    0.16
   1  -1  -6    0.10    0.15
  -1   1   6    0.18    0.12
   0  -1  -6  235.06    4.27
   0  -1  -6  232.29    4.19
   0   1   6  234.72    4.16
  -1  -1  -6  132.79    2.59
  -1  -1  -6  131.88    2.51
   1   1   6  136.68    2.58
  -2  -1  -6   34.50    0.85
  -2  -1  -6   34.61    0.91
  -2  -1  -6   34.79    0.94
  -3  -1  -6  225.11    4.17
  -3  -1  -6  230.42    4.02
  -3  -1  -6  228.97    4.08
   3   1   6  226.71    4.02
  -4  -1  -6   41.28    1.03
  -4  -1  -6   45.04    1.19
   4   1   6   43.53    1.03
  -5  -1  -6    1.53    0.21
  -5  -1  -6    1.41    0.27
   5   1   6    1.69    0.22
  -6  -1  -6  168.12    3.13
  -6  -1  -6  164.80    3.36
   6   1   6  168.45    3.19
  -7  -1  -6    8.22    0.44
  -7  -1  -6    8.66    0.58
   7   1   6    8.59    0.55
  -8  -1  -6   44.58    1.19
  -8  -1  -6   45.59    1.42
   8   1   6   45.67    1.33
  -9  -1  -6   42.71    1.43
   9   1   6   43.64    1.39
 -10  -1  -6    1.96    0.40
  10   1   6    1.47    0.41
 -11  -1  -6   16.55    1.03
  11   1   6   20.64    1.10
 -12  -1  -6   31.24    1.33
  12   1   6   26.91    1.32
 -13  -1  -6    1.08    0.39
  13   1   6    1.35    0.48
  14   1   6   21.73    1.35
  10  -2  -6    5.59    0.74
   9  -2  -6   20.44    1.20
   8  -2  -6   45.84    1.67
   7  -2  -6   -0.01    0.26
   6  -2  -6   67.21    1.91
   5  -2  -6   74.90    1.95
   4  -2  -6    9.05    0.58
   4  -2  -6    9.61    0.63
   3  -2  -6  152.90    3.13
   3  -2  -6  152.61    3.10
   2  -2  -6   19.34    0.75
   2  -2  -6   17.99    0.70
  -2   2   6   19.31    0.51
   1  -2  -6   30.62    0.93
   1  -2  -6   31.53    0.91
  -1   2   6   31.79    0.76
   0  -2  -6  339.85    5.94
   0  -2  -6  340.71    5.96
  -1  -2  -6   39.12    0.99
  -1  -2  -6   38.12    0.98
  -1  -2  -6   39.40    0.96
  -2  -2  -6   80.95    1.66
  -2  -2  -6   78.70    1.63
  -2  -2  -6   79.77    1.69
  -3  -2  -6  372.55    6.27
  -3  -2  -6  369.13    6.36
  -3  -2  -6  354.77    6.18
   3   2   6  352.86    6.25
  -4  -2  -6  190.94    3.59
  -4  -2  -6  184.09    3.35
  -4  -2  -6  191.76    3.46
   4   2   6  185.07    3.45
  -5  -2  -6   67.94    1.40
  -5  -2  -6   69.33    1.67
   5   2   6   68.44    1.54
  -6  -2  -6   59.61    1.30
  -6  -2  -6   62.20    1.61
   6   2   6   63.08    1.50
  -7  -2  -6    1.25    0.28
  -7  -2  -6    1.10    0.18
   7   2   6    1.16    0.27
  -8  -2  -6  108.41    2.55
   8   2   6  111.69    2.48
  -9  -2  -6  140.57    3.15
   9   2   6  143.82    3.13
 -10  -2  -6    8.30    0.70
  10   2   6    6.59    0.66
 -11  -2  -6   23.03    1.18
  11   2   6   24.56    1.23
 -12  -2  -6   17.91    1.04
  12   2   6   12.91    1.11
 -13  -2  -6    5.48    0.68
  13   2   6    4.96    0.69
  14   2   6   25.41    1.50
  10  -3  -6    0.54    0.37
   9  -3  -6   21.17    1.18
   8  -3  -6   77.46    2.25
   7  -3  -6    1.03    0.36
   6  -3  -6   82.21    2.16
   5  -3  -6   68.47    1.85
   4  -3  -6    7.19    0.54
   3  -3  -6  127.49    2.73
   3  -3  -6  128.98    2.71
   2  -3  -6  159.51    3.13
   2  -3  -6  156.22    3.14
   1  -3  -6    3.81    0.36
   1  -3  -6    3.57    0.22
   1  -3  -6    4.27    0.35
   0  -3  -6  143.10    2.59
   0  -3  -6  140.47    2.75
   0  -3  -6  139.78    2.72
  -1  -3  -6    5.02    0.31
  -1  -3  -6    5.03    0.32
  -1  -3  -6    4.17    0.33
  -2  -3  -6  149.20    2.84
  -2  -3  -6  150.65    2.84
  -2  -3  -6  145.71    2.72
  -3  -3  -6  126.93    2.33
  -3  -3  -6  128.44    2.50
  -3  -3  -6  125.13    2.53
   3   3   6  126.22    2.50
  -4  -3  -6   32.73    0.93
  -4  -3  -6   32.12    0.75
  -4  -3  -6   33.07    1.00
   4   3   6   32.37    0.93
  -5  -3  -6  103.95    1.95
  -5  -3  -6  108.77    2.35
   5   3   6  107.60    2.23
  -6  -3  -6   96.61    2.10
  -6  -3  -6   99.40    2.26
   6   3   6   97.38    2.15
  -7  -3  -6    6.18    0.53
   7   3   6    6.87    0.54
  -8  -3  -6    4.39    0.49
   8   3   6    4.94    0.50
  -9  -3  -6    1.36    0.36
   9   3   6    0.76    0.38
 -10  -3  -6   23.00    1.10
  10   3   6   24.45    1.17
 -11  -3  -6  111.28    2.84
  11   3   6  114.57    2.92
 -12  -3  -6   14.05    0.96
  12   3   6   14.36    1.10
 -13  -3  -6   11.61    0.92
  13   3   6   12.14    1.09
  10  -4  -6    0.37    0.37
   9  -4  -6   34.76    1.49
   8  -4  -6   26.46    1.25
   7  -4  -6    0.36    0.29
   6  -4  -6   35.67    1.30
   5  -4  -6   23.40    0.98
   4  -4  -6   32.21    1.10
   3  -4  -6   74.37    1.81
   2  -4  -6    5.50    0.43
   1  -4  -6   55.79    1.15
   1  -4  -6   56.57    1.40
   1  -4  -6   57.79    1.41
   0  -4  -6  209.85    3.73
   0  -4  -6  210.03    3.92
   0  -4  -6  212.61    3.88
  -1  -4  -6   27.60    0.77
  -1  -4  -6   25.06    0.81
  -1  -4  -6   27.29    0.76
  -2  -4  -6  163.11    2.98
  -2  -4  -6  163.69    3.16
  -2  -4  -6  168.29    3.14
  -3  -4  -6  247.70    4.57
  -3  -4  -6  258.78    4.31
  -3  -4  -6  257.07    4.63
   3   4   6  241.01    4.57
  -4  -4  -6   36.43    0.77
  -4  -4  -6   35.77    1.09
  -4  -4  -6   36.70    1.04
   4   4   6   36.03    1.04
  -5  -4  -6  167.83    3.39
   5   4   6  166.31    3.28
  -6  -4  -6   55.28    1.55
   6   4   6   56.06    1.49
  -7  -4  -6   18.63    0.87
   7   4   6   18.13    0.85
  -8  -4  -6  142.01    3.18
   8   4   6  141.87    3.11
  -9  -4  -6    3.21    0.48
   9   4   6    2.76    0.50
 -10  -4  -6   27.76    1.22
  10   4   6   28.29    1.29
 -11  -4  -6   52.06    1.80
  11   4   6   56.27    1.94
 -12  -4  -6    0.05    0.30
  12   4   6    0.32    0.46
 -13  -4  -6   19.01    1.16
  13   4   6   19.24    1.37
  10  -5  -6    1.25    0.47
   9  -5  -6   26.33    1.30
   8  -5  -6    2.17    0.47
   7  -5  -6   52.98    1.71
   6  -5  -6  115.51    2.77
   5  -5  -6    0.25    0.24
   4  -5  -6   28.60    1.05
   3  -5  -6   73.98    1.82
   2  -5  -6    0.77    0.21
   1  -5  -6  161.50    3.15
   1  -5  -6  154.62    2.85
   0  -5  -6  129.45    2.65
   0  -5  -6  131.39    2.50
  -1  -5  -6   40.00    1.06
  -1  -5  -6   40.30    1.12
  -2  -5  -6  180.43    3.46
  -2  -5  -6  179.17    3.47
  -3  -5  -6   76.30    1.82
  -3  -5  -6   75.12    1.76
   3   5   6   76.54    1.76
  -4  -5  -6   18.63    0.74
  -4  -5  -6   19.39    0.80
   4   5   6   18.10    0.74
  -5  -5  -6  176.92    3.65
   5   5   6  179.16    3.53
  -6  -5  -6   28.11    1.07
   6   5   6   27.82    1.02
  -7  -5  -6   46.50    1.49
   7   5   6   47.05    1.45
  -8  -5  -6   66.35    1.93
   8   5   6   64.76    1.87
  -9  -5  -6    7.20    0.69
   9   5   6    6.23    0.66
 -10  -5  -6   48.01    1.68
  10   5   6   45.93    1.69
 -11  -5  -6   40.15    1.58
  11   5   6   42.02    1.70
 -12  -5  -6    0.89    0.40
  12   5   6    2.57    0.62
 -13  -5  -6   16.19    1.14
  13   5   6   18.64    1.56
  10  -6  -6    7.41    0.81
   9  -6  -6   45.40    1.73
   8  -6  -6    3.75    0.58
   7  -6  -6   27.79    1.21
   6  -6  -6   58.45    1.76
   4  -6  -6   75.40    1.94
   3  -6  -6   52.57    1.47
   2  -6  -6   21.49    0.85
   1  -6  -6  218.19    3.91
   1  -6  -6  213.66    4.12
   0  -6  -6  125.30    2.48
   0  -6  -6  118.93    2.55
  -1  -6  -6   13.15    0.63
  -1  -6  -6   14.22    0.63
  -2  -6  -6  194.60    3.84
  -2  -6  -6  205.42    3.92
   3   6   6    6.45    0.48
  -4  -6  -6   50.08    1.39
  -4  -6  -6   52.92    1.53
   4   6   6   51.60    1.42
  -5  -6  -6   70.95    1.96
   5   6   6   77.03    1.88
  -6  -6  -6    9.35    0.69
   6   6   6    9.87    0.67
  -7  -6  -6   56.83    1.78
   7   6   6   59.62    1.72
  -8  -6  -6   50.17    1.70
   8   6   6   51.07    1.69
  -9  -6  -6   10.57    0.82
   9   6   6    8.75    0.79
 -10  -6  -6   44.02    1.66
  10   6   6   42.66    1.71
 -11  -6  -6   19.31    1.14
  11   6   6   19.61    1.32
 -12  -6  -6    1.82    0.47
  12   6   6    3.07    0.65
 -13  -6  -6   25.97    1.41
  10  -7  -6   18.04    1.15
   9  -7  -6   21.70    1.19
   8  -7  -6    3.86    0.57
   7  -7  -6   75.40    2.16
   6  -7  -6   29.54    1.20
   5  -7  -6    3.21    0.45
   4  -7  -6   76.37    1.98
   3  -7  -6   22.57    0.94
   2  -7  -6   57.31    1.55
   1  -7  -6  132.95    2.78
   1  -7  -6  127.69    2.65
   0  -7  -6   17.71    0.75
   0  -7  -6   16.51    0.74
  -1  -7  -6   38.91    1.22
  -1  -7  -6   38.62    1.18
  -2  -7  -6  202.10    4.00
  -2  -7  -6  190.14    3.84
   2   7   6  197.79    3.87
  -3  -7  -6   20.49    0.92
  -3  -7  -6   18.13    0.80
   3   7   6   18.60    0.82
  -4  -7  -6   44.33    1.47
   4   7   6   46.63    1.38
  -5  -7  -6   59.21    1.80
   5   7   6   61.26    1.69
  -6  -7  -6    2.96    0.46
   6   7   6    2.82    0.44
  -7  -7  -6   27.80    1.25
   7   7   6   26.54    1.17
  -8  -7  -6   23.58    1.20
   8   7   6   25.53    1.23
  -9  -7  -6   19.82    1.12
   9   7   6   17.80    1.14
 -10  -7  -6   56.59    1.98
  10   7   6   56.27    2.03
 -11  -7  -6    3.40    0.60
  11   7   6    2.80    0.64
 -12  -7  -6   12.49    1.01
  12   7   6    9.17    1.46
  10  -8  -6   18.26    1.51
   9  -8  -6   15.93    1.07
   8  -8  -6    8.69    0.81
   7  -8  -6   56.53    1.82
   6  -8  -6   11.17    0.80
   4  -8  -6  103.80    2.49
   3  -8  -6    0.40    0.25
   2  -8  -6   29.41    1.07
   1  -8  -6   27.94    1.02
   1  -8  -6   27.20    1.00
   0  -8  -6   24.27    0.97
   0  -8  -6   23.48    0.93
  -1  -8  -6   66.05    1.83
  -1  -8  -6   68.68    1.75
   1   8   6   67.13    1.54
  -2  -8  -6  102.21    2.49
  -2  -8  -6   97.49    2.31
   2   8   6  101.34    2.34
  -3  -8  -6    8.66    0.68
   3   8   6    7.49    0.59
  -4  -8  -6   59.98    1.87
   4   8   6   63.98    1.75
  -5  -8  -6   13.33    0.90
   5   8   6   12.48    0.80
  -6  -8  -6   20.95    1.12
   6   8   6   21.92    1.06
  -7  -8  -6   46.81    1.72
   7   8   6   46.55    1.63
  -8  -8  -6    0.72    0.38
   8   8   6   -0.14    0.40
  -9  -8  -6   28.49    1.41
   9   8   6   29.68    1.45
 -10  -8  -6   58.58    2.08
  10   8   6   55.44    2.07
 -11  -8  -6    2.24    0.55
  11   8   6    0.80    0.60
   9  -9  -6    1.39    0.43
   8  -9  -6   23.52    1.22
   7  -9  -6   20.46    1.09
   6  -9  -6    2.29    0.43
   5  -9  -6   75.83    2.09
   4  -9  -6   82.96    2.17
   3  -9  -6    3.82    0.47
   2  -9  -6  130.34    2.90
   1  -9  -6   48.05    1.46
   1  -9  -6   46.97    1.49
  -1   9   6   50.06    1.42
   0  -9  -6   10.41    0.72
   0  -9  -6   10.44    0.68
   0   9   6    9.91    0.63
  -1  -9  -6   78.83    2.17
  -1  -9  -6   81.14    2.03
   1   9   6   80.20    2.07
  -2  -9  -6   94.55    2.31
  -2  -9  -6   93.78    2.48
   2   9   6   97.15    2.33
  -3  -9  -6   16.92    0.87
  -3  -9  -6   16.61    0.97
   3   9   6   17.50    0.91
  -4  -9  -6   87.60    2.49
   4   9   6   95.09    2.35
  -5  -9  -6    1.96    0.49
   5   9   6    1.27    0.41
  -6  -9  -6   34.90    1.50
   6   9   6   33.76    1.39
  -7  -9  -6   41.04    1.66
   7   9   6   39.47    1.58
  -8  -9  -6    0.97    0.41
   8   9   6    0.32    0.46
  -9  -9  -6   25.73    1.40
   9   9   6   25.69    1.44
 -10  -9  -6   35.39    1.66
  10   9   6   32.67    1.67
 -11  -9  -6    0.33    0.45
   9 -10  -6    0.18    0.34
   8 -10  -6   20.00    1.15
  -8  10   6   21.99    1.39
   7 -10  -6   10.87    0.88
  -7  10   6   11.59    1.04
   6 -10  -6    0.03    0.28
  -6  10   6    0.09    0.42
   5 -10  -6   78.60    2.19
  -5  10   6   82.12    2.33
   4 -10  -6   37.92    1.40
  -4  10   6   43.19    1.53
   3 -10  -6    2.94    0.43
  -3  10   6    4.95    0.60
   2 -10  -6   67.49    1.89
  -2  10   6   68.39    1.88
   1 -10  -6    1.49    0.40
   1 -10  -6    1.06    0.30
  -1  10   6    1.70    0.36
   0 -10  -6   34.08    1.23
   0 -10  -6   33.83    1.35
   0  10   6   31.81    1.14
  -1 -10  -6   99.50    2.45
  -1 -10  -6  100.11    2.65
   1  10   6  101.90    2.47
  -2 -10  -6   16.29    0.90
  -2 -10  -6   18.94    1.07
   2  10   6   17.27    0.95
  -3 -10  -6   27.96    1.12
  -3 -10  -6   25.11    1.25
   3  10   6   24.11    1.11
  -4 -10  -6   64.35    2.13
   4  10   6   66.04    1.95
  -5 -10  -6    0.36    0.34
   5  10   6   -0.18    0.33
  -6 -10  -6   35.17    1.59
   6  10   6   37.07    1.51
  -7 -10  -6    7.06    0.84
   7  10   6    9.60    0.89
  -8 -10  -6    0.17    0.37
   8  10   6   -0.88    0.41
  -9 -10  -6   34.57    1.69
   9  10   6   34.53    1.70
 -10 -10  -6   14.09    1.61
   8 -11  -6    6.46    0.73
   7 -11  -6   21.65    1.18
  -7  11   6   22.93    1.39
   6 -11  -6   14.57    0.96
  -6  11   6   14.89    1.15
   5 -11  -6   48.86    1.66
  -5  11   6   48.27    1.79
   4 -11  -6   13.21    0.84
  -4  11   6   14.85    1.01
   3 -11  -6   44.25    1.51
  -3  11   6   46.25    1.59
   2 -11  -6   97.78    2.48
  -2  11   6   99.05    2.46
   1 -11  -6   11.65    1.02
   1 -11  -6   12.39    0.82
  -1  11   6   12.50    0.81
   0 -11  -6   28.37    1.17
   0 -11  -6   25.66    1.25
   0  11   6   25.33    1.15
  -1 -11  -6   44.28    1.53
  -1 -11  -6   42.51    1.67
   1  11   6   47.18    1.57
  -2 -11  -6    1.11    0.44
  -2 -11  -6    0.74    0.34
   2  11   6    0.20    0.34
  -3 -11  -6   53.46    1.95
   3  11   6   52.90    1.75
  -4 -11  -6   38.19    1.67
   4  11   6   41.26    1.54
  -5 -11  -6    0.49    0.38
   5  11   6    0.69    0.40
  -6 -11  -6   19.78    1.27
   6  11   6   21.63    1.23
  -7 -11  -6    2.25    0.54
   7  11   6    2.00    0.59
  -8 -11  -6   14.66    1.17
   8  11   6   13.72    1.22
   9  11   6   32.71    1.85
  -7  12   6    5.65    1.20
  -6  12   6   16.29    1.24
   5 -12  -6   34.34    1.40
  -5  12   6   35.45    1.56
   4 -12  -6    3.22    0.50
  -4  12   6    4.21    0.64
   3 -12  -6   38.30    1.45
  -3  12   6   39.11    1.50
   2 -12  -6   45.15    1.55
  -2  12   6   41.49    1.63
   1 -12  -6    0.63    0.32
   0 -12  -6   70.62    2.25
   0 -12  -6   69.46    2.04
   0  12   6   70.44    2.05
  -1 -12  -6   41.46    1.71
  -1 -12  -6   39.37    1.49
   1  12   6   41.08    1.52
  -2 -12  -6   -0.42    0.26
  -2 -12  -6   -0.31    0.31
   2  12   6   -0.68    0.30
  -3 -12  -6   29.07    1.50
   3  12   6   28.62    1.33
  -4 -12  -6    9.46    1.00
   4  12   6   11.12    0.96
  -5 -12  -6   15.68    1.19
   5  12   6   17.45    1.17
  -6 -12  -6   26.83    1.51
   6  12   6   27.00    1.46
  -7 -12  -6    1.88    0.56
   7  12   6    1.87    0.61
   8  12   6   23.21    1.57
  -6  13   6   15.05    1.34
  -5  13   6   12.66    1.12
  -4  13   6    0.96    0.50
  -3  13   6   29.19    2.06
   1 -13  -6    5.76    0.66
   0 -13  -6   50.71    1.75
   0 -13  -6   53.62    2.00
   0  13   6   50.46    1.90
  -1 -13  -6   11.18    0.88
  -1 -13  -6   10.87    1.02
   1  13   6   10.14    0.90
  -2 -13  -6   14.18    1.17
   2  13   6   12.01    1.01
  -3 -13  -6   26.48    1.50
   3  13   6   29.31    1.41
  -4 -13  -6    7.18    0.91
   4  13   6   11.07    1.03
  -5 -13  -6    5.79    0.82
   5  13   6    6.78    0.80
   6  13   6   10.51    1.03
   7  13   6    1.43    0.83
   0 -14  -6   33.57    1.78
  -1 -14  -6    2.08    0.59
  -2 -14  -6   28.99    1.61
  -3 -14  -6   37.62    1.85
   1   9  -7    1.16    0.61
   0   9  -7   19.41    1.23
  -1   9  -7    9.67    0.98
  -2   9  -7    6.06    0.82
   2  -9   7    7.64    1.32
  -3   9  -7   24.44    1.40
   3  -9   7   26.45    2.22
  -4   9  -7    8.31    0.96
   4  -9   7    8.96    1.67
   3   8  -7   13.45    1.04
  -3  -8   7   14.82    1.20
   2   8  -7   10.64    0.97
  -2  -8   7   11.62    1.17
   1   8  -7   10.94    0.93
  -1  -8   7   10.24    1.04
   0   8  -7   50.99    1.85
   0  -8   7   48.93    2.02
  -1   8  -7   15.52    1.07
   1  -8   7   16.90    1.30
  -2   8  -7   11.93    1.00
   2  -8   7   13.77    1.20
  -3   8  -7   33.38    1.53
   3  -8   7   30.50    1.61
  -4   8  -7    2.44    0.60
   4  -8   7    2.82    0.67
  -5   8  -7   22.91    1.33
   5  -8   7   24.05    1.43
  -6   8  -7   28.88    1.49
   6  -8   7   28.72    1.54
  -7   8  -7    0.33    0.50
   7  -8   7    0.35    0.48
   8  -8   7   30.50    1.66
   4   7  -7    3.01    0.59
   3   7  -7   40.11    1.59
  -3  -7   7   44.34    1.83
   2   7  -7    7.92    0.81
  -2  -7   7    8.36    0.94
   1   7  -7    8.35    0.82
  -1  -7   7    7.78    0.89
   0   7  -7   34.53    1.44
   0  -7   7   35.26    1.64
  -1   7  -7   -0.22    0.35
   1  -7   7   -0.01    0.41
  -2   7  -7   25.28    1.27
   2  -7   7   24.84    1.37
  -3   7  -7   31.30    1.42
   3  -7   7   30.74    1.50
  -4   7  -7    1.45    0.47
  -5   7  -7   27.03    1.35
   5  -7   7   27.36    1.41
  -6   7  -7   17.82    1.15
   6  -7   7   16.94    1.18
  -7   7  -7    1.59    0.52
   7  -7   7    1.75    0.53
  -8   7  -7   24.50    1.40
   8  -7   7   27.12    1.45
  -9   7  -7    5.72    0.82
   9  -7   7    7.14    0.90
  10  -7   7   10.11    1.03
   5   6  -7    2.97    0.60
   4   6  -7   14.37    0.98
   3   6  -7   35.40    1.44
  -3  -6   7   34.46    1.58
   2   6  -7    1.20    0.44
  -2  -6   7    2.36    0.56
   1   6  -7   44.94    1.59
  -1  -6   7   45.47    1.76
   0   6  -7   56.39    1.81
   0  -6   7   55.33    1.95
  -1   6  -7    0.33    0.34
   1  -6   7    0.62    0.42
  -2   6  -7   46.54    1.63
   2  -6   7   46.88    1.73
  -3   6  -7   12.71    0.92
   3  -6   7   13.36    1.01
  -4   6  -7    4.16    0.62
   4  -6   7    4.28    0.63
  -5   6  -7   67.14    2.10
   5  -6   7   69.16    2.15
  -6   6  -7   45.93    1.70
   6  -6   7   42.90    1.68
  -7   6  -7   13.93    1.02
   7  -6   7   13.27    1.02
  -8   6  -7   20.30    1.23
   8  -6   7   20.42    1.23
  -9   6  -7    2.92    0.63
   9  -6   7    2.84    0.61
 -10   6  -7   12.51    1.12
  10  -6   7   12.60    1.08
 -11   6  -7   23.05    1.43
  11  -6   7   20.46    1.31
   6   5  -7   14.39    1.03
   5   5  -7    0.78    0.41
   4   5  -7   25.10    1.21
   3   5  -7   19.80    1.06
  -3  -5   7   22.65    1.21
   2   5  -7    0.96    0.39
  -2  -5   7    0.58    0.41
   1   5  -7   40.87    1.45
  -1  -5   7   41.29    1.59
   0   5  -7   16.86    0.94
   0  -5   7   18.54    1.07
  -1   5  -7    2.35    0.47
   1  -5   7    2.71    0.50
  -2   5  -7   53.58    1.69
   2  -5   7   52.52    1.73
  -3   5  -7   14.76    0.91
   3  -5   7   15.14    0.95
  -4   5  -7    1.59    0.44
   4  -5   7    1.66    0.44
  -5   5  -7   34.05    1.38
   5  -5   7   37.23    1.44
  -6   5  -7    7.73    0.77
   6  -5   7   10.04    0.85
  -7   5  -7   34.63    1.44
   7  -5   7   35.28    1.46
  -8   5  -7   80.14    2.36
   8  -5   7   79.16    2.36
  -9   5  -7   -0.03    0.34
   9  -5   7   -0.73    0.31
 -10   5  -7   29.98    1.48
  10  -5   7   29.23    1.44
 -11   5  -7   26.82    1.45
  11  -5   7   25.23    1.40
 -12   5  -7    0.68    0.50
  12  -5   7    0.25    0.43
   7   4  -7   25.37    1.34
   6   4  -7    9.87    0.88
   5   4  -7    9.04    0.81
   4   4  -7   77.80    2.17
   3   4  -7   17.66    0.97
  -3  -4   7   17.11    1.00
   2   4  -7   16.66    0.92
  -2  -4   7   16.81    0.99
   1   4  -7   58.96    1.73
  -1  -4   7   59.17    1.82
   0   4  -7    1.86    0.42
   0  -4   7    1.31    0.40
  -1   4  -7   53.21    1.61
   1  -4   7   54.04    1.67
  -2   4  -7   88.18    2.24
   2  -4   7   87.92    2.27
  -3   4  -7    6.83    0.65
   3  -4   7    6.86    0.67
  -4   4  -7   45.93    1.52
   4  -4   7   47.66    1.56
  -5   4  -7   66.94    1.91
   5  -4   7   66.65    1.95
  -6   4  -7    0.05    0.28
   6  -4   7   -0.42    0.27
  -7   4  -7   32.28    1.34
   7  -4   7   33.20    1.36
  -8   4  -7   16.08    1.00
   8  -4   7   14.85    0.99
  -9   4  -7    0.37    0.35
   9  -4   7   -0.16    0.33
 -10   4  -7   60.79    2.02
  10  -4   7   57.97    1.98
 -11   4  -7   33.16    1.55
  11  -4   7   32.28    1.49
 -12   4  -7    5.20    0.77
  12  -4   7    5.05    0.73
   8   3  -7    4.72    0.74
   7   3  -7   48.23    1.79
   6   3  -7   20.81    1.14
   5   3  -7    6.12    0.68
   4   3  -7   75.03    2.08
   3   3  -7    2.27    0.42
  -3  -3   7    1.19    0.36
   2   3  -7   53.86    1.60
  -2  -3   7   52.84    1.64
   1   3  -7   91.84    2.22
  -1  -3   7   86.58    2.23
   0   3  -7   12.28    0.72
   0  -3   7   11.27    0.74
  -1   3  -7   55.19    1.57
   1  -3   7   54.83    1.59
  -2   3  -7   78.95    2.01
   2  -3   7   81.80    2.06
  -3   3  -7    3.01    0.44
   3  -3   7    3.30    0.46
  -4   3  -7  158.84    3.39
   4  -3   7  162.02    3.46
  -5   3  -7   14.37    0.82
   5  -3   7   13.42    0.83
  -6   3  -7    4.14    0.51
   6  -3   7    4.25    0.53
  -7   3  -7   59.23    1.80
   7  -3   7   66.48    1.91
  -8   3  -7    7.41    0.70
   8  -3   7    6.45    0.70
  -9   3  -7    9.78    0.82
   9  -3   7    8.12    0.78
 -10   3  -7   56.66    1.88
  10  -3   7   57.84    1.90
 -11   3  -7    4.07    0.63
  11  -3   7    3.98    0.63
  12  -3   7   11.35    0.96
  13  -3   7   21.89    1.81
   8   2  -7   13.96    1.08
   8   2  -7   14.06    1.08
   7   2  -7   46.30    1.73
   7   2  -7   48.60    1.76
   6   2  -7    5.91    0.68
   6   2  -7    5.19    0.64
   5   2  -7   37.91    1.39
   5   2  -7   34.38    1.32
   4   2  -7   75.04    2.00
   4   2  -7   76.09    2.05
   3   2  -7    0.13    0.20
   3   2  -7   -0.29    0.24
  -3  -2   7    0.05    0.27
   2   2  -7   53.85    1.57
   2   2  -7   53.60    1.42
  -2  -2   7   53.90    1.56
   1   2  -7   35.51    1.18
  -1  -2   7   34.42    1.16
   0   2  -7    1.17    0.29
   0  -2   7    0.43    0.25
  -1   2  -7   49.77    1.42
   1  -2   7   49.91    1.42
  -2   2  -7   53.08    1.48
   2  -2   7   54.52    1.51
  -3   2  -7   17.60    0.80
   3  -2   7   18.86    0.85
  -4   2  -7  108.33    2.44
   4  -2   7  109.18    2.52
  -5   2  -7   11.53    0.68
   5  -2   7   12.44    0.74
  -6   2  -7    3.47    0.43
   6  -2   7    3.45    0.45
  -7   2  -7   28.48    1.09
   7  -2   7   27.98    1.15
  -8   2  -7    1.93    0.39
   8  -2   7    1.35    0.38
  -9   2  -7   33.45    1.28
   9  -2   7   33.76    1.36
 -10   2  -7   76.00    2.14
  10  -2   7   73.75    2.18
  11  -2   7   -0.51    0.25
  12  -2   7    9.99    0.91
  13  -2   7   12.46    0.98
   9   1  -7    0.88    0.46
   8   1  -7   18.57    1.15
   7   1  -7   51.62    1.82
   7   1  -7   51.18    1.79
   6   1  -7    0.09    0.28
   6   1  -7   -0.64    0.27
   5   1  -7   56.36    1.74
   5   1  -7   57.67    1.75
   4   1  -7   78.80    2.04
   4   1  -7   78.54    2.07
   3   1  -7    7.41    0.55
   3   1  -7    8.65    0.66
   2   1  -7  100.19    2.22
   2   1  -7  103.52    2.35
  -2  -1   7   99.10    2.25
   1   1  -7   44.63    1.19
   1   1  -7   47.19    1.35
  -1  -1   7   46.15    1.28
   0   1  -7    7.60    0.54
   0   1  -7    6.87    0.39
   0  -1   7    6.54    0.49
  -1   1  -7   89.58    2.05
  -1   1  -7   88.71    1.79
   1  -1   7   91.46    2.05
  -2   1  -7   24.64    0.89
  -2   1  -7   24.58    0.70
   2  -1   7   25.21    0.92
  -3   1  -7   96.40    2.13
   3  -1   7   92.20    1.85
   3  -1   7   94.45    2.18
  -4   1  -7   82.23    1.90
   4  -1   7   78.54    1.96
  -5   1  -7    3.60    0.39
   5  -1   7    3.35    0.42
  -6   1  -7   27.38    0.98
   6  -1   7   27.70    1.06
  -7   1  -7   39.88    1.24
  -8   1  -7    0.78    0.28
  -8   1  -7    0.66    0.30
  -9   1  -7   60.78    1.79
  -9   1  -7   59.26    1.70
 -10   1  -7   18.52    1.00
 -11   1  -7    1.63    0.44
 -12   1  -7   33.34    1.43
 -13   1  -7   11.40    0.97
   9   0  -7   -0.40    0.33
   8   0  -7   24.84    1.29
   7   0  -7   16.67    1.02
   7   0  -7   15.94    1.03
   6   0  -7    0.15    0.35
   6   0  -7   -0.26    0.23
   5   0  -7   57.85    1.74
   5   0  -7   59.72    1.79
   4   0  -7    9.91    0.71
   4   0  -7    9.64    0.66
   3   0  -7   36.42    1.18
   3   0  -7   37.58    1.24
   2   0  -7  131.17    2.80
   2   0  -7  131.69    2.71
  -2   0   7  129.11    2.62
   1   0  -7    6.97    0.43
   1   0  -7    7.38    0.53
  -1   0   7    6.04    0.44
   0   0  -7   26.74    0.81
   0   0  -7   27.07    0.92
   0   0   7   27.35    0.87
  -1   0  -7  114.02    2.39
  -1   0  -7  112.20    2.20
   1   0   7  112.59    2.36
  -2   0  -7    0.26    0.12
  -2   0  -7    0.20    0.18
   2   0   7    0.25    0.17
  -3   0  -7  165.12    3.17
  -3   0  -7  160.29    2.93
   3   0   7  157.10    2.93
   3   0   7  167.04    3.27
  -4   0  -7  117.10    2.38
   4   0   7  111.27    2.15
  -5   0  -7    1.44    0.28
  -5   0  -7    1.30    0.25
   5   0   7    1.18    0.19
  -6   0  -7   99.64    2.29
  -6   0  -7   99.57    2.16
   6   0   7   98.87    2.02
  -7   0  -7   56.52    1.45
  -7   0  -7   55.45    1.58
   7   0   7   54.82    1.37
  -8   0  -7    7.94    0.56
  -8   0  -7    9.63    0.69
   8   0   7    8.49    0.60
  -9   0  -7  122.35    3.44
  -9   0  -7  125.76    2.89
   9   0   7  122.30    2.73
 -10   0  -7   16.69    0.94
 -11   0  -7    2.85    0.52
 -12   0  -7   32.76    1.40
 -13   0  -7    2.60    0.53
   9  -1  -7    5.23    0.69
   8  -1  -7   77.06    2.36
   7  -1  -7    5.14    0.62
   6  -1  -7   11.88    0.87
   6  -1  -7   11.00    0.79
   5  -1  -7  147.40    3.28
   5  -1  -7  146.31    3.26
   4  -1  -7   17.68    0.85
   4  -1  -7   16.83    0.88
   3  -1  -7   31.99    1.12
   3  -1  -7   33.08    1.10
   2  -1  -7  126.44    2.63
   2  -1  -7  125.01    2.68
  -2   1   7  122.26    2.41
   1  -1  -7    1.47    0.27
   1  -1  -7    1.88    0.27
  -1   1   7    2.13    0.25
   0  -1  -7  114.53    2.39
   0  -1  -7  111.67    2.29
   0   1   7  114.21    2.28
  -1  -1  -7  148.05    2.86
  -1  -1  -7  152.41    2.96
   1   1   7  152.83    2.94
  -2  -1  -7    0.74    0.17
  -2  -1  -7    1.36    0.24
   2   1   7    0.47    0.19
  -3  -1  -7   54.63    1.32
  -3  -1  -7   55.26    1.24
  -3  -1  -7   56.06    1.39
  -4  -1  -7  112.21    2.16
  -4  -1  -7  109.68    2.23
  -4  -1  -7  112.45    2.36
   4   1   7  106.71    2.15
  -5  -1  -7   12.57    0.55
  -5  -1  -7   13.58    0.67
   5   1   7   12.75    0.53
  -6  -1  -7  103.42    2.12
  -6  -1  -7  102.09    2.33
   6   1   7  100.03    2.11
  -7  -1  -7   30.82    0.92
   7   1   7   31.40    0.99
  -8  -1  -7    8.69    0.62
  -8  -1  -7    7.51    0.66
   8   1   7    8.74    0.62
  -9  -1  -7   44.29    1.49
   9   1   7   43.66    1.40
 -10  -1  -7    7.88    0.72
  10   1   7    6.81    0.63
 -11  -1  -7   12.96    0.94
  11   1   7   16.54    1.00
 -12  -1  -7   35.71    1.44
  12   1   7   32.59    1.43
 -13  -1  -7    0.41    0.39
   9  -2  -7   28.71    1.44
   8  -2  -7   29.80    1.39
   7  -2  -7   24.11    1.16
   6  -2  -7   17.96    0.97
   5  -2  -7   51.11    1.60
   5  -2  -7   50.75    1.61
   4  -2  -7    3.63    0.48
   4  -2  -7    3.08    0.41
   3  -2  -7   77.81    1.96
   3  -2  -7   78.51    1.92
   2  -2  -7  115.77    2.50
   2  -2  -7  118.97    2.49
  -2   2   7  111.44    2.21
   1  -2  -7    8.68    0.50
   1  -2  -7    9.29    0.55
  -1   2   7    8.17    0.39
   0  -2  -7  134.75    2.73
   0  -2  -7  136.33    2.71
   0   2   7  139.41    2.62
  -1  -2  -7  124.83    2.44
  -1  -2  -7  119.46    2.38
  -1  -2  -7  122.14    2.45
  -2  -2  -7   19.81    0.66
  -2  -2  -7   19.30    0.66
  -2  -2  -7   18.21    0.67
  -3  -2  -7   69.63    1.52
  -3  -2  -7   67.53    1.62
  -3  -2  -7   72.02    1.55
  -4  -2  -7   42.54    1.07
  -4  -2  -7   42.32    1.19
  -4  -2  -7   41.79    1.03
   4   2   7   40.46    1.06
  -5  -2  -7   40.67    1.01
  -5  -2  -7   40.61    1.21
   5   2   7   41.19    1.08
  -6  -2  -7  127.23    2.72
  -6  -2  -7  121.11    2.38
   6   2   7  122.28    2.52
  -7  -2  -7    0.47    0.23
  -7  -2  -7    0.20    0.20
   7   2   7   -0.10    0.18
  -8  -2  -7   77.90    2.04
   8   2   7   77.39    1.92
  -9  -2  -7   51.12    1.63
   9   2   7   51.71    1.57
 -10  -2  -7    2.79    0.47
  10   2   7    2.36    0.49
 -11  -2  -7   29.26    1.34
  11   2   7   32.22    1.37
 -12  -2  -7   22.21    1.19
  12   2   7   20.61    1.24
 -13  -2  -7    3.71    0.60
  13   2   7    3.20    0.59
 -14  -2  -7   20.23    1.30
  14   2   7   20.14    1.31
   9  -3  -7   31.07    1.47
   8  -3  -7   15.93    1.03
   7  -3  -7    4.82    0.61
   6  -3  -7   94.92    2.47
   5  -3  -7   98.96    2.44
   4  -3  -7    1.24    0.30
   3  -3  -7   35.80    1.20
   3  -3  -7   37.02    1.17
   2  -3  -7    7.01    0.53
   2  -3  -7    6.48    0.48
   1  -3  -7   33.83    1.05
   1  -3  -7   35.80    1.05
  -1   3   7   34.93    0.83
   0  -3  -7  143.89    2.84
   0  -3  -7  147.06    2.87
   0  -3  -7  141.67    2.67
  -1  -3  -7    8.32    0.45
  -1  -3  -7    8.21    0.42
  -1  -3  -7    8.50    0.46
  -2  -3  -7   25.45    0.81
  -2  -3  -7   24.81    0.74
  -2  -3  -7   25.31    0.80
  -3  -3  -7  254.09    4.68
  -3  -3  -7  254.04    4.63
  -3  -3  -7  258.18    4.51
  -4  -3  -7   21.57    0.76
  -4  -3  -7   22.76    0.64
  -4  -3  -7   22.09    0.81
   4   3   7   21.35    0.75
  -5  -3  -7   17.14    0.54
  -5  -3  -7   16.47    0.75
   5   3   7   18.94    0.71
  -6  -3  -7   80.29    2.00
   6   3   7   82.15    1.89
  -7  -3  -7    8.58    0.61
   7   3   7    8.55    0.59
  -8  -3  -7   42.00    1.44
   8   3   7   45.94    1.39
  -9  -3  -7   74.03    2.07
   9   3   7   75.50    2.01
 -10  -3  -7   11.82    0.84
  10   3   7   10.34    0.89
 -11  -3  -7   42.55    1.61
  11   3   7   44.67    1.64
 -12  -3  -7   12.42    0.95
  12   3   7   10.71    1.06
 -13  -3  -7   14.51    1.03
  13   3   7   14.20    1.20
 -14  -3  -7   36.08    1.61
   9  -4  -7   17.90    1.15
   8  -4  -7   44.53    1.68
   7  -4  -7    5.55    0.68
   6  -4  -7  103.38    2.60
   5  -4  -7   25.72    1.09
   4  -4  -7   19.34    0.90
   3  -4  -7   74.24    1.86
   2  -4  -7   20.71    0.84
   2  -4  -7   19.15    0.80
   1  -4  -7   16.66    0.71
   1  -4  -7   16.73    0.70
   1  -4  -7   16.68    0.50
   0  -4  -7  104.98    2.06
   0  -4  -7  105.78    2.26
   0  -4  -7  107.19    2.23
  -1  -4  -7   23.72    0.75
  -1  -4  -7   23.72    0.73
  -1  -4  -7   23.44    0.81
  -2  -4  -7  180.58    3.38
  -2  -4  -7  187.23    3.56
  -2  -4  -7  189.40    3.51
  -3  -4  -7   91.34    1.80
  -3  -4  -7   89.43    2.00
  -3  -4  -7   92.01    2.00
  -4  -4  -7    6.27    0.47
  -4  -4  -7    6.62    0.31
  -4  -4  -7    6.72    0.46
   4   4   7    6.58    0.45
  -5  -4  -7   67.97    1.76
   5   4   7   69.03    1.68
  -6  -4  -7   91.04    2.22
   6   4   7   91.49    2.11
  -7  -4  -7   26.06    1.07
   7   4   7   27.63    1.03
  -8  -4  -7   52.92    1.67
   8   4   7   54.44    1.61
  -9  -4  -7   49.59    1.64
   9   4   7   47.34    1.58
 -10  -4  -7   11.29    0.85
  10   4   7   10.42    0.90
 -11  -4  -7   37.43    1.55
  11   4   7   39.10    1.61
 -12  -4  -7    6.20    0.70
  12   4   7    6.10    0.76
 -13  -4  -7   13.60    1.03
  13   4   7    9.82    0.97
   9  -5  -7   41.84    1.69
   8  -5  -7   10.41    0.88
   7  -5  -7    9.48    0.81
   6  -5  -7   48.08    1.60
   5  -5  -7    1.77    0.36
   4  -5  -7   54.42    1.60
   3  -5  -7   57.64    1.59
   2  -5  -7    1.72    0.29
   1  -5  -7   42.41    0.96
   1  -5  -7   40.42    1.20
   0  -5  -7   64.45    1.60
   0  -5  -7   64.40    1.41
  -1  -5  -7    4.80    0.36
  -1  -5  -7    4.77    0.41
  -2  -5  -7  158.91    3.17
  -2  -5  -7  157.90    3.12
  -2  -5  -7  162.33    2.98
  -3  -5  -7   21.86    0.82
  -3  -5  -7   21.51    0.82
  -3  -5  -7   22.91    0.64
   3   5   7   22.84    0.83
  -4  -5  -7   15.70    0.70
  -4  -5  -7   16.77    0.76
   4   5   7   15.29    0.69
  -5  -5  -7  111.39    2.55
   5   5   7  110.22    2.44
  -6  -5  -7   14.89    0.80
   6   5   7   15.53    0.78
  -7  -5  -7   16.13    0.87
   7   5   7   16.72    0.86
  -8  -5  -7  224.22    4.67
   8   5   7  226.34    4.55
  -9  -5  -7    0.92    0.34
   9   5   7   -0.11    0.34
 -10  -5  -7    8.38    0.82
  10   5   7    9.41    0.91
 -11  -5  -7   27.84    1.35
  11   5   7   26.34    1.38
 -12  -5  -7   -0.11    0.31
  12   5   7   -0.74    0.42
 -13  -5  -7   26.32    1.41
  13   5   7   25.81    1.53
   9  -6  -7   54.64    1.96
   8  -6  -7    5.07    0.64
   7  -6  -7   39.97    1.52
   6  -6  -7   41.93    1.50
   5  -6  -7    4.08    0.53
   4  -6  -7   45.37    1.45
   3  -6  -7   66.75    1.78
   2  -6  -7    9.39    0.61
   1  -6  -7   74.44    1.62
   1  -6  -7   72.96    1.82
   0  -6  -7   47.40    1.19
   0  -6  -7   47.60    1.34
  -1  -6  -7   99.34    2.16
  -1  -6  -7  102.21    2.26
  -2  -6  -7   79.10    1.89
  -2  -6  -7   81.84    1.92
  -3  -6  -7   50.10    1.39
  -3  -6  -7   51.31    1.45
  -4  -6  -7    7.37    0.56
  -4  -6  -7    7.15    0.54
   4   6   7    7.48    0.55
  -5  -6  -7   85.97    2.21
   5   6   7   88.81    2.12
  -6  -6  -7    5.97    0.58
   6   6   7    6.19    0.60
  -7  -6  -7   43.37    1.51
   7   6   7   42.15    1.44
  -8  -6  -7   74.37    2.17
   8   6   7   75.20    2.10
  -9  -6  -7    0.27    0.29
   9   6   7   -0.25    0.34
 -10  -6  -7   19.63    1.13
  10   6   7   18.66    1.16
 -11  -6  -7   30.60    1.45
  11   6   7   33.82    1.59
 -12  -6  -7    2.00    0.49
  12   6   7    1.18    0.58
 -13  -6  -7   19.51    1.31
   9  -7  -7   35.32    1.56
   8  -7  -7    0.28    0.33
   7  -7  -7   45.17    1.64
   6  -7  -7   36.46    1.40
   5  -7  -7    3.64    0.51
   4  -7  -7   76.43    2.04
   3  -7  -7   36.51    1.26
   2  -7  -7   26.84    1.03
   1  -7  -7   78.78    1.95
   0  -7  -7    6.37    0.51
   0  -7  -7    6.48    0.47
  -1  -7  -7   99.29    2.29
  -1  -7  -7  100.96    2.27
  -2  -7  -7  111.72    2.51
  -2  -7  -7  114.73    2.57
  -3  -7  -7    8.09    0.63
  -3  -7  -7    9.57    0.62
   3   7   7    9.34    0.61
  -4  -7  -7   50.89    1.49
  -4  -7  -7   52.10    1.61
   4   7   7   54.43    1.52
  -5  -7  -7   26.32    1.14
   5   7   7   27.04    1.06
  -6  -7  -7    6.84    0.66
   6   7   7    4.39    0.50
  -7  -7  -7  151.66    3.52
   7   7   7  148.30    3.36
  -8  -7  -7   26.48    1.26
   8   7   7   22.08    1.17
  -9  -7  -7    0.31    0.32
   9   7   7    0.42    0.40
 -10  -7  -7   21.34    1.23
  10   7   7   19.59    1.25
 -11  -7  -7   17.04    1.15
  11   7   7   17.65    1.33
 -12  -7  -7    2.38    0.55
  12   7   7    1.88    0.66
   9  -8  -7   24.66    1.33
   8  -8  -7    9.61    0.89
   7  -8  -7   62.64    2.02
   6  -8  -7   19.69    1.06
   5  -8  -7    0.52    0.29
   4  -8  -7   54.50    1.67
   3  -8  -7   23.69    1.02
   2  -8  -7   17.71    0.86
   1  -8  -7   38.36    1.26
   0  -8  -7   16.38    0.77
   0  -8  -7   16.08    0.79
  -1  -8  -7   55.25    1.58
  -1  -8  -7   57.90    1.62
  -2  -8  -7   85.94    2.12
  -2  -8  -7   86.71    2.22
  -3  -8  -7    1.34    0.35
  -3  -8  -7    0.48    0.25
   3   8   7    0.70    0.28
  -4  -8  -7   50.13    1.67
  -4  -8  -7   50.76    1.53
   4   8   7   53.27    1.57
  -5  -8  -7   35.66    1.43
   5   8   7   37.99    1.33
  -6  -8  -7   21.10    1.12
   6   8   7   18.54    1.01
  -7  -8  -7   48.73    1.75
   7   8   7   44.33    1.61
  -8  -8  -7    6.08    0.72
   8   8   7    7.25    0.73
  -9  -8  -7   15.45    1.08
   9   8   7   13.85    1.09
 -10  -8  -7   58.01    2.11
  10   8   7   60.90    2.14
 -11  -8  -7    3.69    0.65
  11   8   7    3.99    0.77
   9  -9  -7   14.34    1.39
   8  -9  -7   14.95    1.07
   7  -9  -7   38.56    1.55
   6  -9  -7    3.93    0.55
   5  -9  -7   10.91    0.82
   4  -9  -7   33.05    1.29
   3  -9  -7    1.32    0.32
   2  -9  -7   80.44    2.10
   1  -9  -7   57.73    1.68
   0  -9  -7    2.59    0.41
   0  -9  -7    2.50    0.39
  -1  -9  -7   36.68    1.27
  -1  -9  -7   35.24    1.31
  -2  -9  -7   10.59    0.77
  -2  -9  -7   11.05    0.72
  -3  -9  -7   37.23    1.31
  -3  -9  -7   34.72    1.39
   3   9   7   36.26    1.32
  -4  -9  -7   75.29    2.25
   4   9   7   80.41    2.12
  -5  -9  -7   34.37    1.47
   5   9   7   35.92    1.37
  -6  -9  -7   41.22    1.65
   6   9   7   42.21    1.56
  -7  -9  -7   38.76    1.65
   7   9   7   42.82    1.62
  -8  -9  -7    2.17    0.50
   8   9   7    3.12    0.60
  -9  -9  -7   14.18    1.10
   9   9   7   12.85    1.17
 -10  -9  -7   24.51    1.42
  10   9   7   24.56    1.48
 -11  -9  -7    0.03    0.48
   8 -10  -7   22.47    1.26
   7 -10  -7   17.00    1.08
   6 -10  -7    0.05    0.30
   5 -10  -7   34.75    1.40
   4 -10  -7   31.43    1.30
   3 -10  -7    0.59    0.29
   2 -10  -7   38.60    1.37
   1 -10  -7    5.71    0.58
  -1  10   7    5.60    0.55
   0 -10  -7   46.37    1.51
   0 -10  -7   46.34    1.58
   0  10   7   47.87    1.84
  -1 -10  -7   91.06    2.47
  -1 -10  -7   92.17    2.33
  -2 -10  -7   16.58    0.93
  -2 -10  -7   18.37    1.05
   2  10   7   18.47    1.00
  -3 -10  -7   45.71    1.55
  -3 -10  -7   51.38    1.80
   3  10   7   50.33    1.62
  -4 -10  -7  105.03    2.88
   4  10   7  106.36    2.68
  -5 -10  -7    0.37    0.35
   5  10   7    0.14    0.37
  -6 -10  -7   55.49    2.01
   6  10   7   53.37    1.83
  -7 -10  -7   52.21    1.99
   7  10   7   54.83    1.91
  -8 -10  -7    1.95    0.52
   8  10   7    3.04    0.65
  -9 -10  -7   38.32    1.78
   9  10   7   39.15    1.77
 -10 -10  -7   20.71    1.55
   8 -11  -7   42.44    1.77
   7 -11  -7   23.89    1.26
  -7  11   7   23.82    1.43
   6 -11  -7    0.35    0.34
  -6  11   7    0.68    0.50
   5 -11  -7   42.20    1.58
  -5  11   7   43.25    1.71
   4 -11  -7   12.64    0.89
  -4  11   7   12.11    0.99
   3 -11  -7    1.42    0.38
  -3  11   7    2.13    0.47
   2 -11  -7   35.25    1.35
  -2  11   7   37.50    1.39
   1 -11  -7   14.76    0.89
  -1  11   7   16.07    1.18
   0 -11  -7   26.54    1.25
   0 -11  -7   29.15    1.21
  -1 -11  -7   52.71    1.86
  -1 -11  -7   54.31    1.72
   1  11   7   55.13    1.74
  -2 -11  -7    8.87    0.85
  -2 -11  -7    8.09    0.74
   2  11   7    7.49    0.70
  -3 -11  -7   18.77    1.03
  -3 -11  -7   19.42    1.17
   3  11   7   18.50    1.07
  -4 -11  -7   35.96    1.61
   4  11   7   34.23    1.41
  -5 -11  -7    0.82    0.42
   5  11   7   -0.37    0.33
  -6 -11  -7   38.12    1.71
   6  11   7   37.69    1.58
  -7 -11  -7   28.84    1.53
   7  11   7   28.75    1.46
  -8 -11  -7    0.19    0.40
   8  11   7    0.46    0.51
   9  11   7   25.54    1.68
   7 -12  -7   15.16    1.08
   6 -12  -7   12.47    0.98
  -6  12   7   14.16    1.20
   5 -12  -7   22.69    1.18
  -5  12   7   23.32    1.34
   4 -12  -7    1.41    0.40
  -4  12   7    1.16    0.49
   3 -12  -7   10.00    0.83
  -3  12   7    9.63    0.90
   2 -12  -7   27.02    1.23
   1 -12  -7   -0.10    0.26
   0 -12  -7   39.50    1.48
   0  12   7   38.66    1.49
  -1 -12  -7   43.24    1.74
  -1 -12  -7   45.62    1.63
   1  12   7   47.46    1.66
  -2 -12  -7    0.03    0.34
  -2 -12  -7    0.09    0.31
   2  12   7    0.01    0.36
  -3 -12  -7   31.89    1.57
   3  12   7   30.81    1.40
  -4 -12  -7    3.90    0.69
   4  12   7    3.80    0.60
  -5 -12  -7   13.66    1.13
   5  12   7   13.01    1.09
  -6 -12  -7   46.50    1.99
   6  12   7   48.63    1.88
  -7 -12  -7   16.41    1.24
   7  12   7   16.74    1.27
   8  12   7    9.18    1.09
  -5  13   7   16.22    1.19
   4 -13  -7    0.66    0.36
  -4  13   7    0.91    0.50
   3 -13  -7    6.63    0.72
   2 -13  -7    5.14    0.64
   1 -13  -7    3.01    0.52
  -1  13   7    4.38    0.62
   0 -13  -7   38.82    1.55
   0  13   7   41.65    1.59
  -1 -13  -7   20.05    1.15
  -1 -13  -7   19.14    1.25
   1  13   7   21.37    1.19
  -2 -13  -7    3.49    0.55
  -2 -13  -7    4.59    0.72
   2  13   7    4.19    0.62
  -3 -13  -7   39.65    1.81
   3  13   7   38.55    1.62
  -4 -13  -7    3.40    0.67
   4  13   7    2.88    0.60
  -5 -13  -7   12.34    1.14
   5  13   7    8.09    0.85
  -6 -13  -7   27.82    1.72
   6  13   7   29.03    1.55
   0 -14  -7   18.90    1.46
  -1 -14  -7    1.48    0.53
  -1 -14  -7    1.97    0.48
   1  14   7    2.06    0.70
  -2 -14  -7   26.88    1.54
   2  14   7   27.04    1.43
  -3 -14  -7   28.52    1.60
   3  14   7   27.94    1.47
  -4 -14  -7    0.95    0.53
   4  14   7    0.73    0.53
   5  14   7   22.26    1.40
   0   8  -8   33.97    1.62
   0  -8   8   34.74    1.83
  -1   8  -8    7.83    0.89
   1  -8   8    7.29    0.95
  -2   8  -8    8.39    0.94
   2  -8   8    6.02    0.88
  -3   8  -8   35.38    1.64
   3  -8   8   35.70    1.80
  -4   8  -8    7.23    0.91
   4  -8   8    7.51    0.99
  -5   8  -8    6.46    0.86
   5  -8   8    5.89    1.01
   3   7  -8   19.27    1.23
   2   7  -8   13.21    1.05
  -2  -7   8   13.00    1.18
   1   7  -8    1.29    0.49
  -1  -7   8    2.15    0.62
   0   7  -8   27.82    1.37
   0  -7   8   25.48    1.48
  -1   7  -8    4.85    0.71
   1  -7   8    4.60    0.77
  -2   7  -8   20.06    1.20
   2  -7   8   18.70    1.30
  -3   7  -8   26.98    1.38
   3  -7   8   28.00    1.50
  -4   7  -8    3.95    0.68
   4  -7   8    2.19    0.59
  -5   7  -8   12.66    1.04
   5  -7   8   11.93    1.08
  -6   7  -8   27.16    1.44
   6  -7   8   26.61    1.48
  -7   7  -8   -0.22    0.43
   7  -7   8    0.08    0.44
  -8   7  -8   25.06    1.45
   8  -7   8   22.48    1.40
   4   6  -8   10.33    0.96
   3   6  -8   30.55    1.42
   2   6  -8    3.47    0.60
  -2  -6   8    2.96    0.62
   1   6  -8   13.06    0.97
  -1  -6   8   13.61    1.09
   0   6  -8   21.14    1.15
   0  -6   8   21.42    1.31
  -1   6  -8    0.62    0.42
   1  -6   8    0.23    0.45
  -2   6  -8   27.25    1.31
   2  -6   8   28.14    1.42
  -3   6  -8   25.96    1.30
   3  -6   8   24.09    1.32
  -4   6  -8    0.73    0.43
   4  -6   8    0.65    0.43
  -5   6  -8   40.41    1.63
   5  -6   8   40.40    1.67
  -6   6  -8   12.77    1.02
   6  -6   8   13.92    1.09
  -7   6  -8    2.35    0.57
   7  -6   8    3.62    0.67
  -8   6  -8   33.26    1.59
   8  -6   8   33.56    1.58
  -9   6  -8    4.08    0.71
   9  -6   8    3.93    0.70
 -10   6  -8   11.25    1.09
  10  -6   8   11.61    1.12
   5   5  -8    0.62    0.45
   4   5  -8    9.63    0.91
   3   5  -8   29.79    1.34
   2   5  -8    1.26    0.44
  -2  -5   8    1.39    0.50
   1   5  -8   60.66    1.90
  -1  -5   8   58.57    2.00
   0   5  -8   46.31    1.61
   0  -5   8   42.99    1.68
  -1   5  -8    0.14    0.34
   1  -5   8   -0.56    0.34
  -2   5  -8   37.10    1.44
   2  -5   8   36.52    1.49
  -3   5  -8    5.32    0.68
   3  -5   8    4.25    0.62
  -4   5  -8    3.05    0.54
  -5   5  -8   60.64    1.95
   5  -5   8   60.92    2.00
  -6   5  -8    0.76    0.42
   6  -5   8    1.02    0.44
  -7   5  -8   50.91    1.83
   7  -5   8   51.03    1.85
  -8   5  -8   30.93    1.45
   8  -5   8   31.33    1.46
  -9   5  -8    3.11    0.63
   9  -5   8    2.14    0.57
 -10   5  -8   21.84    1.33
  10  -5   8   18.57    1.25
 -11   5  -8   38.01    1.77
  11  -5   8   37.69    1.71
   6   4  -8   19.35    1.21
   5   4  -8    0.94    0.43
   4   4  -8   27.00    1.28
   3   4  -8   20.54    1.11
   2   4  -8    5.56    0.66
  -2  -4   8    6.26    0.69
   1   4  -8   74.78    2.12
  -1  -4   8   77.80    2.23
   0   4  -8   13.55    0.86
   0  -4   8   13.69    0.93
  -1   4  -8    1.16    0.39
   1  -4   8    0.54    0.37
  -2   4  -8   58.79    1.79
   2  -4   8   58.27    1.82
  -3   4  -8   11.08    0.81
   3  -4   8    8.41    0.77
  -4   4  -8   26.85    1.19
   4  -4   8   27.29    1.23
  -5   4  -8   71.63    2.08
   5  -4   8   72.63    2.12
  -6   4  -8    0.23    0.33
   6  -4   8    0.30    0.33
  -7   4  -8   28.34    1.29
   7  -4   8   26.39    1.28
  -8   4  -8   37.01    1.52
   8  -4   8   41.07    1.61
  -9   4  -8    0.70    0.41
   9  -4   8    0.64    0.41
 -10   4  -8   37.64    1.62
  10  -4   8   33.37    1.54
 -11   4  -8   23.37    1.34
  11  -4   8   20.76    1.28
  12  -4   8   -0.65    0.37
   7   3  -8   38.54    1.66
   6   3  -8    8.55    0.87
   5   3  -8    3.35    0.58
   4   3  -8   55.27    1.80
   3   3  -8   31.49    1.29
   2   3  -8   16.02    0.92
  -2  -3   8   15.14    0.93
   1   3  -8   41.90    1.43
  -1  -3   8   41.46    1.46
   0   3  -8    0.75    0.34
   0  -3   8    0.38    0.33
  -1   3  -8   75.59    2.01
   1  -3   8   74.12    2.03
  -2   3  -8   68.00    1.88
   2  -3   8   68.04    1.91
  -3   3  -8    5.29    0.58
   3  -3   8    5.70    0.59
  -4   3  -8   38.20    1.36
   4  -3   8   40.63    1.42
  -5   3  -8   51.25    1.62
   5  -3   8   53.20    1.70
  -6   3  -8   24.04    1.11
   6  -3   8   24.26    1.17
  -7   3  -8   52.37    1.69
   7  -3   8   52.38    1.75
  -8   3  -8   17.94    1.00
   8  -3   8   15.15    0.99
  -9   3  -8   11.03    0.88
   9  -3   8   10.02    0.89
 -10   3  -8   62.15    2.04
  10  -3   8   63.79    2.10
 -11   3  -8   20.65    1.20
  11  -3   8   19.49    1.19
  12  -3   8    6.09    0.81
  13  -3   8   22.14    1.70
   8   2  -8    6.93    0.84
   7   2  -8   36.82    1.60
   6   2  -8    6.93    0.76
   5   2  -8   11.18    0.89
   4   2  -8   66.44    1.97
   3   2  -8   14.00    0.87
   2   2  -8   39.03    1.36
  -2  -2   8   38.86    1.34
   1   2  -8   79.80    2.04
  -1  -2   8   73.77    1.97
   0   2  -8    2.26    0.42
   0  -2   8    1.78    0.39
  -1   2  -8   63.76    1.74
   1  -2   8   64.76    1.76
  -2   2  -8   81.68    2.04
   2  -2   8   79.37    2.04
  -3   2  -8   -0.06    0.25
   3  -2   8   -0.08    0.25
  -4   2  -8   81.16    2.04
   4  -2   8   78.97    2.09
  -5   2  -8    2.67    0.41
   5  -2   8    2.63    0.44
  -6   2  -8    9.66    0.69
   6  -2   8    7.23    0.69
  -7   2  -8  125.39    2.85
   7  -2   8  119.61    2.93
  -8   2  -8    3.24    0.48
   8  -2   8    2.51    0.49
  -9   2  -8   48.38    1.61
   9  -2   8   45.87    1.67
 -10   2  -8   39.18    1.48
  10  -2   8   38.33    1.56
  11  -2   8    2.71    0.57
  12  -2   8   12.44    1.03
  13  -2   8   18.10    1.22
   8   1  -8   22.50    1.32
   7   1  -8   37.07    1.59
   7   1  -8   39.37    1.63
   6   1  -8   -0.61    0.31
   6   1  -8   -0.27    0.23
   5   1  -8   20.65    1.03
   5   1  -8   20.11    1.08
   4   1  -8   73.38    2.06
   4   1  -8   72.43    1.99
   3   1  -8    1.67    0.33
   3   1  -8    1.54    0.39
   2   1  -8   33.14    1.21
   2   1  -8   34.62    1.11
  -2  -1   8   33.51    1.18
   1   1  -8   73.95    1.90
   1   1  -8   70.67    1.97
  -1  -1   8   72.61    1.81
   0   1  -8   10.04    0.67
   0  -1   8   13.13    0.70
  -1   1  -8   56.91    1.57
   1  -1   8   57.81    1.55
  -2   1  -8   46.92    1.38
   2  -1   8   49.55    1.43
  -3   1  -8   13.07    0.70
   3  -1   8   13.81    0.74
  -4   1  -8   73.97    1.87
   4  -1   8   77.50    1.97
  -5   1  -8    3.39    0.42
   5  -1   8    3.30    0.45
  -6   1  -8   34.32    1.17
   6  -1   8   36.42    1.30
  -7   1  -8   97.32    2.31
   7  -1   8   97.05    2.46
  -8   1  -8    0.17    0.24
   8  -1   8   -0.02    0.29
  -9   1  -8   58.82    1.71
   9  -1   8   58.64    1.86
  13  -1   8   29.22    1.44
   8   0  -8   23.50    1.30
   7   0  -8   31.01    1.44
   7   0  -8   29.34    1.36
   6   0  -8    1.32    0.43
   5   0  -8   35.22    1.41
   5   0  -8   36.13    1.36
   4   0  -8   31.82    1.22
   4   0  -8   31.37    1.24
   3   0  -8    6.00    0.55
   3   0  -8    6.45    0.63
   2   0  -8   88.57    2.07
   2   0  -8   87.86    2.17
   1   0  -8   50.23    1.45
   1   0  -8   51.14    1.34
  -1   0   8   49.75    1.34
   0   0  -8    8.84    0.59
   0   0  -8    8.93    0.49
   0   0   8    8.48    0.54
  -1   0  -8   82.48    1.75
  -1   0  -8   79.62    1.92
   1   0   8   81.21    1.90
  -2   0  -8    1.76    0.21
  -2   0  -8    1.94    0.32
   2   0   8    2.20    0.32
  -3   0  -8   67.54    1.66
  -3   0  -8   66.66    1.49
   3   0   8   68.31    1.74
  -4   0  -8   26.89    0.93
   4   0   8   25.86    0.75
   4   0   8   26.22    1.00
  -5   0  -8    3.28    0.39
   5   0   8    2.40    0.40
  -6   0  -8  105.71    2.46
  -6   0  -8  106.97    2.35
  -7   0  -8  111.45    2.45
  -7   0  -8  111.19    2.60
  -8   0  -8    9.62    0.75
  -8   0  -8   10.79    0.65
  -9   0  -8   74.45    2.09
 -10   0  -8   28.61    1.26
 -11   0  -8    2.43    0.51
 -12   0  -8   25.31    1.28
 -13   0  -8    3.15    0.59
   8  -1  -8   21.89    1.24
   7  -1  -8    8.41    0.84
   6  -1  -8   23.80    1.20
   6  -1  -8   23.53    1.17
   5  -1  -8   88.38    2.33
   5  -1  -8   84.40    2.31
   4  -1  -8   40.24    1.40
   4  -1  -8   37.89    1.34
   3  -1  -8    8.60    0.68
   3  -1  -8    8.95    0.63
   2  -1  -8   66.71    1.78
   2  -1  -8   68.35    1.73
   1  -1  -8    2.86    0.34
   1  -1  -8    3.58    0.43
  -1   1   8    3.31    0.34
   0  -1  -8   33.04    0.98
   0  -1  -8   31.38    1.05
   0   1   8   32.60    0.97
  -1  -1  -8  132.31    2.63
  -1  -1  -8  132.08    2.75
   1   1   8  134.86    2.72
  -2  -1  -8    0.06    0.18
  -2  -1  -8    0.00    0.13
   2   1   8    0.13    0.18
  -3  -1  -8   89.75    1.87
  -3  -1  -8   90.32    1.98
  -4  -1  -8  106.97    2.37
  -4  -1  -8  110.51    2.28
  -4  -1  -8  108.61    2.16
   4   1   8  105.08    2.15
  -5  -1  -8    7.35    0.47
  -5  -1  -8    7.13    0.55
   5   1   8    7.26    0.43
  -6  -1  -8   41.74    1.15
  -6  -1  -8   40.19    1.29
   6   1   8   41.30    1.10
  -7  -1  -8   15.72    0.81
  -7  -1  -8   15.34    0.66
   7   1   8   15.71    0.69
  -8  -1  -8   72.01    1.97
   8   1   8   71.07    1.76
  -9  -1  -8  214.53    4.45
   9   1   8  213.85    4.21
 -10  -1  -8   48.84    1.65
  10   1   8   49.24    1.97
 -11  -1  -8    6.25    0.72
 -12  -1  -8   17.82    1.10
 -13  -1  -8    0.08    0.36
   9  -2  -8   11.23    1.22
   8  -2  -8   64.26    2.16
   7  -2  -8    6.44    0.71
   6  -2  -8   18.26    1.02
   5  -2  -8   78.92    2.20
   5  -2  -8   79.47    2.17
   4  -2  -8   -0.43    0.20
   4  -2  -8    0.13    0.28
   3  -2  -8   95.81    2.31
   3  -2  -8   91.96    2.24
   2  -2  -8   82.63    2.04
   2  -2  -8   86.11    2.03
   1  -2  -8    0.28    0.22
   1  -2  -8    0.21    0.18
  -1   2   8    0.63    0.17
   0  -2  -8  105.07    2.29
   0  -2  -8  104.33    2.25
   0   2   8  104.85    2.15
  -1  -2  -8  113.92    2.36
  -1  -2  -8  112.18    2.39
   1   2   8  115.93    2.36
  -2  -2  -8   -0.09    0.15
  -2  -2  -8    0.06    0.17
  -2  -2  -8    0.10    0.14
  -3  -2  -8   80.13    1.75
  -3  -2  -8   79.04    1.83
  -3  -2  -8   76.50    1.72
  -4  -2  -8   45.91    1.30
  -4  -2  -8   46.75    1.19
  -4  -2  -8   45.66    1.17
   4   2   8   46.78    1.19
  -5  -2  -8   40.68    1.26
  -5  -2  -8   40.66    1.07
   5   2   8   40.13    1.10
  -6  -2  -8   78.25    1.74
  -6  -2  -8   82.02    2.03
   6   2   8   81.26    1.84
  -7  -2  -8   10.39    0.68
   7   2   8    9.12    0.59
  -8  -2  -8   23.56    1.09
   8   2   8   25.44    0.98
  -9  -2  -8  103.52    2.63
   9   2   8  104.95    2.46
 -10  -2  -8   16.38    0.98
  10   2   8   15.53    0.96
 -11  -2  -8   42.17    1.62
  11   2   8   42.25    1.55
 -12  -2  -8   27.77    1.33
  12   2   8   26.04    1.34
 -13  -2  -8    0.49    0.40
  13   2   8    1.80    0.70
 -14  -2  -8    9.29    0.92
   9  -3  -8   15.63    1.25
   8  -3  -8   53.61    1.93
   7  -3  -8   10.23    0.89
   6  -3  -8   22.86    1.14
   5  -3  -8  106.54    2.66
   4  -3  -8    3.17    0.49
   4  -3  -8    3.36    0.47
   3  -3  -8   57.00    1.63
   3  -3  -8   53.26    1.57
   2  -3  -8   87.21    2.10
   2  -3  -8   83.88    2.04
   1  -3  -8   -0.10    0.19
   1  -3  -8   -0.07    0.16
  -1   3   8    0.01    0.13
   0  -3  -8   43.18    1.23
   0  -3  -8   44.22    1.23
   0   3   8   43.17    1.09
  -1  -3  -8   57.67    1.37
  -1  -3  -8   58.85    1.46
  -1  -3  -8   58.33    1.44
  -2  -3  -8   16.58    0.68
  -2  -3  -8   16.95    0.67
  -2  -3  -8   17.80    0.66
  -3  -3  -8   87.17    1.91
  -3  -3  -8   85.75    1.95
  -3  -3  -8   84.59    1.82
  -4  -3  -8    0.83    0.19
  -4  -3  -8    0.62    0.20
  -4  -3  -8    1.26    0.27
   4   3   8    0.50    0.18
  -5  -3  -8   61.85    1.63
  -5  -3  -8   58.76    1.34
   5   3   8   61.41    1.51
  -6  -3  -8   54.44    1.57
   6   3   8   55.50    1.45
  -7  -3  -8    2.78    0.40
   7   3   8    3.16    0.39
  -8  -3  -8   39.40    1.42
   8   3   8   42.33    1.33
  -9  -3  -8   68.48    2.02
   9   3   8   67.94    1.90
 -10  -3  -8    4.55    0.59
  10   3   8    4.45    0.58
 -11  -3  -8   36.58    1.52
  11   3   8   37.20    1.51
 -12  -3  -8    8.97    0.88
  12   3   8    7.56    0.81
 -13  -3  -8   12.66    1.03
  13   3   8    8.74    0.89
   9  -4  -8   29.94    1.59
   8  -4  -8    8.55    0.88
   7  -4  -8    1.63    0.43
   6  -4  -8   86.31    2.39
   5  -4  -8   62.07    1.85
   4  -4  -8   17.10    0.89
   3  -4  -8   51.14    1.52
   2  -4  -8   26.86    1.01
   2  -4  -8   26.70    1.03
   1  -4  -8   27.86    0.99
   1  -4  -8   29.42    1.01
   0  -4  -8   41.06    1.03
   0  -4  -8   42.52    1.22
   0  -4  -8   41.50    1.19
  -1  -4  -8    2.95    0.33
  -1  -4  -8    2.60    0.31
  -1  -4  -8    2.87    0.30
  -2  -4  -8  100.33    2.17
  -2  -4  -8   97.14    2.05
  -2  -4  -8   98.38    2.11
  -3  -4  -8  183.71    3.59
  -3  -4  -8  186.40    3.42
  -3  -4  -8  185.67    3.61
  -4  -4  -8    4.89    0.44
  -4  -4  -8    4.02    0.31
  -4  -4  -8    3.15    0.35
   4   4   8    3.30    0.35
  -5  -4  -8   74.99    1.93
  -5  -4  -8   77.27    1.83
   5   4   8   79.63    1.86
  -6  -4  -8   39.60    1.33
   6   4   8   42.86    1.28
  -7  -4  -8    8.28    0.65
   7   4   8    7.73    0.64
  -8  -4  -8  100.07    2.55
   8   4   8   99.39    2.40
  -9  -4  -8   73.89    2.13
   9   4   8   72.85    2.03
 -10  -4  -8   19.73    1.08
  10   4   8   17.80    1.09
 -11  -4  -8   63.74    2.08
  11   4   8   64.85    2.08
 -12  -4  -8   18.63    1.15
  12   4   8   18.01    1.26
 -13  -4  -8    4.61    0.69
  13   4   8    3.41    0.68
   9  -5  -8   20.33    1.34
   8  -5  -8   17.10    1.10
   7  -5  -8    5.11    0.65
   6  -5  -8  103.95    2.70
   5  -5  -8    8.04    0.72
   4  -5  -8   25.96    1.09
   3  -5  -8   85.96    2.16
   2  -5  -8    1.84    0.31
   1  -5  -8   64.95    1.69
   0  -5  -8  159.11    3.12
   0  -5  -8  150.20    3.16
   0  -5  -8  153.75    2.91
  -1  -5  -8    1.18    0.25
  -1  -5  -8    1.21    0.23
  -1  -5  -8    1.18    0.25
  -2  -5  -8   85.55    2.00
  -2  -5  -8   84.77    1.84
  -2  -5  -8   88.56    1.95
  -3  -5  -8    2.08    0.24
  -3  -5  -8    1.54    0.27
  -3  -5  -8    1.65    0.29
  -4  -5  -8   24.69    0.95
  -4  -5  -8   25.99    0.94
   4   5   8   25.98    0.94
  -5  -5  -8  130.18    2.88
  -5  -5  -8  125.67    2.74
   5   5   8  131.00    2.79
  -6  -5  -8   27.24    1.11
   6   5   8   26.75    1.03
  -7  -5  -8   36.71    1.35
   7   5   8   38.83    1.30
  -8  -5  -8  104.67    2.69
   8   5   8  106.34    2.57
  -9  -5  -8   18.13    1.04
   9   5   8   18.87    1.05
 -10  -5  -8   11.10    0.89
  10   5   8   10.33    0.92
 -11  -5  -8   24.64    1.31
  11   5   8   26.87    1.37
 -12  -5  -8    0.39    0.38
  12   5   8    0.71    0.51
 -13  -5  -8   20.66    1.29
  13   5   8   21.20    1.41
   8  -6  -8    7.37    0.80
   7  -6  -8   18.56    1.12
   6  -6  -8   67.49    2.05
   5  -6  -8    8.76    0.74
   4  -6  -8   41.37    1.43
   3  -6  -8   48.33    1.51
   2  -6  -8    1.59    0.32
   1  -6  -8  115.89    2.60
   0  -6  -8  113.54    2.27
   0  -6  -8  110.89    2.51
  -1  -6  -8    1.97    0.31
  -1  -6  -8    2.64    0.31
  -2  -6  -8  185.86    3.62
  -2  -6  -8  183.73    3.69
  -3  -6  -8   15.27    0.75
  -3  -6  -8   16.00    0.76
   3   6   8   14.84    0.75
  -4  -6  -8   28.34    1.07
  -4  -6  -8   27.79    1.03
   4   6   8   29.32    1.06
  -5  -6  -8   70.65    1.82
  -5  -6  -8   70.12    1.93
   5   6   8   72.75    1.86
  -6  -6  -8   22.88    1.04
   6   6   8   22.68    0.99
  -7  -6  -8   68.28    2.01
   7   6   8   69.40    1.92
  -8  -6  -8  112.99    2.87
   8   6   8  111.16    2.75
  -9  -6  -8    1.11    0.38
   9   6   8    0.16    0.36
 -10  -6  -8   13.91    1.01
  10   6   8   15.24    1.09
 -11  -6  -8   12.50    1.03
  11   6   8   11.41    1.08
 -12  -6  -8    0.38    0.39
  12   6   8   -0.15    0.48
   8  -7  -8    2.13    0.52
   7  -7  -8   48.87    1.77
   6  -7  -8   28.74    1.28
   5  -7  -8   -0.01    0.28
   4  -7  -8   65.90    1.91
   3  -7  -8   47.03    1.52
   2  -7  -8    5.18    0.53
   1  -7  -8   89.67    2.20
   0  -7  -8   69.30    1.81
   0  -7  -8   69.04    1.61
  -1  -7  -8   44.90    1.37
  -1  -7  -8   44.98    1.27
  -2  -7  -8   28.03    1.05
  -2  -7  -8   29.25    1.04
  -3  -7  -8    5.53    0.53
  -3  -7  -8    5.90    0.56
   3   7   8    5.37    0.53
  -4  -7  -8   39.22    1.29
  -4  -7  -8   42.92    1.40
   4   7   8   39.88    1.32
  -5  -7  -8   73.53    2.08
   5   7   8   78.11    2.01
  -6  -7  -8    0.37    0.28
   6   7   8   -0.02    0.26
  -7  -7  -8   74.85    2.22
   7   7   8   77.01    2.11
  -8  -7  -8   48.48    1.74
   8   7   8   46.19    1.65
  -9  -7  -8    1.42    0.42
   9   7   8    0.95    0.44
 -10  -7  -8   18.78    1.17
  10   7   8   19.64    1.25
 -11  -7  -8    8.97    0.91
  11   7   8    9.01    0.94
 -12  -7  -8    6.86    0.83
  12   7   8    5.59    0.85
   8  -8  -8    0.50    0.36
   7  -8  -8   35.74    1.53
   6  -8  -8   36.92    1.49
   4  -8  -8   49.38    1.64
   3  -8  -8   13.84    0.84
   2  -8  -8   25.25    1.07
   1  -8  -8   43.01    1.40
   0  -8  -8    4.95    0.67
   0  -8  -8    5.33    0.54
  -1  -8  -8  119.59    2.71
  -1  -8  -8  115.81    2.62
  -2  -8  -8   88.89    2.25
  -2  -8  -8   92.44    2.25
  -3  -8  -8    0.11    0.21
  -3  -8  -8    0.43    0.27
   3   8   8   -0.14    0.22
  -4  -8  -8   42.94    1.52
  -4  -8  -8   44.38    1.44
   4   8   8   45.06    1.45
  -5  -8  -8   18.02    1.02
   5   8   8   18.56    0.97
  -6  -8  -8   17.85    1.05
   6   8   8   15.35    0.95
  -7  -8  -8  138.98    3.44
   7   8   8  140.00    3.27
  -8  -8  -8   14.35    1.03
   8   8   8   12.54    0.99
  -9  -8  -8   14.20    1.04
   9   8   8   12.73    1.04
 -10  -8  -8   28.57    1.47
  10   8   8   25.25    1.43
 -11  -8  -8   15.29    1.15
  11   8   8   14.14    1.25
   8  -9  -8   11.99    1.02
   7  -9  -8   37.06    1.56
   6  -9  -8   10.99    0.90
   5  -9  -8   16.48    1.02
   4  -9  -8   56.10    1.79
   3  -9  -8    8.99    0.72
   2  -9  -8   29.75    1.20
   1  -9  -8   40.33    1.38
   0  -9  -8    7.78    0.65
  -1  -9  -8   98.59    2.43
  -1  -9  -8   98.76    2.43
  -2  -9  -8  124.34    2.87
  -2  -9  -8  122.74    2.94
   2   9   8  123.84    2.87
  -3  -9  -8    6.44    0.68
  -3  -9  -8    5.38    0.57
   3   9   8    5.18    0.56
  -4  -9  -8   70.77    1.97
  -4  -9  -8   67.69    2.10
   4   9   8   70.05    1.97
  -5  -9  -8    8.56    0.83
   5   9   8    7.70    0.76
  -6  -9  -8   33.25    1.47
   6   9   8   30.94    1.36
  -7  -9  -8   73.12    2.33
   7   9   8   69.95    2.14
  -8  -9  -8   18.89    1.19
   8   9   8   16.45    1.17
  -9  -9  -8    5.58    0.74
   9   9   8    5.55    0.73
 -10  -9  -8   28.47    1.52
  10   9   8   26.95    1.51
   7 -10  -8   16.72    1.13
   6 -10  -8   -0.23    0.27
   5 -10  -8   32.97    1.41
   4 -10  -8   25.40    1.20
   3 -10  -8    2.83    0.47
   2 -10  -8   44.07    1.52
   1 -10  -8   20.86    1.02
   0 -10  -8    3.65    0.51
  -1 -10  -8   26.42    1.15
  -1 -10  -8   26.76    1.19
  -2 -10  -8    0.46    0.33
  -2 -10  -8    0.09    0.25
   2  10   8   -0.28    0.29
  -3 -10  -8   66.45    2.09
  -3 -10  -8   66.98    1.95
   3  10   8   65.28    1.96
  -4 -10  -8   97.07    2.72
  -4 -10  -8   98.30    2.52
   4  10   8   98.12    2.55
  -5 -10  -8   13.62    1.02
   5  10   8   13.20    0.96
  -6 -10  -8   49.77    1.93
   6  10   8   49.32    1.76
  -7 -10  -8   36.53    1.67
   7  10   8   38.44    1.63
  -8 -10  -8    2.27    0.55
   8  10   8    1.99    0.57
  -9 -10  -8   14.28    1.16
   9  10   8   13.86    1.21
 -10 -10  -8   19.93    1.55
   7 -11  -8   17.34    1.15
   6 -11  -8    2.57    0.54
   5 -11  -8   36.60    1.51
   4 -11  -8   26.38    1.26
   3 -11  -8    9.32    0.83
   2 -11  -8   67.53    2.03
  -2  11   8   67.79    1.94
   1 -11  -8    9.70    0.79
   0 -11  -8   28.40    1.23
  -1 -11  -8   69.22    2.02
  -1 -11  -8   66.73    2.11
   1  11   8   67.52    2.01
  -2 -11  -8   33.01    1.47
  -2 -11  -8   32.83    1.37
   2  11   8   32.52    1.39
  -3 -11  -8   21.09    1.09
  -3 -11  -8   20.18    1.18
   3  11   8   20.35    1.11
  -4 -11  -8   45.16    1.80
   4  11   8   46.00    1.66
  -5 -11  -8    0.85    0.41
   5  11   8    0.60    0.42
  -6 -11  -8   33.61    1.63
   6  11   8   34.94    1.54
  -7 -11  -8   29.73    1.58
   7  11   8   31.29    1.52
  -8 -11  -8    0.00    0.37
   8  11   8   -0.67    0.45
   9  11   8   23.51    1.68
   6 -12  -8    2.59    0.55
  -6  12   8    2.29    0.62
   5 -12  -8   22.07    1.23
  -5  12   8   24.22    1.36
   4 -12  -8    1.76    0.45
  -4  12   8    2.00    0.55
   3 -12  -8   19.28    1.10
  -3  12   8   20.80    1.16
   2 -12  -8   41.64    1.57
   1 -12  -8    0.90    0.36
   0 -12  -8   42.30    1.56
  -1 -12  -8   26.35    1.26
  -1 -12  -8   27.11    1.40
   1  12   8   28.47    1.31
  -2 -12  -8    0.42    0.37
  -2 -12  -8   -0.17    0.32
   2  12   8    0.65    0.41
  -3 -12  -8   23.97    1.21
  -3 -12  -8   26.19    1.42
   3  12   8   26.34    1.27
  -4 -12  -8   30.06    1.55
   4  12   8   28.17    1.36
  -5 -12  -8    2.93    0.60
   5  12   8    3.31    0.63
  -6 -12  -8   43.97    1.93
   6  12   8   40.37    1.73
  -7 -12  -8   11.39    1.12
   7  12   8   12.27    1.15
   5 -13  -8   22.48    1.26
  -5  13   8   23.44    1.37
   4 -13  -8    0.18    0.30
  -4  13   8   -0.10    0.47
   3 -13  -8   20.29    1.15
   2 -13  -8   27.09    1.31
   1 -13  -8    4.99    0.63
   0 -13  -8   46.33    1.72
   0  13   8   46.60    1.73
  -1 -13  -8   23.36    1.24
   1  13   8   22.34    1.26
  -2 -13  -8    1.30    0.46
  -2 -13  -8    2.14    0.55
   2  13   8    0.74    0.45
  -3 -13  -8   29.12    1.55
   3  13   8   30.85    1.47
  -4 -13  -8    3.78    0.69
   4  13   8    3.65    0.63
  -5 -13  -8    5.46    0.84
   5  13   8    4.34    0.71
  -6 -13  -8   33.52    1.77
   6  13   8   35.24    1.72
   3 -14  -8   23.68    1.29
   2 -14  -8   14.13    1.05
   1 -14  -8    9.02    0.89
  -1  14   8    6.42    0.74
   0 -14  -8   31.34    1.46
   0  14   8   28.40    1.42
  -1 -14  -8    2.96    0.58
   1  14   8    3.58    0.64
  -2 -14  -8   10.12    0.96
  -2 -14  -8   12.82    1.15
   2  14   8    7.70    0.82
  -3 -14  -8   26.92    1.58
   3  14   8   27.42    1.46
  -4 -14  -8    0.91    0.50
   4  14   8    0.80    0.53
   5  14   8   16.18    1.75
  -1  -7   9    5.72    0.85
   0   7  -9   41.05    2.42
   0  -7   9   43.17    1.93
  -1   7  -9    4.25    0.74
   1  -7   9    4.63    0.83
  -2   7  -9    8.15    0.90
   2  -7   9    8.21    1.02
  -3   7  -9   25.08    1.40
   3  -7   9   21.18    1.43
  -4   7  -9   -0.10    0.42
   4  -7   9   -0.83    0.41
  -5   7  -9   12.78    1.11
   5  -7   9   14.59    1.24
  -6   7  -9   30.14    1.80
   2   6  -9    9.49    0.95
   1   6  -9    8.52    0.92
  -1  -6   9    8.97    0.96
   0   6  -9   34.53    1.52
   0  -6   9   33.49    1.65
  -1   6  -9    0.66    0.43
   1  -6   9   -0.07    0.44
  -2   6  -9   35.54    1.56
   2  -6   9   37.85    1.70
  -3   6  -9   29.97    1.44
   3  -6   9   28.85    1.52
  -4   6  -9    1.29    0.51
   4  -6   9    1.37    0.51
  -5   6  -9   18.95    1.21
   5  -6   9   18.00    1.24
  -6   6  -9   16.25    1.16
   6  -6   9   16.58    1.22
  -7   6  -9    5.19    0.77
   7  -6   9    5.67    0.83
  -8   6  -9   25.04    1.43
   8  -6   9   26.35    1.48
  -9   6  -9    7.53    1.36
   4   5  -9   14.79    1.20
   3   5  -9   17.02    1.12
   2   5  -9    0.26    0.41
   1   5  -9   20.04    1.14
  -1  -5   9   18.49    1.23
   0   5  -9   10.59    0.90
   0  -5   9   10.10    1.01
  -1   5  -9    7.79    0.80
   1  -5   9    7.22    0.82
  -2   5  -9   48.50    1.74
   2  -5   9   46.69    1.78
  -3   5  -9   20.77    1.18
   3  -5   9   22.67    1.25
  -4   5  -9    1.13    0.46
   4  -5   9    1.18    0.47
  -5   5  -9   25.83    1.31
   5  -5   9   26.15    1.37
  -6   5  -9    0.45    0.41
   6  -5   9    0.24    0.40
  -7   5  -9   17.06    1.15
   7  -5   9   17.00    1.17
  -8   5  -9   34.63    1.58
   8  -5   9   34.00    1.59
  -9   5  -9    0.49    0.45
   9  -5   9    0.08    0.41
 -10   5  -9   21.66    1.39
  10  -5   9   19.99    1.37
   5   4  -9    1.26    0.51
   4   4  -9   13.50    1.02
   3   4  -9   14.80    1.02
   2   4  -9   11.04    0.90
   1   4  -9   64.75    1.99
  -1  -4   9   62.04    2.03
   0   4  -9   42.21    1.54
   0  -4   9   38.38    1.56
  -1   4  -9   17.09    1.02
   1  -4   9   15.85    1.07
  -2   4  -9   58.13    1.86
   2  -4   9   58.90    1.91
  -3   4  -9   11.67    0.89
   3  -4   9   12.31    0.96
  -4   4  -9   15.18    0.99
   4  -4   9   15.66    1.04
  -5   4  -9   65.27    2.04
   5  -4   9   67.57    2.11
  -6   4  -9   -0.19    0.33
   6  -4   9   -0.15    0.34
  -7   4  -9   42.90    1.66
   7  -4   9   45.42    1.74
  -8   4  -9   54.52    1.91
   8  -4   9   54.06    1.96
  -9   4  -9    4.76    0.70
   9  -4   9    4.17    0.68
 -10   4  -9    5.94    0.80
  10  -4   9    5.10    0.76
 -11   4  -9    9.69    1.00
  11  -4   9    8.18    0.95
   6   3  -9   15.70    1.17
   5   3  -9    1.81    0.51
   4   3  -9   24.29    1.24
   3   3  -9   12.13    0.92
   2   3  -9   10.19    0.85
   1   3  -9   38.58    1.45
  -1  -3   9   38.70    1.47
   0   3  -9    3.08    0.51
  -1   3  -9   22.98    1.09
   1  -3   9   22.00    1.11
  -2   3  -9   89.71    2.34
   2  -3   9   87.51    2.34
  -3   3  -9    8.36    0.75
   3  -3   9    7.46    0.73
  -4   3  -9   44.66    1.55
   4  -3   9   45.93    1.61
  -5   3  -9   31.00    1.29
   5  -3   9   30.39    1.33
  -6   3  -9    2.02    0.47
   6  -3   9    1.02    0.42
  -7   3  -9   37.31    1.45
   7  -3   9   34.89    1.49
  -8   3  -9   20.26    1.12
   8  -3   9   21.17    1.19
  -9   3  -9    7.83    0.82
   9  -3   9    9.71    0.92
 -10   3  -9   47.30    1.77
  10  -3   9   46.21    1.81
 -11   3  -9   12.97    1.48
  11  -3   9   13.41    1.09
  12  -3   9    3.80    0.80
   6   2  -9    4.25    0.66
   5   2  -9   11.44    0.96
   4   2  -9   34.57    1.44
   3   2  -9    1.12    0.41
   2   2  -9   28.84    1.23
   1   2  -9   53.81    1.70
  -1  -2   9   56.55    1.69
   0   2  -9   -0.25    0.26
   0  -2   9    0.07    0.29
  -1   2  -9   52.14    1.63
   1  -2   9   52.89    1.62
  -2   2  -9   82.74    2.13
   2  -2   9   79.15    2.13
  -3   2  -9    0.28    0.29
   3  -2   9    0.27    0.30
  -4   2  -9   24.35    1.07
   4  -2   9   24.53    1.12
  -5   2  -9   59.81    1.75
   5  -2   9   57.12    1.81
  -6   2  -9   13.61    0.85
   6  -2   9   12.10    0.89
  -7   2  -9   22.86    1.08
   7  -2   9   21.49    1.13
  -8   2  -9   20.16    1.05
   8  -2   9   20.40    1.12
  -9   2  -9    9.21    0.80
   9  -2   9    8.35    0.84
 -10   2  -9   32.82    1.39
  10  -2   9   33.03    1.49
  11  -2   9    1.84    0.52
  12  -2   9    8.93    0.96
   7   1  -9   27.83    1.46
   6   1  -9    3.34    0.63
   5   1  -9   12.70    0.96
   4   1  -9   28.60    1.28
   3   1  -9   -0.10    0.29
   2   1  -9   42.32    1.46
   1   1  -9   26.53    1.11
  -1  -1   9   24.54    1.01
   0   1  -9    3.86    0.51
   0  -1   9    2.79    0.44
  -1   1  -9   62.01    1.75
   1  -1   9   65.05    1.75
  -2   1  -9   62.23    1.71
   2  -1   9   60.01    1.71
  -3   1  -9   33.88    1.19
   3  -1   9   31.96    1.22
  -4   1  -9   43.80    1.37
   4  -1   9   41.77    1.43
  -5   1  -9   26.34    1.05
   5  -1   9   28.42    1.17
  -6   1  -9   16.96    0.87
   6  -1   9   15.88    0.93
  -7   1  -9   59.78    1.70
   7  -1   9   54.83    1.80
  -8   1  -9    2.29    0.43
   8  -1   9    1.25    0.40
  -9   1  -9   41.63    1.44
   9  -1   9   41.68    1.60
  10  -1   9   20.67    1.17
  11  -1   9   -0.18    0.31
  12  -1   9   27.77    1.42
  13  -1   9   14.33    1.28
   8   0  -9   13.49    1.54
   7   0  -9   16.66    1.17
   7   0  -9   16.91    1.15
   6   0  -9    2.22    0.47
   6   0  -9    2.17    0.55
   5   0  -9   23.20    1.15
   5   0  -9   23.79    1.22
   4   0  -9   23.32    1.08
   4   0  -9   22.15    1.12
   3   0  -9   13.11    0.80
   3   0  -9   13.97    0.89
   2   0  -9   69.82    1.93
   2   0  -9   69.25    1.82
   1   0  -9    8.62    0.67
   1   0  -9    9.40    0.58
  -1   0   9    8.50    0.70
   0   0  -9   30.61    1.13
   0   0   9   29.66    1.05
  -1   0  -9   91.78    2.21
   1   0   9   93.67    2.17
  -2   0  -9    5.49    0.53
   2   0   9    5.52    0.55
  -3   0  -9    2.86    0.41
   3   0   9    2.14    0.37
  -4   0  -9  126.05    2.75
   4   0   9  128.42    2.89
  -5   0  -9    5.10    0.51
   5   0   9    4.58    0.54
  -6   0  -9   55.80    1.56
   6   0   9   57.28    1.72
  -7   0  -9  111.63    2.50
  -7   0  -9  108.44    2.64
  -8   0  -9    5.18    0.59
  -8   0  -9    4.64    0.50
  -9   0  -9   21.19    1.08
 -10   0  -9   28.33    1.29
 -11   0  -9    2.42    0.54
 -12   0  -9   40.62    1.64
 -13   0  -9   17.81    1.18
   8  -1  -9   25.86    1.44
   7  -1  -9   26.13    1.37
   6  -1  -9   -0.11    0.37
   6  -1  -9    0.36    0.33
   5  -1  -9   30.91    1.32
   5  -1  -9   30.21    1.35
   4  -1  -9   13.42    0.86
   4  -1  -9   14.90    0.94
   3  -1  -9   50.70    1.57
   3  -1  -9   50.54    1.61
   2  -1  -9  100.46    2.36
   2  -1  -9  101.97    2.46
   1  -1  -9   12.09    0.74
   1  -1  -9   10.97    0.64
   0  -1  -9   52.45    1.39
   0  -1  -9   52.42    1.50
   0   1   9   50.45    1.37
  -1  -1  -9   84.01    2.02
  -1  -1  -9   82.68    1.88
   1   1   9   84.93    1.97
  -2  -1  -9    9.78    0.52
  -2  -1  -9    8.96    0.59
   2   1   9    9.58    0.60
  -3  -1  -9   20.77    0.73
  -3  -1  -9   21.05    0.84
   3   1   9   20.70    0.89
  -4  -1  -9   39.11    1.09
  -4  -1  -9   39.38    1.18
   4   1   9   40.38    1.29
   4   1   9   38.08    1.04
  -5  -1  -9    4.68    0.49
  -5  -1  -9    5.53    0.47
   5   1   9    5.07    0.42
  -6  -1  -9   76.77    2.01
  -6  -1  -9   78.49    1.86
  -7  -1  -9   45.43    1.48
  -7  -1  -9   44.22    1.28
  -8  -1  -9    0.94    0.36
  -9  -1  -9    8.48    0.79
 -10  -1  -9   17.44    1.03
 -11  -1  -9    9.59    0.92
 -12  -1  -9   27.37    1.36
 -13  -1  -9    0.42    0.45
   8  -2  -9   18.83    1.22
   7  -2  -9    3.38    0.59
   6  -2  -9   13.52    0.95
   5  -2  -9   36.08    1.46
   5  -2  -9   37.62    1.45
   4  -2  -9   13.19    0.85
   4  -2  -9   11.46    0.87
   3  -2  -9   39.51    1.36
   3  -2  -9   38.70    1.39
   2  -2  -9   18.13    0.83
   2  -2  -9   16.32    0.86
   1  -2  -9   39.53    1.28
   1  -2  -9   37.26    1.20
   0  -2  -9  218.20    4.17
   0  -2  -9  214.15    4.23
   0   2   9  219.69    4.08
  -1  -2  -9   76.39    1.87
  -1  -2  -9   78.66    1.84
   1   2   9   80.93    1.84
  -2  -2  -9   21.88    0.80
  -2  -2  -9   22.18    0.85
   2   2   9   21.76    0.85
  -3  -2  -9  110.86    2.32
  -3  -2  -9  111.53    2.43
  -3  -2  -9  111.02    2.37
  -4  -2  -9   55.61    1.43
  -4  -2  -9   59.07    1.43
  -4  -2  -9   58.43    1.57
   4   2   9   56.14    1.41
  -5  -2  -9   32.18    1.14
  -5  -2  -9   31.44    0.97
   5   2   9   30.95    0.97
  -6  -2  -9   67.54    1.82
  -6  -2  -9   65.48    1.58
   6   2   9   66.97    1.62
  -7  -2  -9    8.21    0.66
   7   2   9    7.12    0.55
  -8  -2  -9   21.78    1.08
   8   2   9   22.49    0.93
  -9  -2  -9   85.87    2.36
   9   2   9   88.04    2.17
 -10  -2  -9   16.46    1.02
  10   2   9   16.17    1.13
 -11  -2  -9   20.47    1.20
 -12  -2  -9   23.15    1.28
 -13  -2  -9   -0.15    0.38
   8  -3  -9   31.23    1.53
   7  -3  -9    0.80    0.41
   6  -3  -9   32.97    1.42
   5  -3  -9   60.73    1.90
   4  -3  -9    0.31    0.28
   4  -3  -9    0.07    0.34
   3  -3  -9   78.62    2.06
   3  -3  -9   77.84    2.10
   2  -3  -9   62.62    1.72
   2  -3  -9   61.72    1.75
   1  -3  -9   14.96    0.73
   1  -3  -9   13.89    0.77
   0  -3  -9   85.40    2.04
   0  -3  -9   86.27    2.03
   0   3   9   85.10    1.87
  -1  -3  -9   42.51    1.22
  -1  -3  -9   39.95    1.20
  -2  -3  -9    2.12    0.30
  -2  -3  -9    1.95    0.32
  -2  -3  -9    2.07    0.31
  -3  -3  -9   69.59    1.68
  -3  -3  -9   70.27    1.65
  -3  -3  -9   70.88    1.74
  -4  -3  -9   27.83    1.00
  -4  -3  -9   25.95    0.85
  -4  -3  -9   26.47    0.92
   4   3   9   27.66    0.93
  -5  -3  -9   43.63    1.37
  -5  -3  -9   43.71    1.15
  -5  -3  -9   45.49    1.26
   5   3   9   44.33    1.25
  -6  -3  -9   61.42    1.75
   6   3   9   62.06    1.60
  -7  -3  -9    0.54    0.28
   7   3   9    0.90    0.28
  -8  -3  -9    7.84    0.74
   8   3   9    8.62    0.68
  -9  -3  -9   42.60    1.55
   9   3   9   41.29    1.42
 -10  -3  -9    1.82    0.43
  10   3   9    0.56    0.38
 -11  -3  -9   28.81    1.39
  11   3   9   28.13    1.33
 -12  -3  -9    5.67    0.71
  12   3   9    5.79    0.73
 -13  -3  -9    3.27    0.63
  13   3   9    2.67    0.77
   8  -4  -9   32.11    1.55
   7  -4  -9   -0.26    0.29
   6  -4  -9   21.03    1.16
   5  -4  -9   40.55    1.52
   4  -4  -9    3.65    0.51
   3  -4  -9   63.55    1.82
   3  -4  -9   64.68    1.86
   2  -4  -9   20.99    0.97
   2  -4  -9   20.74    0.93
   1  -4  -9   46.18    1.39
   1  -4  -9   44.98    1.39
   0  -4  -9   86.74    2.06
   0  -4  -9   86.50    2.04
  -1  -4  -9   30.89    1.04
  -1  -4  -9   30.43    0.93
  -1  -4  -9   30.60    0.99
  -2  -4  -9   62.06    1.58
  -2  -4  -9   60.28    1.52
  -2  -4  -9   59.60    1.49
  -3  -4  -9   82.71    1.82
  -3  -4  -9   82.10    1.93
  -3  -4  -9   82.27    1.95
  -4  -4  -9   -0.11    0.18
  -4  -4  -9   -0.04    0.19
  -4  -4  -9   -0.10    0.14
   4   4   9   -0.14    0.18
  -5  -4  -9   82.17    1.97
  -5  -4  -9   83.11    2.08
   5   4   9   86.01    2.00
  -6  -4  -9   52.08    1.58
   6   4   9   50.88    1.47
  -7  -4  -9    0.03    0.23
   7   4   9   -0.17    0.23
  -8  -4  -9   63.45    1.93
   8   4   9   62.05    1.76
  -9  -4  -9   26.70    1.24
   9   4   9   25.51    1.17
 -10  -4  -9   10.22    0.86
  10   4   9   10.08    0.90
 -11  -4  -9   41.82    1.68
  11   4   9   41.80    1.65
 -12  -4  -9   10.66    0.96
  12   4   9    7.71    0.84
 -13  -4  -9    1.82    0.53
  13   4   9    1.38    0.57
   8  -5  -9    7.32    0.84
   7  -5  -9    4.40    0.66
   6  -5  -9   30.97    1.37
   5  -5  -9    9.49    0.80
   4  -5  -9   26.68    1.19
   3  -5  -9   54.21    1.66
   2  -5  -9   11.58    0.73
   1  -5  -9   54.75    1.56
   1  -5  -9   52.23    1.53
   0  -5  -9   60.54    1.65
   0  -5  -9   60.23    1.59
  -1  -5  -9    6.47    0.45
  -1  -5  -9    6.77    0.55
  -1  -5  -9    6.95    0.51
  -2  -5  -9   92.69    2.16
  -2  -5  -9   92.70    2.02
  -2  -5  -9   91.55    2.06
  -3  -5  -9   47.31    1.35
  -3  -5  -9   46.55    1.19
  -3  -5  -9   47.86    1.37
  -4  -5  -9    0.30    0.23
  -4  -5  -9    0.37    0.21
   4   5   9   -0.09    0.20
  -5  -5  -9   65.45    1.73
  -5  -5  -9   66.85    1.83
   5   5   9   68.10    1.76
  -6  -5  -9   24.78    1.08
   6   5   9   26.89    1.04
  -7  -5  -9    4.36    0.53
   7   5   9    5.30    0.56
  -8  -5  -9  108.75    2.78
   8   5   9  107.51    2.62
  -9  -5  -9   16.46    1.02
   9   5   9   16.22    0.99
 -10  -5  -9   13.11    0.96
  10   5   9   12.36    0.98
 -11  -5  -9   18.85    1.20
  11   5   9   19.19    1.25
 -12  -5  -9    0.38    0.41
  12   5   9   -0.32    0.46
 -13  -5  -9   22.76    2.06
  13   5   9   23.08    1.49
   8  -6  -9    5.16    0.70
   7  -6  -9    9.16    0.87
   6  -6  -9   37.01    1.51
   5  -6  -9    0.13    0.29
   4  -6  -9   42.02    1.50
   3  -6  -9   39.12    1.38
   2  -6  -9   -0.03    0.21
   1  -6  -9   74.59    1.95
   0  -6  -9  101.14    2.39
  -1  -6  -9    7.79    0.50
  -1  -6  -9    7.48    0.59
  -2  -6  -9   92.67    2.20
  -2  -6  -9   89.31    2.08
  -3  -6  -9   10.32    0.66
  -3  -6  -9   10.87    0.65
  -3  -6  -9   10.57    0.69
  -4  -6  -9   22.75    0.95
  -4  -6  -9   22.67    0.95
   4   6   9   19.93    0.92
  -5  -6  -9   73.87    1.93
  -5  -6  -9   72.34    2.00
   5   6   9   78.16    1.97
  -6  -6  -9   57.53    1.77
   6   6   9   57.68    1.68
  -7  -6  -9   44.16    1.57
   7   6   9   42.67    1.46
  -8  -6  -9   73.75    2.25
   8   6   9   79.85    2.18
  -9  -6  -9    6.16    0.72
   9   6   9    5.89    0.66
 -10  -6  -9   17.37    1.14
  10   6   9   15.96    1.09
 -11  -6  -9   17.12    1.17
  11   6   9   16.66    1.19
 -12  -6  -9    0.26    0.39
  12   6   9    0.47    0.52
   8  -7  -9    0.34    0.59
   7  -7  -9   24.45    1.29
   6  -7  -9   29.67    1.37
   5  -7  -9    0.98    0.37
   4  -7  -9   55.63    1.79
   3  -7  -9   38.00    1.39
   2  -7  -9    5.75    0.60
   1  -7  -9   80.83    2.11
   0  -7  -9   69.26    1.87
  -1  -7  -9    6.13    0.48
  -1  -7  -9    5.96    0.57
  -2  -7  -9  106.18    2.49
  -2  -7  -9  104.66    2.38
  -3  -7  -9   15.82    0.82
  -3  -7  -9   15.60    0.80
  -4  -7  -9   18.74    0.91
  -4  -7  -9   18.16    0.90
   4   7   9   17.73    0.90
  -5  -7  -9   29.67    1.16
  -5  -7  -9   32.13    1.26
   5   7   9   31.78    1.20
  -6  -7  -9   21.44    1.08
   6   7   9   21.60    1.03
  -7  -7  -9   85.32    2.42
   7   7   9   86.53    2.30
  -8  -7  -9   46.76    1.74
   8   7   9   47.35    1.66
  -9  -7  -9    0.21    0.31
   9   7   9   -0.24    0.35
 -10  -7  -9   31.07    1.50
  10   7   9   31.66    1.49
 -11  -7  -9   14.53    1.15
  11   7   9   14.75    1.23
 -12  -7  -9   -0.33    0.36
  12   7   9   -0.67    0.48
   7  -8  -9   36.99    1.62
   6  -8  -9   21.62    1.20
   5  -8  -9    0.71    0.34
   4  -8  -9   27.91    1.25
   3  -8  -9    4.21    0.57
   2  -8  -9   11.67    0.80
   1  -8  -9   83.13    2.18
   0  -8  -9   21.04    0.97
  -1  -8  -9    2.35    0.36
  -1  -8  -9    2.18    0.39
  -2  -8  -9   11.82    0.73
  -2  -8  -9   12.69    0.77
  -3  -8  -9    2.22    0.40
  -3  -8  -9    2.77    0.44
   3   8   9    2.25    0.40
  -4  -8  -9   27.91    1.18
  -4  -8  -9   28.27    1.14
   4   8   9   27.51    1.15
  -5  -8  -9   75.31    2.18
  -5  -8  -9   73.60    2.02
   5   8   9   74.45    2.06
  -6  -8  -9    2.05    0.47
   6   8   9    1.56    0.42
  -7  -8  -9   20.42    1.18
   7   8   9   23.32    1.19
  -8  -8  -9   20.50    1.21
   8   8   9   19.84    1.16
  -9  -8  -9    9.06    0.89
   9   8   9    6.78    0.75
 -10  -8  -9   35.09    1.64
  10   8   9   35.99    1.63
 -11  -8  -9    6.62    0.85
  11   8   9    5.79    0.82
   7  -9  -9   36.08    1.60
   6  -9  -9   11.94    0.95
   5  -9  -9   14.23    0.98
   4  -9  -9   31.81    1.35
   3  -9  -9    0.10    0.28
   2  -9  -9   53.06    1.71
   1  -9  -9   37.28    1.36
   0  -9  -9    1.66    0.39
  -1  -9  -9   72.84    2.00
  -1  -9  -9   68.71    2.48
  -2  -9  -9   46.30    1.53
  -2  -9  -9   45.95    1.53
  -3  -9  -9    3.09    0.48
  -3  -9  -9    3.51    0.50
   3   9   9    3.23    0.51
  -4  -9  -9   38.26    1.40
  -4  -9  -9   39.13    1.51
   4   9   9   39.91    1.44
  -5  -9  -9   27.25    1.31
   5   9   9   26.51    1.21
  -6  -9  -9   18.63    1.12
   6   9   9   17.71    1.05
  -7  -9  -9   51.07    1.93
   7   9   9   53.51    1.83
  -8  -9  -9   18.16    1.20
   8   9   9   16.10    1.15
  -9  -9  -9   18.38    1.22
   9   9   9   15.16    1.16
 -10  -9  -9   32.36    1.65
  10   9   9   32.52    1.64
   7 -10  -9   27.49    1.82
   6 -10  -9    0.61    0.38
   5 -10  -9   23.46    1.24
   4 -10  -9   22.59    1.18
   3 -10  -9    0.40    0.32
   2 -10  -9   49.40    1.67
   1 -10  -9   32.89    1.32
   0 -10  -9    0.09    0.25
  -1 -10  -9   22.67    1.08
  -2 -10  -9    3.00    0.51
  -2 -10  -9    2.26    0.41
   2  10   9    1.94    0.45
  -3 -10  -9    5.36    0.62
  -3 -10  -9    5.16    0.65
   3  10   9    5.42    0.64
  -4 -10  -9  109.25    2.77
  -4 -10  -9  113.60    2.99
   4  10   9  110.68    2.79
  -5 -10  -9    0.91    0.41
   5  10   9   -0.78    0.33
  -6 -10  -9   13.77    1.06
   6  10   9   12.04    0.97
  -7 -10  -9   66.72    2.29
   7  10   9   61.91    2.09
  -8 -10  -9    6.49    0.82
   8  10   9    7.48    0.81
  -9 -10  -9   16.57    1.24
   9  10   9   17.04    1.25
   6 -11  -9    3.01    0.58
   5 -11  -9   38.88    1.63
   4 -11  -9   20.36    1.17
   3 -11  -9    5.34    0.64
   2 -11  -9   47.61    1.68
   1 -11  -9   30.67    1.32
   0 -11  -9   10.92    0.85
  -1 -11  -9   47.89    1.66
  -2 -11  -9    8.03    0.79
  -2 -11  -9    5.39    0.64
   2  11   9    5.71    0.65
  -3 -11  -9    6.17    0.68
  -3 -11  -9    8.72    0.88
   3  11   9    7.10    0.71
  -4 -11  -9   26.75    1.26
  -4 -11  -9   28.95    1.45
   4  11   9   28.10    1.31
  -5 -11  -9    0.64    0.40
   5  11   9    0.27    0.40
  -6 -11  -9   21.74    1.34
   6  11   9   21.48    1.25
  -7 -11  -9   33.71    1.70
   7  11   9   36.34    1.62
  -8 -11  -9    0.61    0.44
   8  11   9   -0.20    0.49
   5 -12  -9   19.50    1.21
  -5  12   9   16.95    1.22
   4 -12  -9    6.64    0.75
  -4  12   9    6.68    0.77
   3 -12  -9    9.01    0.88
  -3  12   9   11.92    0.95
   2 -12  -9   49.23    1.76
   1 -12  -9    6.48    0.71
   0 -12  -9   17.61    1.06
  -1 -12  -9   26.17    1.27
   1  12   9   25.58    1.28
  -2 -12  -9    1.63    0.46
  -2 -12  -9    1.75    0.49
   2  12   9    2.11    0.51
  -3 -12  -9   35.12    1.61
  -3 -12  -9   33.08    1.43
   3  12   9   32.15    1.43
  -4 -12  -9    6.69    0.83
   4  12   9    5.29    0.69
  -5 -12  -9    2.41    0.60
   5  12   9    2.82    0.59
  -6 -12  -9   39.25    1.84
   6  12   9   37.48    1.67
  -7 -12  -9   17.75    1.33
   7  12   9   17.78    1.28
   4 -13  -9    0.53    0.34
  -4  13   9   -0.02    0.49
   3 -13  -9    9.93    0.91
   2 -13  -9   28.52    1.37
   1 -13  -9    1.04    0.40
   0 -13  -9   22.87    1.25
  -1 -13  -9   15.71    1.07
   1  13   9   15.27    1.05
  -2 -13  -9    0.81    0.43
   2  13   9    1.63    0.51
  -3 -13  -9   17.16    1.24
  -3 -13  -9   15.30    1.05
   3  13   9   14.91    1.08
  -4 -13  -9    5.69    0.81
   4  13   9    5.54    0.73
  -5 -13  -9    7.63    0.96
   5  13   9    9.12    0.93
  -6 -13  -9   48.81    2.13
   6  13   9   48.34    2.01
   3 -14  -9   20.60    1.34
   2 -14  -9   15.70    1.13
   1 -14  -9    0.32    0.35
   0 -14  -9   30.48    1.48
   0  14   9   30.09    1.47
  -1 -14  -9   17.72    1.19
   1  14   9   18.28    1.23
  -2 -14  -9    3.62    0.62
   2  14   9    3.37    0.65
  -3 -14  -9   19.89    1.36
   3  14   9   19.05    1.29
  -4 -14  -9    2.44    0.66
   4  14   9    2.49    0.64
   0  -6  10   28.92    1.63
  -1   6 -10    2.56    0.95
   1  -6  10    1.97    0.65
  -2   6 -10   15.67    1.16
   2  -6  10   14.82    1.25
  -3   6 -10   22.60    1.33
   3  -6  10   21.22    1.39
  -4   6 -10    0.33    0.46
   4  -6  10   -0.18    0.45
  -5   6 -10   26.46    1.47
   5  -6  10   27.60    1.54
  -6   6 -10   37.45    1.94
   6  -6  10   41.90    2.44
   1   5 -10   13.31    1.06
   0   5 -10   36.08    1.55
   0  -5  10   32.07    1.58
  -1   5 -10    1.44    0.49
   1  -5  10    0.33    0.47
  -2   5 -10   15.55    1.09
   2  -5  10   12.64    1.10
  -3   5 -10   21.68    1.24
   3  -5  10   20.35    1.27
  -4   5 -10    2.78    0.60
   4  -5  10    1.63    0.54
  -5   5 -10   33.33    1.54
   5  -5  10   32.66    1.56
  -6   5 -10   16.22    1.18
   6  -5  10   16.65    1.21
  -7   5 -10    5.39    0.78
   7  -5  10    4.52    0.74
  -8   5 -10   30.07    1.53
   8  -5  10   29.30    1.57
  -9   5 -10    2.47    0.62
   3   4 -10   14.19    1.07
   2   4 -10    0.44    0.41
   1   4 -10   20.00    1.16
   0   4 -10   12.89    0.98
   0  -4  10   13.27    1.06
  -1   4 -10    3.90    0.62
   1  -4  10    4.25    0.68
  -2   4 -10   41.03    1.59
   2  -4  10   38.34    1.61
  -3   4 -10   18.52    1.11
   3  -4  10   18.78    1.17
  -4   4 -10    9.58    0.90
   4  -4  10    9.76    0.94
  -5   4 -10   31.18    1.42
   5  -4  10   32.79    1.52
  -6   4 -10    2.92    0.59
   6  -4  10    2.02    0.54
  -7   4 -10   27.07    1.39
   7  -4  10   27.64    1.43
  -8   4 -10   59.36    2.05
   8  -4  10   57.65    2.11
  -9   4 -10    8.85    0.95
   9  -4  10    8.88    0.96
 -10   4 -10   11.94    1.06
 -11   4 -10   16.93    1.27
   4   3 -10   23.07    1.29
   3   3 -10    7.65    0.83
   2   3 -10    6.77    0.76
   1   3 -10   39.85    1.56
   0   3 -10   18.15    1.06
   0  -3  10   16.69    1.07
  -1   3 -10   16.73    1.03
   1  -3  10   15.12    1.00
  -2   3 -10   45.24    1.62
   2  -3  10   45.92    1.67
  -3   3 -10    8.51    0.81
   3  -3  10    5.96    0.70
  -4   3 -10   25.26    1.21
   4  -3  10   26.82    1.29
  -5   3 -10   40.34    1.55
   5  -3  10   41.19    1.62
  -6   3 -10   -0.10    0.33
   6  -3  10   -0.06    0.36
  -7   3 -10   30.11    1.38
   7  -3  10   30.44    1.45
  -8   3 -10   27.90    1.32
   8  -3  10   25.27    1.36
  -9   3 -10    0.55    0.43
   9  -3  10    0.60    0.43
 -10   3 -10   25.97    1.37
  10  -3  10   25.44    1.41
  11  -3  10    9.38    1.56
   5   2 -10    6.26    0.77
   4   2 -10   24.08    1.27
   3   2 -10    7.60    0.78
   2   2 -10   17.46    1.05
   1   2 -10   34.12    1.38
   0   2 -10    1.18    0.40
   0  -2  10    0.88    0.38
  -1   2 -10   36.71    1.41
   1  -2  10   38.55    1.42
  -2   2 -10   95.02    2.47
   2  -2  10   98.42    2.51
  -3   2 -10    2.25    0.46
   3  -2  10    2.22    0.48
  -4   2 -10   22.43    1.07
   4  -2  10   20.65    1.10
  -5   2 -10   26.53    1.18
   5  -2  10   25.21    1.24
  -6   2 -10    0.07    0.31
   6  -2  10   -0.19    0.32
  -7   2 -10   59.22    1.87
   7  -2  10   59.58    1.98
  -8   2 -10   29.99    1.31
   8  -2  10   28.68    1.40
  -9   2 -10    5.74    0.71
 -10   2 -10   20.38    1.58
  10  -2  10   19.32    1.21
  11  -2  10    3.45    0.66
   6   1 -10    6.72    1.16
   5   1 -10   13.99    1.05
   4   1 -10   27.76    1.32
   3   1 -10    1.25    0.45
   2   1 -10   27.86    1.24
   1   1 -10   72.88    2.07
   0   1 -10    0.47    0.33
   0  -1  10    0.53    0.32
  -1   1 -10   43.24    1.50
   1  -1  10   46.64    1.50
  -2   1 -10   35.48    1.30
   2  -1  10   35.01    1.30
  -3   1 -10    1.61    0.39
   3  -1  10    1.30    0.39
  -4   1 -10   24.17    1.07
   4  -1  10   23.58    1.13
  -5   1 -10   28.97    1.16
   5  -1  10   26.92    1.23
  -6   1 -10   21.52    1.01
   6  -1  10   21.68    1.13
  -7   1 -10   55.77    1.72
   7  -1  10   55.90    1.86
  -8   1 -10   12.55    0.84
   8  -1  10   11.43    0.92
  -9   1 -10    5.25    0.64
   9  -1  10    4.71    0.68
  10  -1  10    9.14    0.91
  11  -1  10   -0.04    0.31
  12  -1  10   26.67    1.46
   6   0 -10   -0.34    0.40
   5   0 -10   18.55    1.16
   4   0 -10   21.70    1.16
   3   0 -10    0.19    0.34
   2   0 -10   48.68    1.63
   1   0 -10   26.00    1.15
   0   0 -10    6.14    0.63
   0   0  10    6.46    0.59
  -1   0 -10   82.10    2.12
   1   0  10   81.22    2.06
  -2   0 -10    9.55    0.70
   2   0  10    9.95    0.71
  -3   0 -10   40.46    1.33
   3   0  10   39.94    1.38
  -4   0 -10   30.14    1.13
   4   0  10   30.87    1.22
  -5   0 -10   21.52    0.96
   5   0  10   21.01    1.04
  -6   0 -10   50.49    1.52
   6   0  10   50.74    1.69
  -7   0 -10   40.74    1.36
   7   0  10   42.18    1.56
  -8   0 -10    5.03    0.56
   8   0  10    6.35    0.72
 -11   0 -10   -0.71    0.35
   7  -1 -10   12.57    1.04
   6  -1 -10    6.00    0.75
   6  -1 -10    6.18    0.78
   5  -1 -10   33.62    1.47
   5  -1 -10   35.59    1.47
   4  -1 -10    7.54    0.74
   4  -1 -10    8.54    0.82
   3  -1 -10    6.84    0.66
   3  -1 -10    6.82    0.72
   2  -1 -10  120.85    2.76
   2  -1 -10  116.65    2.83
   1  -1 -10   32.42    1.25
   1  -1 -10   33.78    1.16
   0  -1 -10   37.31    1.30
   0  -1 -10   36.71    1.25
   0   1  10   35.12    1.36
  -1  -1 -10   85.29    2.14
   1   1  10   87.54    2.09
  -2  -1 -10    3.92    0.47
   2   1  10    3.92    0.46
  -3  -1 -10   16.67    0.84
   3   1  10   20.28    0.93
  -4  -1 -10  117.39    2.61
   4   1  10  119.83    2.78
  -5  -1 -10   -0.06    0.21
   5   1  10    0.16    0.27
  -6  -1 -10   64.60    1.86
  -6  -1 -10   65.89    1.72
  -7  -1 -10   48.73    1.42
  -7  -1 -10   47.80    1.58
  -8  -1 -10    0.40    0.32
  -9  -1 -10   40.42    1.54
 -10  -1 -10    6.52    0.72
 -11  -1 -10    7.12    0.79
 -12  -1 -10   38.30    1.65
   7  -2 -10   27.91    1.45
   6  -2 -10    2.55    0.54
   5  -2 -10   16.43    1.08
   5  -2 -10   18.38    1.08
   4  -2 -10    7.80    0.75
   4  -2 -10    6.88    0.74
   3  -2 -10   36.84    1.43
   3  -2 -10   37.42    1.37
   2  -2 -10   54.17    1.64
   2  -2 -10   58.65    1.74
   1  -2 -10   10.36    0.75
   1  -2 -10   10.21    0.67
   0  -2 -10  112.06    2.59
   0  -2 -10  112.01    2.51
  -1  -2 -10  111.42    2.56
  -1  -2 -10  114.33    2.50
   1   2  10  116.29    2.51
  -2  -2 -10    2.17    0.36
  -2  -2 -10    2.47    0.34
   2   2  10    2.50    0.39
  -3  -2 -10   38.73    1.21
  -3  -2 -10   38.28    1.14
   3   2  10   38.81    1.27
  -4  -2 -10   44.30    1.37
  -4  -2 -10   46.37    1.26
  -4  -2 -10   44.48    1.30
   4   2  10   43.97    1.24
  -5  -2 -10    8.83    0.58
  -5  -2 -10    7.49    0.65
  -5  -2 -10    7.92    0.57
   5   2  10    8.13    0.55
  -6  -2 -10   69.79    1.74
  -6  -2 -10   72.35    1.97
   6   2  10   73.80    1.89
  -7  -2 -10   18.22    0.96
  -8  -2 -10   12.14    0.88
  -9  -2 -10   32.51    1.38
 -10  -2 -10    4.66    0.62
 -11  -2 -10   24.66    1.34
 -12  -2 -10   18.95    1.22
 -13  -2 -10    1.86    0.69
   7  -3 -10    4.53    0.67
   6  -3 -10   14.78    1.04
   5  -3 -10   24.34    1.23
   4  -3 -10    1.35    0.38
   4  -3 -10    1.95    0.48
   3  -3 -10   59.24    1.78
   3  -3 -10   54.52    1.77
   2  -3 -10   71.85    1.96
   2  -3 -10   72.50    2.01
   1  -3 -10    1.94    0.35
   1  -3 -10    2.52    0.43
   0  -3 -10   74.71    1.96
   0  -3 -10   78.57    1.95
  -1  -3 -10   53.46    1.49
  -1  -3 -10   52.27    1.49
   1   3  10   53.32    1.44
  -2  -3 -10    7.86    0.58
  -2  -3 -10    8.05    0.59
  -3  -3 -10  124.63    2.72
  -3  -3 -10  126.96    2.68
  -3  -3 -10  125.75    2.66
  -4  -3 -10   21.86    0.93
  -4  -3 -10   22.15    0.83
  -4  -3 -10   20.69    0.85
   4   3  10   20.61    0.85
  -5  -3 -10   34.33    1.09
  -5  -3 -10   31.85    1.01
  -5  -3 -10   31.27    1.17
   5   3  10   31.85    1.06
  -6  -3 -10   32.66    1.24
   6   3  10   33.15    1.11
  -7  -3 -10   12.23    0.81
   7   3  10   11.68    0.71
  -8  -3 -10   19.83    1.09
   8   3  10   23.23    0.99
  -9  -3 -10   35.97    1.47
   9   3  10   38.13    1.37
 -10  -3 -10    2.03    0.48
  10   3  10    1.94    0.47
 -11  -3 -10   61.21    2.11
 -12  -3 -10   16.29    1.16
   7  -4 -10    0.00    0.33
   6  -4 -10   34.80    1.52
   5  -4 -10   29.26    1.34
   4  -4 -10    2.54    0.48
   3  -4 -10   49.75    1.61
   3  -4 -10   47.58    1.63
   2  -4 -10   24.23    1.09
   2  -4 -10   23.41    1.03
   1  -4 -10   14.30    0.84
   1  -4 -10   15.33    0.83
   0  -4 -10   90.21    2.18
   0  -4 -10   86.62    2.14
  -1  -4 -10   50.90    1.34
  -1  -4 -10   50.30    1.48
  -1  -4 -10   51.62    1.44
  -2  -4 -10   13.30    0.73
  -2  -4 -10   13.62    0.69
  -2  -4 -10   13.21    0.68
  -3  -4 -10   71.76    1.80
  -3  -4 -10   71.19    1.71
  -3  -4 -10   70.85    1.81
  -4  -4 -10    4.78    0.43
  -4  -4 -10    4.96    0.50
  -4  -4 -10    4.68    0.48
   4   4  10    4.35    0.45
  -5  -4 -10   70.44    1.92
  -5  -4 -10   71.23    1.81
   5   4  10   73.31    1.84
  -6  -4 -10   53.03    1.65
   6   4  10   54.29    1.55
  -7  -4 -10    2.03    0.42
   7   4  10    2.19    0.40
  -8  -4 -10   19.70    1.10
   8   4  10   19.01    0.97
  -9  -4 -10   24.26    1.22
   9   4  10   24.43    1.14
 -10  -4 -10   13.28    0.99
  10   4  10   12.70    0.95
 -11  -4 -10   86.71    2.59
  11   4  10   83.98    2.42
 -12  -4 -10   17.29    1.20
  12   4  10   15.20    1.21
  13   4  10    5.62    0.90
   7  -5 -10    0.37    0.37
   6  -5 -10   30.84    1.43
   5  -5 -10   18.01    1.06
   4  -5 -10    9.27    0.81
   3  -5 -10   70.73    2.04
   2  -5 -10    4.44    0.57
   2  -5 -10    3.73    0.49
   1  -5 -10   29.24    1.15
   1  -5 -10   30.02    1.17
   0  -5 -10   81.89    2.12
   0  -5 -10   87.78    2.11
  -1  -5 -10   37.89    1.21
  -1  -5 -10   37.03    1.25
  -2  -5 -10   64.27    1.62
  -2  -5 -10   62.38    1.59
  -2  -5 -10   61.20    1.69
  -3  -5 -10   75.66    1.76
  -3  -5 -10   77.21    1.94
  -3  -5 -10   74.90    1.88
  -4  -5 -10   -0.09    0.22
  -4  -5 -10    0.76    0.27
   4   5  10   -0.17    0.23
  -5  -5 -10   54.60    1.67
  -5  -5 -10   58.96    1.63
   5   5  10   59.82    1.65
  -6  -5 -10   27.93    1.19
   6   5  10   31.81    1.17
  -7  -5 -10   -0.02    0.26
   7   5  10    0.37    0.30
  -8  -5 -10   63.59    2.01
   8   5  10   66.06    1.90
  -9  -5 -10    6.40    0.69
   9   5  10    5.44    0.63
 -10  -5 -10   14.99    1.04
  10   5  10   12.82    1.01
 -11  -5 -10   63.37    2.18
  11   5  10   59.69    2.02
 -12  -5 -10    1.67    0.51
  12   5  10    0.88    0.54
  13   5  10    5.84    0.83
   7  -6 -10    6.21    0.76
   6  -6 -10   27.77    1.35
   5  -6 -10    8.36    0.83
   4  -6 -10   30.62    1.33
   3  -6 -10   50.49    1.66
   2  -6 -10   -0.05    0.25
   1  -6 -10   63.62    1.82
   0  -6 -10  103.86    2.50
  -1  -6 -10   16.05    0.86
  -1  -6 -10   18.26    0.83
  -2  -6 -10   20.73    0.83
  -2  -6 -10   20.35    0.95
  -2  -6 -10   19.96    0.84
  -3  -6 -10   18.73    0.90
  -3  -6 -10   20.73    0.89
  -4  -6 -10   17.46    0.89
  -4  -6 -10   18.32    0.87
   4   6  10   17.56    0.91
  -5  -6 -10  115.73    2.71
  -5  -6 -10  111.48    2.61
   5   6  10  108.08    2.61
  -6  -6 -10   54.93    1.73
   6   6  10   53.46    1.65
  -7  -6 -10    3.95    0.58
   7   6  10    3.66    0.51
  -8  -6 -10   31.73    1.42
   8   6  10   32.25    1.34
  -9  -6 -10    6.05    0.70
   9   6  10    5.61    0.65
 -10  -6 -10   16.66    1.16
  10   6  10   18.07    1.14
 -11  -6 -10   24.36    1.40
  11   6  10   24.59    1.35
 -12  -6 -10   -0.08    0.36
  12   6  10   -0.29    0.48
   7  -7 -10    6.02    0.75
   6  -7 -10   17.69    1.15
   5  -7 -10    0.39    0.32
   4  -7 -10   67.19    2.06
   3  -7 -10   20.24    1.08
   2  -7 -10    7.03    0.69
   1  -7 -10  103.83    2.58
   0  -7 -10   66.87    1.89
  -1  -7 -10    2.26    0.40
  -2  -7 -10   48.90    1.54
  -2  -7 -10   48.84    1.42
  -3  -7 -10   14.23    0.83
  -3  -7 -10   14.47    0.79
  -4  -7 -10   11.44    0.77
  -4  -7 -10   11.24    0.74
   4   7  10   11.37    0.78
  -5  -7 -10   39.24    1.37
  -5  -7 -10   37.73    1.42
   5   7  10   40.61    1.39
  -6  -7 -10    3.36    0.54
   6   7  10    3.44    0.52
  -7  -7 -10   54.92    1.87
   7   7  10   56.25    1.78
  -8  -7 -10   25.95    1.32
   8   7  10   23.97    1.20
  -9  -7 -10   -0.19    0.31
   9   7  10    0.04    0.38
 -10  -7 -10   34.78    1.62
  10   7  10   32.41    1.51
 -11  -7 -10   23.10    1.40
  11   7  10   22.95    1.41
  12   7  10   -0.94    0.48
   6  -8 -10   31.22    1.46
   5  -8 -10    0.71    0.33
   4  -8 -10   56.56    1.88
   3  -8 -10   34.65    1.40
   2  -8 -10    5.72    0.66
   1  -8 -10   54.40    1.72
   0  -8 -10    8.29    0.70
  -1  -8 -10   22.28    1.04
  -2  -8 -10  126.74    2.93
  -2  -8 -10  124.34    2.80
  -3  -8 -10   17.49    0.89
  -3  -8 -10   15.68    0.90
   3   8  10   15.26    0.90
  -4  -8 -10   15.13    0.88
  -4  -8 -10   12.14    0.84
   4   8  10   14.16    0.89
  -5  -8 -10   35.96    1.43
  -5  -8 -10   37.12    1.38
   5   8  10   38.03    1.40
  -6  -8 -10    0.73    0.35
   6   8  10    0.13    0.37
  -7  -8 -10   37.32    1.56
   7   8  10   36.11    1.45
  -8  -8 -10   17.33    1.14
   8   8  10   18.20    1.10
  -9  -8 -10    4.67    0.70
   9   8  10    4.25    0.65
 -10  -8 -10   32.37    1.62
  10   8  10   28.15    1.48
 -11  -8 -10   12.20    1.15
  11   8  10    8.43    0.93
   6  -9 -10   17.80    1.17
   5  -9 -10    6.83    0.78
   4  -9 -10   36.67    1.51
   3  -9 -10    3.29    0.53
   2  -9 -10   27.77    1.26
   1  -9 -10   77.12    2.17
   0  -9 -10    1.67    0.39
  -1  -9 -10   12.97    0.86
  -2  -9 -10   36.38    1.31
  -2  -9 -10   36.01    1.37
  -3  -9 -10    0.91    0.34
  -3  -9 -10    1.57    0.39
   3   9  10    1.05    0.37
  -4  -9 -10   51.06    1.70
  -4  -9 -10   54.03    1.79
   4   9  10   54.57    1.75
  -5  -9 -10   37.95    1.54
  -5  -9 -10   35.69    1.40
   5   9  10   36.49    1.44
  -6  -9 -10    3.05    0.56
   6   9  10    2.08    0.48
  -7  -9 -10   24.73    1.34
   7   9  10   23.86    1.25
  -8  -9 -10    6.24    0.79
   8   9  10    5.82    0.73
  -9  -9 -10   10.74    1.01
   9   9  10    8.45    0.86
 -10  -9 -10   40.21    1.85
  10   9  10   40.00    1.80
   6 -10 -10    1.59    0.59
   5 -10 -10   12.88    1.05
   4 -10 -10   37.16    1.57
   3 -10 -10   -0.09    0.31
   2 -10 -10   48.20    1.70
   1 -10 -10   34.13    1.39
   0 -10 -10    1.12    0.38
  -1 -10 -10   46.27    1.61
  -2 -10 -10   17.41    1.01
  -3 -10 -10   20.44    1.11
  -3 -10 -10   20.55    1.09
   3  10  10   23.09    1.15
  -4 -10 -10   52.56    1.76
  -4 -10 -10   49.83    1.82
   4  10  10   52.32    1.78
  -5 -10 -10    2.98    0.52
  -5 -10 -10    4.32    0.64
   5  10  10    2.94    0.55
  -6 -10 -10   21.55    1.26
   6  10  10   20.36    1.20
  -7 -10 -10   42.71    1.84
   7  10  10   41.64    1.69
  -8 -10 -10    3.35    0.67
   8  10  10    2.02    0.57
  -9 -10 -10   21.48    1.40
   9  10  10   19.27    1.33
   5 -11 -10   25.14    1.39
   4 -11 -10   23.91    1.29
   3 -11 -10   -0.17    0.29
   2 -11 -10   60.61    1.99
   1 -11 -10   27.21    1.28
   0 -11 -10    0.41    0.34
  -1 -11 -10   45.33    1.64
  -2 -11 -10   11.02    0.89
   2  11  10    9.57    0.91
  -3 -11 -10   27.92    1.33
  -3 -11 -10   29.98    1.40
   3  11  10   27.80    1.37
  -4 -11 -10   91.48    2.54
  -4 -11 -10   89.03    2.66
   4  11  10   91.00    2.54
  -5 -11 -10    6.84    0.81
   5  11  10    6.67    0.78
  -6 -11 -10    3.73    0.65
   6  11  10    3.20    0.62
  -7 -11 -10   21.30    1.39
   7  11  10   23.20    1.36
  -8 -11 -10    0.95    0.47
   8  11  10    0.37    0.53
   4 -12 -10    5.76    0.73
   3 -12 -10   12.53    1.01
   2 -12 -10   40.73    1.64
   1 -12 -10   16.11    1.06
   0 -12 -10   11.01    0.93
  -1 -12 -10   40.09    1.59
  -2 -12 -10   -0.19    0.29
   2  12  10    0.29    0.37
  -3 -12 -10   18.33    1.14
  -3 -12 -10   17.63    1.18
   3  12  10   16.20    1.12
  -4 -12 -10   26.92    1.47
  -4 -12 -10   27.30    1.34
   4  12  10   25.88    1.35
  -5 -12 -10    0.85    0.44
   5  12  10   -0.41    0.41
  -6 -12 -10   32.51    1.69
   6  12  10   32.44    1.57
  -7 -12 -10   25.00    1.54
   7  12  10   24.56    1.45
   3 -13 -10   11.67    1.01
   2 -13 -10   38.87    1.65
   1 -13 -10    3.03    0.57
   0 -13 -10    9.31    0.92
  -1 -13 -10   15.50    1.08
   1  13  10   17.42    1.13
  -2 -13 -10   -0.40    0.30
   2  13  10   -0.48    0.36
  -3 -13 -10   26.54    1.79
  -3 -13 -10   26.75    1.39
   3  13  10   26.94    1.41
  -4 -13 -10    8.59    0.98
   4  13  10    8.44    0.90
  -5 -13 -10    1.08    0.52
   5  13  10    0.75    0.51
  -6 -13 -10   27.80    1.65
   1 -14 -10    0.00    0.37
   0 -14 -10   24.80    1.36
   0  14  10   25.01    1.40
  -1 -14 -10    2.06    0.54
   1  14  10    2.01    0.55
  -2 -14 -10    6.25    0.78
   2  14  10    4.87    0.73
  -3 -14 -10   21.85    1.35
   3  14  10   22.03    1.56
  -4 -14 -10   10.21    1.10
   1  -5  11    0.10    0.47
   2  -5  11   12.44    1.19
  -3   5 -11   15.52    1.24
   3  -5  11   13.15    1.19
  -4   5 -11    1.63    0.57
   4  -5  11    1.84    0.61
  -5   5 -11   21.09    1.33
   5  -5  11   19.73    1.35
  -6   5 -11    8.53    1.07
   6  -5  11    8.66    1.56
   0   4 -11   25.51    1.34
  -1   4 -11   -0.58    0.34
   1  -4  11   -0.71    0.36
  -2   4 -11   19.95    1.19
   2  -4  11   17.34    1.20
  -3   4 -11   14.35    1.06
   3  -4  11   14.40    1.15
  -4   4 -11   15.67    1.11
   4  -4  11   14.79    1.16
  -5   4 -11   27.37    1.42
   5  -4  11   29.95    1.51
  -6   4 -11    6.03    0.80
   6  -4  11    7.87    0.92
  -7   4 -11   11.22    1.05
   7  -4  11   10.36    1.05
  -8   4 -11   38.46    1.70
   8  -4  11   36.85    2.01
  -9   4 -11    4.07    0.71
   2   3 -11    3.35    0.64
   1   3 -11   32.31    1.46
   0   3 -11   13.46    1.00
  -1   3 -11    2.28    0.53
   1  -3  11    2.70    0.58
  -2   3 -11   27.64    1.32
   2  -3  11   26.98    1.35
  -3   3 -11    1.46    0.46
   3  -3  11    0.89    0.47
  -4   3 -11   29.72    1.38
   4  -3  11   31.32    1.48
  -5   3 -11   28.03    1.35
   5  -3  11   28.97    1.43
  -6   3 -11    2.46    0.56
   6  -3  11    3.21    0.61
  -7   3 -11   18.44    1.16
   7  -3  11   17.57    1.20
  -8   3 -11   23.44    1.31
   8  -3  11   22.00    1.35
  -9   3 -11   -0.08    0.36
   9  -3  11   -0.19    0.43
 -10   3 -11   16.34    1.18
   3   2 -11    3.28    0.62
   2   2 -11    7.70    0.83
   1   2 -11   33.02    1.43
   0   2 -11    6.72    0.75
  -1   2 -11   26.76    1.27
   1  -2  11   26.91    1.26
  -2   2 -11   46.05    1.63
   2  -2  11   44.19    1.64
  -3   2 -11   -0.15    0.33
   3  -2  11   -0.26    0.35
  -4   2 -11   38.01    1.50
   4  -2  11   39.23    1.56
  -5   2 -11   29.46    1.33
   5  -2  11   31.57    1.42
  -6   2 -11    1.24    0.43
   6  -2  11   -0.08    0.38
  -7   2 -11   23.75    1.21
   7  -2  11   24.35    1.32
  -8   2 -11    4.48    0.64
   8  -2  11    5.03    0.76
  -9   2 -11    5.34    0.71
   9  -2  11    5.83    0.79
  10  -2  11   30.09    1.54
   4   1 -11   26.69    1.39
   3   1 -11    3.68    0.61
   2   1 -11   17.90    1.08
   1   1 -11   23.20    1.17
   0   1 -11    3.35    0.55
  -1   1 -11   32.85    1.35
   1  -1  11   34.91    1.34
  -2   1 -11   22.47    1.13
   2  -1  11   22.19    1.12
  -3   1 -11   13.50    0.88
   3  -1  11   12.37    0.91
  -4   1 -11   51.15    1.66
   4  -1  11   49.51    1.72
  -5   1 -11   27.10    1.20
   5  -1  11   24.39    1.25
  -6   1 -11    6.41    0.68
   6  -1  11    7.50    0.79
  -7   1 -11   64.48    1.95
   7  -1  11   63.54    2.08
  -8   1 -11   16.19    0.99
   8  -1  11   15.94    1.08
  -9   1 -11   11.20    1.32
   9  -1  11   12.95    1.03
  10  -1  11   19.64    1.24
  11  -1  11    0.43    0.44
   5   0 -11   12.92    1.54
   4   0 -11    9.37    0.93
   3   0 -11   -0.01    0.36
   2   0 -11   43.12    1.60
   1   0 -11   47.76    1.64
   0   0 -11   -0.54    0.29
  -1   0 -11   40.63    1.47
   1   0  11   42.24    1.42
  -2   0 -11    3.12    0.47
   2   0  11    3.09    0.50
  -3   0 -11    5.63    0.61
   3   0  11    4.82    0.59
  -4   0 -11   55.17    1.66
   4   0  11   54.22    1.75
  -5   0 -11    2.67    0.46
   5   0  11    2.72    0.50
  -6   0 -11   32.51    1.26
   6   0  11   33.88    1.41
  -7   0 -11   70.97    1.99
   7   0  11   73.68    2.24
  -8   0 -11    8.87    0.76
   8   0  11    8.98    0.87
   9   0  11    9.54    0.92
  10   0  11    7.83    0.88
  11   0  11    0.10    0.39
   5  -1 -11   24.13    1.33
   4  -1 -11   22.63    1.25
   3  -1 -11    1.05    0.43
   2  -1 -11   30.08    1.31
   1  -1 -11   14.21    0.92
   0  -1 -11    9.58    0.78
  -1  -1 -11   41.83    1.43
   1   1  11   42.66    1.38
  -2  -1 -11    3.65    0.50
   2   1  11    2.94    0.46
  -3  -1 -11   50.30    1.56
   3   1  11   53.95    1.65
  -4  -1 -11   42.03    1.38
   4   1  11   42.52    1.47
  -5  -1 -11    5.27    0.56
   5   1  11    4.82    0.58
  -6  -1 -11   76.31    1.96
   6   1  11   72.42    2.14
  -7  -1 -11   43.37    1.40
   7   1  11   43.93    1.62
  -8  -1 -11   -0.07    0.30
  -9  -1 -11   33.06    1.43
 -10  -1 -11   12.56    0.99
 -11  -1 -11    1.61    0.52
 -12  -1 -11   24.19    1.51
   6  -2 -11    4.99    0.72
   5  -2 -11   34.88    1.50
   5  -2 -11   32.05    1.51
   4  -2 -11    5.72    0.69
   4  -2 -11    5.54    0.71
   3  -2 -11    4.61    0.59
   3  -2 -11    4.66    0.65
   2  -2 -11   46.81    1.55
   2  -2 -11   47.47    1.63
   1  -2 -11    0.44    0.36
   1  -2 -11    0.10    0.26
   0  -2 -11   44.88    1.43
   0  -2 -11   45.76    1.50
  -1  -2 -11   11.00    0.75
  -2  -2 -11    2.80    0.46
   2   2  11    3.95    0.47
  -3  -2 -11   85.48    2.13
   3   2  11   89.19    2.24
  -4  -2 -11   53.10    1.54
   4   2  11   56.07    1.70
  -5  -2 -11    0.02    0.24
  -5  -2 -11   -0.14    0.28
  -6  -2 -11   87.06    2.09
  -6  -2 -11   87.92    2.31
  -7  -2 -11   23.67    1.13
  -8  -2 -11   -0.18    0.31
  -9  -2 -11   57.21    1.91
 -10  -2 -11   18.21    1.14
 -11  -2 -11    5.55    0.80
 -12  -2 -11   26.00    1.43
   6  -3 -11    4.47    0.70
   5  -3 -11   32.33    1.46
   5  -3 -11   32.40    1.50
   4  -3 -11    3.38    0.61
   4  -3 -11    2.90    0.50
   3  -3 -11   28.87    1.25
   3  -3 -11   28.76    1.32
   2  -3 -11   53.18    1.74
   2  -3 -11   53.06    1.67
   1  -3 -11   -0.11    0.27
   1  -3 -11   -0.07    0.25
   0  -3 -11   32.88    1.22
   0  -3 -11   36.41    1.29
  -1  -3 -11   62.05    1.71
  -1  -3 -11   62.29    1.74
  -2  -3 -11    2.52    0.41
  -2  -3 -11    1.87    0.35
   2   3  11    2.29    0.38
  -3  -3 -11   13.97    0.76
  -3  -3 -11   14.97    0.78
  -4  -3 -11   28.02    1.02
  -4  -3 -11   28.76    1.03
  -4  -3 -11   28.16    1.11
   4   3  11   27.11    1.02
  -5  -3 -11   24.41    0.95
  -5  -3 -11   24.54    0.94
  -5  -3 -11   24.46    1.09
   5   3  11   24.81    0.96
  -6  -3 -11   66.37    1.93
   6   3  11   64.53    1.77
  -7  -3 -11   11.46    0.83
  -8  -3 -11    5.64    0.66
  -9  -3 -11   30.38    1.37
 -10  -3 -11    2.87    0.56
 -11  -3 -11   12.61    1.09
 -12  -3 -11   21.85    1.33
   6  -4 -11   17.15    1.17
   5  -4 -11   17.67    1.09
   4  -4 -11    1.52    0.43
   3  -4 -11   45.05    1.63
   3  -4 -11   42.34    1.55
   2  -4 -11   32.23    1.29
   2  -4 -11   34.96    1.36
   1  -4 -11    5.11    0.58
   1  -4 -11    5.63    0.64
   0  -4 -11   15.80    0.88
   0  -4 -11   14.66    0.83
  -1  -4 -11    1.84    0.34
  -1  -4 -11    2.80    0.42
  -2  -4 -11   26.53    1.05
  -2  -4 -11   27.70    1.01
  -2  -4 -11   26.19    1.03
  -3  -4 -11  110.78    2.53
  -3  -4 -11  108.43    2.51
  -3  -4 -11  111.02    2.45
  -4  -4 -11   19.10    0.82
  -4  -4 -11   19.20    0.91
  -4  -4 -11   19.88    0.91
   4   4  11   19.44    0.90
  -5  -4 -11   37.08    1.34
  -5  -4 -11   37.65    1.26
   5   4  11   40.28    1.30
  -6  -4 -11   43.91    1.54
   6   4  11   46.90    1.44
  -7  -4 -11   10.09    0.81
   7   4  11    9.45    0.72
  -8  -4 -11   27.90    1.30
   8   4  11   28.50    1.17
  -9  -4 -11   27.38    1.33
   9   4  11   28.64    1.23
 -10  -4 -11   -0.14    0.32
  10   4  11   -0.40    0.33
 -11  -4 -11   33.16    1.61
 -12  -4 -11   17.56    1.25
   6  -5 -11   23.73    1.33
   5  -5 -11    9.49    0.89
   4  -5 -11    1.65    0.45
   3  -5 -11   50.66    1.71
   2  -5 -11    9.70    0.80
   2  -5 -11    8.74    0.75
   1  -5 -11    2.97    0.51
   1  -5 -11    2.44    0.45
   0  -5 -11   52.85    1.61
   0  -5 -11   53.44    1.63
  -1  -5 -11   10.39    0.71
  -1  -5 -11   10.31    0.73
  -2  -5 -11   21.78    0.91
  -2  -5 -11   22.59    1.00
  -2  -5 -11   21.16    0.89
  -3  -5 -11   41.03    1.22
  -3  -5 -11   39.42    1.29
  -3  -5 -11   39.43    1.33
  -4  -5 -11   -0.13    0.22
  -4  -5 -11   -0.03    0.23
   4   5  11   -0.14    0.24
  -5  -5 -11   53.60    1.59
  -5  -5 -11   54.68    1.68
   5   5  11   53.21    1.61
  -6  -5 -11   52.62    1.70
   6   5  11   51.52    1.60
  -7  -5 -11    0.39    0.33
   7   5  11    0.55    0.33
  -8  -5 -11   29.48    1.36
   8   5  11   30.81    1.25
   9   5  11   11.65    0.92
 -10  -5 -11    2.82    0.55
  10   5  11    1.83    0.48
 -11  -5 -11   41.53    1.80
  11   5  11   45.94    1.76
 -12  -5 -11   13.01    1.51
  12   5  11   13.25    1.19
   6  -6 -11   23.23    1.34
   5  -6 -11    4.72    0.68
   4  -6 -11   16.92    1.07
   3  -6 -11   72.87    2.17
   2  -6 -11    4.48    0.55
   1  -6 -11   26.42    1.16
   0  -6 -11   35.55    1.32
   0  -6 -11   37.16    1.31
  -1  -6 -11    8.96    0.73
  -1  -6 -11   10.05    0.71
  -2  -6 -11   91.71    2.30
  -2  -6 -11   87.90    2.11
  -3  -6 -11   43.28    1.44
  -3  -6 -11   42.34    1.35
  -4  -6 -11    3.27    0.47
  -4  -6 -11    4.27    0.50
   4   6  11    4.00    0.52
  -5  -6 -11   65.27    1.89
  -5  -6 -11   62.98    1.82
   5   6  11   63.88    1.85
  -6  -6 -11   53.15    1.75
   6   6  11   55.77    1.72
  -7  -6 -11   14.86    0.96
   7   6  11   13.36    0.90
  -8  -6 -11   66.09    2.13
   8   6  11   66.59    2.00
  -9  -6 -11   14.01    1.04
   9   6  11   14.35    1.03
 -10  -6 -11    0.93    0.46
  10   6  11    1.36    0.48
 -11  -6 -11   31.15    1.59
  11   6  11   30.23    1.52
  12   6  11    2.45    0.65
   6  -7 -11   18.23    1.18
   5  -7 -11    0.59    0.38
   4  -7 -11   19.23    1.12
   3  -7 -11   31.67    1.37
   2  -7 -11   -0.05    0.28
   1  -7 -11   72.02    2.08
   0  -7 -11   49.87    1.63
  -1  -7 -11    0.26    0.26
  -2  -7 -11   19.78    1.00
  -3  -7 -11    6.82    0.61
  -3  -7 -11    4.89    0.54
  -4  -7 -11   14.69    0.84
  -4  -7 -11   13.82    0.86
   4   7  11   12.74    0.87
  -5  -7 -11   98.26    2.48
  -5  -7 -11   96.05    2.51
   5   7  11   97.36    2.49
  -6  -7 -11   25.22    1.20
   6   7  11   23.66    1.17
  -7  -7 -11    6.29    0.72
   7   7  11    5.37    0.65
  -8  -7 -11   19.69    1.18
   8   7  11   18.29    1.09
  -9  -7 -11    0.19    0.36
   9   7  11   -0.11    0.39
 -10  -7 -11   13.26    1.12
  10   7  11   13.12    1.08
 -11  -7 -11   23.98    1.45
  11   7  11   23.24    1.40
   5  -8 -11   -0.02    0.30
   4  -8 -11   28.96    1.36
   3  -8 -11   13.23    0.95
   2  -8 -11    1.01    0.37
   1  -8 -11   45.50    1.61
   0  -8 -11    9.59    0.80
  -1  -8 -11   13.62    0.90
  -2  -8 -11   41.57    1.49
  -3  -8 -11    0.04    0.23
  -3  -8 -11   -0.27    0.26
  -4  -8 -11   25.26    1.17
  -4  -8 -11   25.97    1.15
   4   8  11   24.91    1.18
  -5  -8 -11   60.07    1.85
  -5  -8 -11   57.11    1.89
   5   8  11   62.47    1.89
  -6  -8 -11    0.21    0.32
   6   8  11   -0.29    0.34
  -7  -8 -11   23.76    1.27
   7   8  11   22.65    1.18
  -8  -8 -11   21.52    1.28
   8   8  11   20.14    1.19
  -9  -8 -11    1.85    0.53
   9   8  11    0.74    0.49
 -10  -8 -11   30.24    1.62
  10   8  11   30.98    1.58
  11   8  11   14.89    1.25
   5  -9 -11    1.77    0.47
   4  -9 -11   29.76    1.41
   3  -9 -11   11.59    0.92
   2  -9 -11   11.28    0.90
   1  -9 -11   34.81    1.41
   0  -9 -11    1.83    0.44
  -1  -9 -11   28.14    1.26
  -2  -9 -11   65.58    1.97
  -3  -9 -11    0.19    0.28
  -3  -9 -11   -0.11    0.27
   3   9  11   -0.10    0.31
  -4  -9 -11   61.89    1.94
  -4  -9 -11   61.24    1.94
   4   9  11   60.95    1.94
  -5  -9 -11   30.28    1.38
  -5  -9 -11   32.41    1.37
   5   9  11   35.71    1.44
  -6  -9 -11    0.08    0.30
   6   9  11   -0.45    0.37
  -7  -9 -11   25.11    1.35
   7   9  11   24.35    1.27
  -8  -9 -11   15.93    1.17
   8   9  11   18.88    1.23
  -9  -9 -11    6.14    0.84
   9   9  11    6.02    0.80
 -10  -9 -11   46.09    2.12
  10   9  11   48.27    1.96
   4 -10 -11   20.85    1.23
   3 -10 -11    0.61    0.37
   2 -10 -11   14.85    1.00
   1 -10 -11   23.36    1.19
   0 -10 -11   -0.01    0.29
  -1 -10 -11   19.77    1.09
  -2 -10 -11   23.40    1.18
  -3 -10 -11    1.95    0.51
  -3 -10 -11    2.52    0.49
   3  10  11    2.58    0.50
  -4 -10 -11   52.09    1.86
  -4 -10 -11   54.43    1.87
   4  10  11   60.56    1.95
  -5 -10 -11    2.27    0.51
  -5 -10 -11    2.67    0.56
   5  10  11    3.96    0.63
  -6 -10 -11    3.29    0.61
   6  10  11    1.86    0.55
  -7 -10 -11   47.55    1.94
   7  10  11   47.80    1.82
  -8 -10 -11    8.67    0.97
   8  10  11    9.36    0.92
  -9 -10 -11    9.10    1.02
   9  10  11    9.27    0.98
   4 -11 -11   32.90    1.59
   3 -11 -11    0.26    0.36
   2 -11 -11   22.74    1.24
   1 -11 -11   21.19    1.17
   0 -11 -11    0.16    0.33
  -1 -11 -11   32.21    1.40
  -2 -11 -11   21.79    1.19
  -3 -11 -11   32.63    1.44
   3  11  11   29.29    1.40
  -4 -11 -11   50.60    1.89
  -4 -11 -11   46.16    1.76
   4  11  11   50.34    1.84
  -5 -11 -11   20.18    1.24
  -5 -11 -11   18.45    1.14
   5  11  11   16.77    1.17
  -6 -11 -11    2.15    0.55
   6  11  11    2.74    0.63
  -7 -11 -11   21.05    1.38
   7  11  11   20.39    1.29
  -8 -11 -11    3.60    0.73
   8  11  11    3.18    0.67
   3 -12 -11    0.83    0.43
   2 -12 -11   23.05    1.29
   1 -12 -11    3.09    0.56
   0 -12 -11    5.32    0.71
  -1 -12 -11   21.17    1.21
  -2 -12 -11    6.51    0.78
   2  12  11    6.97    0.80
  -3 -12 -11   20.40    1.23
   3  12  11   20.38    1.27
  -4 -12 -11   15.29    1.09
  -4 -12 -11   14.67    1.13
   4  12  11   13.76    1.09
  -5 -12 -11    0.13    0.39
   5  12  11   -0.20    0.43
  -6 -12 -11   35.31    1.75
   6  12  11   30.40    1.55
  -7 -12 -11   22.72    1.49
   1 -13 -11    1.32    0.50
   0 -13 -11   14.03    1.06
  -1 -13 -11   37.59    1.62
   1  13  11   34.88    1.57
  -2 -13 -11    0.22    0.38
   2  13  11   -0.06    0.40
  -3 -13 -11    6.61    0.83
   3  13  11    5.37    0.77
  -4 -13 -11   26.12    1.40
  -4 -13 -11   29.17    1.61
   4  13  11   27.80    1.46
  -5 -13 -11    0.34    0.44
  -6 -13 -11   11.97    1.18
   2  -4  12    9.61    1.01
   3  -4  12    4.29    0.77
  -4   4 -12    3.57    1.00
   4  -4  12    3.06    0.71
  -5   4 -12   31.91    2.03
   5  -4  12   34.77    1.72
  -1   3 -12    0.23    0.44
  -2   3 -12   28.99    1.44
   2  -3  12   28.77    1.47
  -3   3 -12    6.26    0.78
   3  -3  12    6.17    0.83
  -4   3 -12   20.23    1.22
   4  -3  12   21.27    1.33
  -5   3 -12   20.16    1.24
   5  -3  12   20.77    1.32
  -6   3 -12    3.45    0.66
   6  -3  12    1.86    0.58
   7  -3  12   26.01    1.48
  -8   3 -12   28.25    1.46
  -9   3 -12    0.62    0.47
   1   2 -12   27.38    1.38
   0   2 -12   15.00    1.08
  -1   2 -12    7.41    0.83
  -2   2 -12   32.70    1.45
   2  -2  12   31.68    1.46
  -3   2 -12    3.29    0.61
   3  -2  12    2.38    0.57
  -4   2 -12   22.62    1.22
   4  -2  12   23.08    1.32
  -5   2 -12   29.94    1.39
   5  -2  12   32.64    1.52
  -6   2 -12    1.58    0.50
   6  -2  12    1.52    0.51
  -7   2 -12   23.58    1.27
   7  -2  12   23.96    1.37
  -8   2 -12   28.04    1.37
   8  -2  12   26.38    1.48
  -9   2 -12   -0.16    0.38
   9  -2  12   -0.21    0.50
   2   1 -12    2.91    0.61
   1   1 -12   22.24    1.22
   0   1 -12    7.51    0.78
  -1   1 -12   13.49    0.99
  -2   1 -12   20.51    1.13
   2  -1  12   20.62    1.15
  -3   1 -12    1.06    0.44
   3  -1  12    0.82    0.44
  -4   1 -12   35.53    1.45
   4  -1  12   36.04    1.51
  -5   1 -12   21.02    1.12
   5  -1  12   20.35    1.19
  -6   1 -12    0.07    0.34
   6  -1  12   -0.44    0.34
  -7   1 -12   31.83    1.38
   7  -1  12   31.07    1.49
  -8   1 -12    2.21    0.51
   8  -1  12    2.00    0.55
   9  -1  12   14.57    1.14
  10  -1  12   31.99    2.36
   3   0 -12   -0.39    0.37
   2   0 -12   16.42    1.09
   1   0 -12   21.19    1.16
   0   0 -12   -0.21    0.33
  -1   0 -12   27.71    1.27
  -2   0 -12    7.27    0.76
   2   0  12    6.35    0.67
  -3   0 -12    8.27    0.79
   3   0  12    9.44    0.86
  -4   0 -12   73.25    2.10
   4   0  12   74.62    2.22
  -5   0 -12   22.46    1.11
   5   0  12   22.09    1.20
  -6   0 -12    5.67    0.66
   6   0  12    6.78    0.74
  -7   0 -12   50.35    1.67
   7   0  12   52.08    1.87
   8   0  12    1.75    0.49
   9   0  12   21.41    1.30
  10   0  12   36.53    1.69
   4  -1 -12   10.72    1.40
   3  -1 -12    0.66    0.44
   2  -1 -12   47.22    1.72
   1  -1 -12   34.49    1.44
   0  -1 -12    1.50    0.45
  -1  -1 -12   26.75    1.20
  -2  -1 -12    3.29    0.52
   2   1  12    2.80    0.48
  -3  -1 -12   10.30    0.80
   3   1  12   11.89    0.85
  -4  -1 -12   55.69    1.72
   4   1  12   57.63    1.84
  -5  -1 -12    5.37    0.62
   5   1  12    5.48    0.67
  -6  -1 -12   26.34    1.14
   6   1  12   26.53    1.28
  -7  -1 -12   47.79    1.68
   7   1  12   49.69    1.80
   8   1  12    1.69    0.50
   9   1  12   21.76    1.26
  10   1  12   18.42    1.23
   4  -2 -12    5.83    0.77
   3  -2 -12    7.78    0.85
   2  -2 -12   37.57    1.52
   1  -2 -12   18.34    1.05
   0  -2 -12   11.88    0.86
  -1  -2 -12   26.32    1.16
  -2  -2 -12   -0.34    0.27
   2   2  12   -0.27    0.27
  -3  -2 -12   63.43    1.83
   3   2  12   66.26    1.91
  -4  -2 -12   56.44    1.68
   4   2  12   60.67    1.85
  -5  -2 -12    1.44    0.38
   5   2  12    1.05    0.39
  -6  -2 -12   37.01    1.29
   6   2  12   36.15    1.45
  -7  -2 -12   27.61    1.26
  -8  -2 -12    2.34    0.50
  -9  -2 -12   47.37    1.77
 -10  -2 -12   10.19    0.97
 -11  -2 -12    2.57    0.61
   5  -3 -12   25.81    1.38
   4  -3 -12    0.88    0.39
   4  -3 -12    0.93    0.48
   3  -3 -12    9.68    0.81
   3  -3 -12    8.33    0.85
   2  -3 -12   53.22    1.76
   2  -3 -12   56.27    1.87
   1  -3 -12    0.69    0.32
   1  -3 -12    1.07    0.39
   0  -3 -12   35.99    1.36
   0  -3 -12   35.20    1.32
  -1  -3 -12   38.79    1.49
  -1  -3 -12   40.80    1.43
  -2  -3 -12    3.35    0.51
  -3  -3 -12   56.59    1.65
   3   3  12   54.85    1.69
  -4  -3 -12   19.12    0.91
   4   3  12   18.17    0.98
  -5  -3 -12    0.27    0.31
  -5  -3 -12    0.42    0.29
  -6  -3 -12   40.00    1.50
  -7  -3 -12   16.33    1.00
  -8  -3 -12    4.66    0.63
  -9  -3 -12   38.87    1.60
 -10  -3 -12    2.70    0.56
 -11  -3 -12    8.56    0.94
   5  -4 -12   31.35    1.51
   4  -4 -12    2.17    0.57
   4  -4 -12    1.28    0.42
   3  -4 -12   18.10    1.14
   3  -4 -12   20.32    1.11
   2  -4 -12   37.93    1.45
   2  -4 -12   36.84    1.50
   1  -4 -12    0.07    0.33
   1  -4 -12   -0.14    0.25
   0  -4 -12   30.94    1.25
   0  -4 -12   29.00    1.21
  -1  -4 -12   19.45    0.99
  -1  -4 -12   18.22    0.94
  -2  -4 -12   63.19    1.78
  -2  -4 -12   62.88    1.80
  -3  -4 -12   83.78    2.14
  -3  -4 -12   83.53    2.13
  -3  -4 -12   83.70    2.10
  -4  -4 -12   16.73    0.84
  -4  -4 -12   17.35    0.91
  -4  -4 -12   17.55    0.90
   4   4  12   16.51    0.89
  -5  -4 -12   11.68    0.76
  -5  -4 -12   11.62    0.83
   5   4  12   11.45    0.76
  -6  -4 -12   68.97    2.03
   6   4  12   68.55    1.89
  -7  -4 -12    3.83    0.55
   7   4  12    2.96    0.68
  -8  -4 -12   11.62    0.94
  -9  -4 -12   35.20    1.53
 -10  -4 -12    1.30    0.47
 -11  -4 -12   19.19    1.30
   5  -5 -12   19.71    1.21
   4  -5 -12    0.04    0.29
   3  -5 -12   34.77    1.45
   2  -5 -12   20.96    1.16
   2  -5 -12   18.81    1.08
   1  -5 -12    4.43    0.61
   0  -5 -12   48.94    1.61
   0  -5 -12   44.35    1.56
  -1  -5 -12   29.86    1.21
  -1  -5 -12   31.17    1.24
  -2  -5 -12   30.97    1.18
  -2  -5 -12   29.52    1.20
  -3  -5 -12   56.45    1.65
  -3  -5 -12   55.15    1.69
  -3  -5 -12   57.50    1.60
  -4  -5 -12    0.91    0.34
  -4  -5 -12    1.17    0.35
   4   5  12    0.53    0.34
  -5  -5 -12   41.48    1.42
  -5  -5 -12   38.76    1.43
   5   5  12   40.58    1.42
  -6  -5 -12   61.56    1.92
  -6  -5 -12   61.67    1.79
   6   5  12   62.43    1.82
  -7  -5 -12    4.11    0.62
   7   5  12    4.20    0.55
  -8  -5 -12   21.05    1.20
   8   5  12   19.21    1.04
  -9  -5 -12   13.24    1.03
   9   5  12   14.17    1.00
 -10  -5 -12    2.14    0.54
  10   5  12    1.52    0.53
 -11  -5 -12   26.41    1.51
   5  -6 -12    3.27    0.60
   4  -6 -12    7.15    0.80
   3  -6 -12   32.49    1.42
   2  -6 -12    2.66    0.48
   1  -6 -12    5.58    0.63
   0  -6 -12   77.91    2.14
   0  -6 -12   79.35    2.20
  -1  -6 -12    3.37    0.51
  -1  -6 -12    2.35    0.44
  -2  -6 -12   32.66    1.31
  -2  -6 -12   31.20    1.18
  -3  -6 -12   45.57    1.52
  -3  -6 -12   42.97    1.46
  -4  -6 -12   -0.03    0.24
  -4  -6 -12   -0.34    0.26
   4   6  12   -0.37    0.28
  -5  -6 -12   68.65    1.97
  -5  -6 -12   65.54    1.97
   5   6  12   71.29    2.01
  -6  -6 -12   28.31    1.27
  -6  -6 -12   28.09    1.22
   6   6  12   32.00    1.30
  -7  -6 -12    6.04    0.71
   7   6  12    5.17    0.62
  -8  -6 -12   45.11    1.75
   8   6  12   46.54    1.67
  -9  -6 -12   12.18    1.00
   9   6  12   13.09    1.03
 -10  -6 -12    1.18    0.49
  10   6  12    0.73    0.48
 -11  -6 -12   23.05    1.50
  11   6  12   24.86    1.41
  12   6  12    0.76    0.55
   5  -7 -12    2.45    0.56
   4  -7 -12   23.61    1.29
   3  -7 -12   50.32    1.82
   2  -7 -12    0.43    0.34
   1  -7 -12   21.71    1.13
   0  -7 -12   27.05    1.21
  -1  -7 -12   11.19    0.86
  -2  -7 -12  112.77    2.79
  -3  -7 -12   74.44    2.12
  -4  -7 -12    0.70    0.37
  -4  -7 -12    1.51    0.37
   4   7  12    0.82    0.39
  -5  -7 -12   61.75    1.90
  -5  -7 -12   63.27    1.95
   5   7  12   63.98    1.94
  -6  -7 -12   20.96    1.11
  -6  -7 -12   18.85    1.06
   6   7  12   19.03    1.10
  -7  -7 -12   18.06    1.11
   7   7  12   15.49    1.01
  -8  -7 -12   26.44    1.38
   8   7  12   29.27    1.34
  -9  -7 -12    4.36    0.69
   9   7  12    3.04    0.59
 -10  -7 -12   10.99    1.07
  10   7  12    8.18    0.86
  11   7  12   16.31    1.28
   4  -8 -12   19.12    1.22
   3  -8 -12   35.22    1.52
   2  -8 -12    0.37    0.31
   1  -8 -12   40.85    1.56
   0  -8 -12    8.97    0.80
  -1  -8 -12    1.61    0.41
  -2  -8 -12   36.58    1.43
  -3  -8 -12   31.20    1.32
  -4  -8 -12   14.68    0.90
  -4  -8 -12   13.66    0.96
   4   8  12   11.78    0.94
  -5  -8 -12   76.95    2.23
  -5  -8 -12   73.14    2.21
   5   8  12   80.41    2.27
  -6  -8 -12    1.33    0.42
  -6  -8 -12    1.89    0.46
   6   8  12    1.16    0.43
  -7  -8 -12   15.72    1.10
   7   8  12   15.30    1.04
  -8  -8 -12   28.01    1.47
   8   8  12   29.66    1.43
  -9  -8 -12   -0.12    0.37
   9   8  12   -0.23    0.44
 -10  -8 -12    9.93    1.05
  10   8  12    7.94    0.90
   4  -9 -12   27.96    1.42
   3  -9 -12   17.63    1.14
   2  -9 -12    8.91    0.86
   1  -9 -12   20.81    1.15
   0  -9 -12    0.60    0.34
  -1  -9 -12   32.04    1.38
  -2  -9 -12   66.32    2.04
  -3  -9 -12    9.58    0.84
  -4  -9 -12   25.70    1.22
  -4  -9 -12   25.43    1.27
   4   9  12   26.97    1.30
  -5  -9 -12   34.80    1.49
  -5  -9 -12   34.98    1.46
   5   9  12   37.48    1.50
  -6  -9 -12    0.41    0.37
  -6  -9 -12   -0.63    0.27
   6   9  12   -0.81    0.32
  -7  -9 -12   23.24    1.36
   7   9  12   22.87    1.26
  -8  -9 -12   14.67    1.17
   8   9  12   13.25    1.08
  -9  -9 -12    1.73    0.55
   9   9  12    1.05    0.55
  10   9  12   20.68    1.78
   3 -10 -12    5.98    0.74
   2 -10 -12   16.91    1.10
   1 -10 -12   14.16    1.00
   0 -10 -12   -0.15    0.27
  -1 -10 -12   20.62    1.16
  -2 -10 -12   35.37    1.47
  -3 -10 -12   -0.05    0.31
   3  10  12    0.02    0.36
  -4 -10 -12   62.10    2.08
  -4 -10 -12   68.34    2.14
   4  10  12   65.25    2.10
  -5 -10 -12   17.49    1.14
  -5 -10 -12   17.27    1.10
  -6 -10 -12    0.28    0.34
   6  10  12   -0.24    0.38
  -7 -10 -12   26.88    1.47
   7  10  12   26.24    1.39
  -8 -10 -12    4.53    0.77
   8  10  12    3.22    0.63
  -9 -10 -12    6.70    1.44
   2 -11 -12   21.20    1.24
   1 -11 -12   18.77    1.15
   0 -11 -12    3.30    0.58
  -1 -11 -12   34.28    1.49
  -2 -11 -12   18.13    1.12
  -3 -11 -12   11.73    1.00
   3  11  12   11.13    1.05
  -4 -11 -12   61.24    2.06
   4  11  12   57.50    2.03
  -5 -11 -12   24.74    1.33
  -5 -11 -12   23.26    1.28
   5  11  12   23.58    1.33
  -6 -11 -12    2.21    0.54
   6  11  12    0.62    0.49
  -7 -11 -12   32.42    1.66
   7  11  12   31.00    1.56
  -8 -11 -12    7.41    0.96
   1 -12 -12   10.63    0.97
   0 -12 -12    8.41    0.90
  -1 -12 -12   31.43    1.49
  -2 -12 -12    5.97    0.73
   2  12  12    6.45    0.74
  -3 -12 -12   17.10    1.20
   3  12  12   18.58    1.25
  -4 -12 -12   17.54    1.18
   4  12  12   18.25    1.23
  -5 -12 -12    3.73    0.67
  -5 -12 -12    2.38    0.56
   5  12  12    2.46    0.61
  -6 -12 -12    8.80    1.00
  -7 -12 -12    8.83    1.10
  -2 -13 -12    0.44    0.54
  -5 -13 -12    0.88    0.47
   3  -3  13    2.20    0.60
   4  -3  13    1.68    0.60
   5  -3  13   40.73    2.44
  -2   2 -13   32.00    1.58
  -3   2 -13    1.38    0.51
   3  -2  13    1.14    0.52
  -4   2 -13   24.70    1.33
   4  -2  13   23.82    1.39
  -5   2 -13   32.91    1.54
   5  -2  13   35.88    1.69
  -6   2 -13    3.77    0.64
   6  -2  13    3.06    0.69
  -7   2 -13   13.14    1.06
   7  -2  13    9.97    1.18
  -8   2 -13   11.29    1.03
   0   1 -13    3.17    0.70
  -1   1 -13   15.97    1.10
  -2   1 -13   22.02    1.24
  -3   1 -13    3.41    0.62
   3  -1  13    2.99    0.61
  -4   1 -13   14.50    1.03
   4  -1  13   14.63    1.08
  -5   1 -13   14.16    1.03
   5  -1  13   15.84    1.15
  -6   1 -13    0.64    0.40
   6  -1  13    0.89    0.47
  -7   1 -13   20.55    1.20
   7  -1  13   21.98    1.34
  -8   1 -13   18.51    1.15
   8  -1  13   17.42    1.27
   1   0 -13   17.15    1.16
   0   0 -13   -0.02    0.39
  -1   0 -13   17.23    1.09
  -2   0 -13   11.99    0.95
  -3   0 -13    4.03    0.62
   3   0  13    4.32    0.65
  -4   0 -13   32.42    1.41
   4   0  13   34.20    1.50
  -5   0 -13   11.09    0.91
   5   0  13   11.71    1.01
  -6   0 -13    3.28    0.55
   6   0  13    1.96    0.56
  -7   0 -13   18.91    1.09
   7   0  13   19.22    1.23
   8   0  13    1.35    0.52
   9   0  13   10.52    1.04
   2  -1 -13   26.30    1.41
   1  -1 -13   18.88    1.18
   0  -1 -13    1.88    0.51
  -1  -1 -13   19.96    1.13
  -2  -1 -13    6.61    0.73
  -3  -1 -13    9.18    0.85
   3   1  13    9.72    0.87
  -4  -1 -13   51.48    1.74
   4   1  13   60.13    1.95
  -5  -1 -13    0.86    0.38
   5   1  13    0.96    0.42
  -6  -1 -13    9.40    0.82
   6   1  13   11.51    0.95
   7   1  13   42.19    1.73
   8   1  13    0.15    0.35
   9   1  13   15.80    1.17
  10   1  13   31.50    2.36
   2  -2 -13   34.43    1.53
   1  -2 -13    4.06    0.65
   0  -2 -13   11.21    0.91
  -1  -2 -13   35.70    1.42
  -2  -2 -13    3.11    0.55
  -3  -2 -13   21.27    1.07
   3   2  13   20.14    1.10
  -4  -2 -13   26.10    1.17
   4   2  13   26.45    1.25
  -5  -2 -13   -0.01    0.30
   5   2  13   -0.23    0.31
  -6  -2 -13   26.84    1.79
   6   2  13   25.88    1.30
   7   2  13   19.62    1.19
   8   2  13    0.73    0.44
 -10  -2 -13   16.71    1.20
   3  -3 -13   12.92    1.07
   2  -3 -13   38.74    1.62
   1  -3 -13    2.87    0.55
   0  -3 -13   15.99    1.01
  -1  -3 -13   60.65    1.88
  -2  -3 -13    0.35    0.35
  -3  -3 -13   35.15    1.32
   3   3  13   35.22    1.75
  -4  -3 -13   37.07    1.34
   4   3  13   36.54    1.44
  -5  -3 -13   -0.06    0.28
   5   3  13   -0.03    0.32
  -7  -3 -13    5.45    0.69
  -8  -3 -13    8.86    0.88
  -9  -3 -13   47.32    1.83
 -10  -3 -13    5.76    0.78
   4  -4 -13    0.75    0.40
   3  -4 -13   21.37    1.22
   3  -4 -13   21.61    1.28
   2  -4 -13   32.67    1.42
   2  -4 -13   33.65    1.48
   1  -4 -13    0.54    0.43
   1  -4 -13    0.58    0.35
   0  -4 -13   11.39    0.92
   0  -4 -13   10.97    0.85
  -1  -4 -13   19.07    1.04
  -1  -4 -13   15.94    0.98
  -2  -4 -13    2.49    0.47
  -3  -4 -13   40.21    1.41
  -4  -4 -13    5.81    0.62
  -5  -4 -13    8.89    0.82
  -6  -4 -13   32.70    1.37
  -7  -4 -13    5.25    0.69
  -8  -4 -13   14.95    1.07
 -10  -4 -13   -0.29    0.36
   4  -5 -13    2.27    0.54
   3  -5 -13   27.72    1.36
   2  -5 -13   24.91    1.30
   2  -5 -13   24.86    1.25
   1  -5 -13    0.73    0.43
   1  -5 -13    0.33    0.32
   0  -5 -13   28.71    1.28
   0  -5 -13   30.48    1.34
  -1  -5 -13    0.21    0.28
  -1  -5 -13    0.32    0.34
  -2  -5 -13   28.69    1.20
  -2  -5 -13   28.29    1.23
  -3  -5 -13   70.02    2.00
  -3  -5 -13   71.86    1.93
  -4  -5 -13    6.86    0.65
  -4  -5 -13    7.56    0.71
   4   5  13    7.88    0.72
  -5  -5 -13    1.31    0.38
  -5  -5 -13    1.39    0.45
   5   5  13    1.77    0.39
  -6  -5 -13   24.27    1.16
  -6  -5 -13   21.89    1.15
   6   5  13   25.73    1.14
  -7  -5 -13    3.23    0.55
   7   5  13    3.35    0.63
  -8  -5 -13   41.14    1.69
  -9  -5 -13   25.79    1.39
 -10  -5 -13    1.09    0.48
   4  -6 -13    4.09    0.65
   3  -6 -13   35.31    1.56
   2  -6 -13   22.96    1.25
   1  -6 -13   11.24    0.91
   1  -6 -13   13.37    1.00
   0  -6 -13   30.14    1.33
   0  -6 -13   31.91    1.35
  -1  -6 -13   10.24    0.82
  -1  -6 -13   10.48    0.83
  -2  -6 -13   17.85    1.02
  -2  -6 -13   19.14    1.00
  -3  -6 -13   19.75    1.04
  -4  -6 -13    0.65    0.31
  -4  -6 -13    0.00    0.29
   4   6  13   -0.13    0.31
  -5  -6 -13   36.84    1.42
  -5  -6 -13   36.18    1.43
   5   6  13   34.43    1.39
  -6  -6 -13   47.90    1.64
  -6  -6 -13   48.10    1.71
   6   6  13   51.55    1.71
  -7  -6 -13    2.04    0.49
   7   6  13    1.67    0.45
  -8  -6 -13   31.26    1.50
   8   6  13   34.35    1.44
  -9  -6 -13   19.46    1.25
   9   6  13   18.56    1.18
 -10  -6 -13    2.46    0.61
  10   6  13    2.39    0.60
   4  -7 -13    5.19    0.90
   3  -7 -13   18.11    1.16
   2  -7 -13    7.09    0.77
   1  -7 -13   30.19    1.37
   0  -7 -13   29.09    1.31
  -1  -7 -13    0.20    0.29
  -2  -7 -13   11.15    0.87
  -3  -7 -13    3.53    0.53
  -4  -7 -13    0.15    0.40
  -4  -7 -13   -0.04    0.29
   4   7  13   -0.10    0.31
  -5  -7 -13   45.21    1.65
  -5  -7 -13   46.70    1.65
   5   7  13   47.57    1.66
  -6  -7 -13   12.28    0.95
  -6  -7 -13   14.21    0.94
   6   7  13   15.28    1.02
  -7  -7 -13    9.36    0.86
   7   7  13    7.24    0.75
  -8  -7 -13   24.42    1.36
   8   7  13   25.92    1.30
  -9  -7 -13    3.37    0.63
   9   7  13    3.07    0.60
 -10  -7 -13    5.42    0.83
  10   7  13    6.48    0.79
  11   7  13   19.77    1.36
   3  -8 -13   46.28    1.82
   2  -8 -13   -0.33    0.27
   1  -8 -13   17.22    1.09
   0  -8 -13   29.10    1.36
  -1  -8 -13    4.81    0.61
  -2  -8 -13   21.07    1.14
  -3  -8 -13    6.44    0.71
  -4  -8 -13    3.22    0.55
   4   8  13    3.63    0.57
  -5  -8 -13   29.67    1.36
  -5  -8 -13   31.77    1.38
   5   8  13   31.00    1.38
  -6  -8 -13    2.25    0.50
  -6  -8 -13    1.87    0.45
   6   8  13    1.50    0.46
  -7  -8 -13   18.45    1.17
   7   8  13   21.81    1.24
  -8  -8 -13   22.69    1.36
   8   8  13   24.86    1.34
  -9  -8 -13   -0.03    0.38
   9   8  13   -0.48    0.41
  10   8  13   21.09    1.36
   3  -9 -13   23.89    1.52
   2  -9 -13    0.40    0.37
   1  -9 -13   25.21    1.30
   0  -9 -13    3.45    0.56
  -1  -9 -13   14.42    1.03
  -2  -9 -13   24.50    1.26
  -3  -9 -13   11.03    0.91
  -4  -9 -13   15.01    1.03
   4   9  13   14.26    1.01
  -5  -9 -13   16.14    1.10
  -5  -9 -13   16.96    1.09
   5   9  13   16.77    1.12
  -6  -9 -13    0.07    0.33
  -6  -9 -13   -0.53    0.29
   6   9  13   -0.27    0.37
  -7  -9 -13   21.95    1.32
   7   9  13   23.68    1.31
  -8  -9 -13   20.89    1.35
   8   9  13   20.28    1.28
  -9  -9 -13    0.87    0.50
   9   9  13    0.21    0.49
   2 -10 -13    4.96    0.70
   1 -10 -13   19.56    1.20
   0 -10 -13    2.87    0.52
  -1 -10 -13   21.30    1.22
  -2 -10 -13   22.25    1.22
  -3 -10 -13    0.34    0.35
   3  10  13    0.35    0.36
  -4 -10 -13   14.07    1.06
   4  10  13   16.19    1.09
  -5 -10 -13    5.89    0.76
  -5 -10 -13    6.42    0.77
   5  10  13    4.56    0.68
  -6 -10 -13    0.72    0.42
  -6 -10 -13   -0.02    0.37
   6  10  13    0.15    0.46
  -7 -10 -13   21.95    1.38
   7  10  13   21.53    1.32
  -8 -10 -13   13.27    1.21
   8  10  13    8.76    0.92
   1 -11 -13   18.02    1.26
   0 -11 -13   -0.02    0.33
  -1 -11 -13   16.92    1.12
  -2 -11 -13   21.70    1.25
  -3 -11 -13    4.98    0.70
   3  11  13    5.67    0.73
  -4 -11 -13   22.36    1.32
   4  11  13   26.15    1.41
  -5 -11 -13    1.44    0.52
   5  11  13    3.45    0.66
  -6 -11 -13    8.26    0.94
   6  11  13    6.33    0.80
  -7 -11 -13   36.56    1.78
  -2 -12 -13    5.14    0.73
   2  12  13    6.35    0.86
  -3 -12 -13    7.06    0.86
   3  12  13    8.39    0.94
  -4 -12 -13   23.77    1.78
   4  12  13   23.93    1.80
  -6 -12 -13    6.62    0.89
  -4   1 -14    7.12    0.92
   4  -1  14    5.82    0.78
  -5   1 -14   24.20    1.35
   5  -1  14   27.15    1.51
  -6   1 -14   -0.21    0.37
   6  -1  14   -0.32    0.44
  -7   1 -14    6.90    0.81
  -2   0 -14   23.61    1.30
  -3   0 -14    0.78    0.45
  -4   0 -14   23.52    1.28
   4   0  14   23.91    1.35
  -5   0 -14   11.58    0.99
   5   0  14   12.52    1.07
  -6   0 -14    1.26    0.47
   6   0  14    0.83    0.49
  -7   0 -14   23.93    1.26
   7   0  14   24.11    1.44
   0  -1 -14   -0.54    0.46
  -1  -1 -14   23.37    1.28
  -2  -1 -14   17.42    1.13
  -3  -1 -14    2.99    0.57
  -4  -1 -14   35.28    1.47
   4   1  14   36.16    1.57
  -5  -1 -14    6.49    0.73
   5   1  14    6.32    0.78
  -6  -1 -14    8.67    0.84
   6   1  14    7.28    0.86
   7   1  14   17.20    1.19
   8   1  14    0.90    0.48
   1  -2 -14    4.85    1.01
   0  -2 -14    4.39    0.68
  -1  -2 -14   26.35    1.33
  -2  -2 -14   16.86    1.07
  -3  -2 -14    9.07    0.84
  -4  -2 -14   42.23    1.56
   4   2  14   42.13    1.67
  -5  -2 -14    1.04    0.40
   5   2  14    1.23    0.45
   6   2  14   16.64    1.10
   7   2  14   23.87    1.34
   8   2  14   -0.27    0.35
   9   2  14   23.92    1.53
   1  -3 -14    2.11    0.57
   0  -3 -14    8.29    0.84
  -1  -3 -14   38.24    1.56
  -2  -3 -14    3.04    0.56
  -3  -3 -14   21.73    1.13
  -4  -3 -14   40.14    1.47
   4   3  14   38.28    1.70
   5   3  14   -0.28    0.30
   6   3  14   10.08    0.91
   7   3  14   14.76    1.07
  -9  -3 -14   25.38    1.40
   2  -4 -14   15.11    1.27
   1  -4 -14    0.15    0.38
   0  -4 -14   27.58    1.36
  -1  -4 -14   56.59    1.88
  -2  -4 -14   -0.33    0.31
  -3  -4 -14   21.12    1.08
   5   4  14   10.17    0.89
  -6  -4 -14   45.47    1.69
  -7  -4 -14   19.04    1.17
  -8  -4 -14    6.69    0.80
  -9  -4 -14   29.11    1.49
   3  -5 -14    7.76    0.87
   2  -5 -14    7.90    0.89
   2  -5 -14    7.31    0.81
   1  -5 -14   -0.64    0.34
   1  -5 -14   -0.29    0.27
   0  -5 -14   26.79    1.31
   0  -5 -14   25.49    1.26
  -1  -5 -14   23.58    1.24
  -1  -5 -14   21.74    1.19
  -2  -5 -14    2.06    0.47
  -3  -5 -14   26.04    1.54
  -5  -5 -14    3.05    0.56
  -6  -5 -14   22.32    1.21
  -7  -5 -14    1.92    0.49
  -8  -5 -14   14.54    1.12
  -9  -5 -14   20.59    1.31
   3  -6 -14   12.29    1.05
   2  -6 -14    4.43    0.66
   1  -6 -14    1.64    0.54
   1  -6 -14    2.00    0.48
   0  -6 -14   38.11    1.54
   0  -6 -14   35.15    1.49
  -1  -6 -14   -0.26    0.33
  -1  -6 -14   -0.19    0.29
  -2  -6 -14   34.34    1.63
  -2  -6 -14   33.27    1.43
  -3  -6 -14   42.64    1.60
  -4  -6 -14    0.29    0.34
   4   6  14    0.67    0.36
  -5  -6 -14   17.26    1.05
  -5  -6 -14   18.11    1.09
   5   6  14   19.88    1.11
  -6  -6 -14   25.24    1.26
  -6  -6 -14   23.24    1.25
   6   6  14   26.87    1.26
  -7  -6 -14    0.43    0.39
   7   6  14   -0.29    0.44
  -8  -6 -14   34.44    1.59
  -9  -6 -14   22.49    1.36
   2  -7 -14    5.74    0.73
   1  -7 -14   14.43    1.05
   0  -7 -14   26.61    1.33
  -1  -7 -14    2.78    0.52
  -2  -7 -14   27.18    1.32
  -3  -7 -14   28.28    1.34
  -4  -7 -14   -0.02    0.32
   4   7  14   -0.04    0.34
  -5  -7 -14   29.44    1.37
  -5  -7 -14   26.51    1.46
   5   7  14   30.45    1.37
  -6  -7 -14   21.28    1.18
  -6  -7 -14   19.27    1.13
   6   7  14   17.45    1.12
  -7  -7 -14    5.24    0.72
   7   7  14    5.36    0.70
  -8  -7 -14   29.59    1.54
   8   7  14   32.24    1.49
  -9  -7 -14   19.20    1.30
   9   7  14   18.98    1.26
  10   7  14    3.34    0.76
   2  -8 -14    1.18    0.46
   1  -8 -14   29.22    1.44
   0  -8 -14   14.81    1.08
  -1  -8 -14   -0.52    0.28
  -2  -8 -14   28.14    1.38
  -3  -8 -14   13.42    1.00
  -4  -8 -14    2.57    0.55
   4   8  14    2.42    0.51
  -5  -8 -14   24.04    1.30
   5   8  14   27.17    1.34
  -6  -8 -14    2.73    0.51
  -6  -8 -14    3.39    0.54
   6   8  14    3.12    0.56
  -7  -8 -14   15.09    1.11
   7   8  14   13.50    1.07
  -8  -8 -14   24.13    1.40
   8   8  14   23.26    1.35
  -9  -8 -14    1.71    0.86
   9   8  14    1.68    0.59
   1  -9 -14   11.87    1.00
   0  -9 -14   10.80    0.97
  -1  -9 -14    6.16    0.74
  -2  -9 -14   37.82    1.61
  -3  -9 -14    4.66    0.70
  -4  -9 -14   15.54    1.14
   4   9  14   17.90    1.16
  -5  -9 -14   32.69    1.52
   5   9  14   33.65    1.53
  -6  -9 -14   -0.09    0.36
  -6  -9 -14   -0.14    0.36
   6   9  14    0.06    0.43
  -7  -9 -14   14.61    1.16
   7   9  14   12.71    1.13
  -8  -9 -14   15.93    1.24
   8   9  14   15.00    1.20
   0 -10 -14    1.45    0.49
  -1 -10 -14   11.81    1.02
  -2 -10 -14   22.76    1.29
  -3 -10 -14    0.83    0.43
   3  10  14    0.59    0.44
  -4 -10 -14   29.61    1.50
   4  10  14   32.39    1.53
  -5 -10 -14   19.97    1.25
   5  10  14   20.08    1.26
  -6 -10 -14    1.14    0.47
  -6 -10 -14    0.66    0.42
   6  10  14    0.06    0.45
  -7 -10 -14   35.96    1.73
   7  10  14   32.05    1.73
  -2 -11 -14   15.50    1.25
  -3 -11 -14    0.79    0.45
   3  11  14    0.79    0.51
  -4 -11 -14   31.36    1.67
   4  11  14   31.58    1.67
  -7 -11 -14   24.52    1.64
  -3  -1 -15   -0.15    0.49
  -4  -1 -15   19.48    1.20
  -5  -1 -15    5.65    0.72
   5   1  15    5.25    0.76
  -6  -1 -15    6.08    0.89
   6   1  15    5.73    0.80
  -2  -2 -15    4.04    0.66
  -3  -2 -15    6.52    0.76
  -4  -2 -15   26.28    1.29
  -5  -2 -15    2.75    0.54
   5   2  15    2.49    0.57
   6   2  15   18.59    1.23
   7   2  15   17.37    1.25
  -1  -3 -15   27.84    1.40
  -2  -3 -15   10.13    0.93
  -3  -3 -15    8.31    0.83
  -4  -3 -15   19.68    1.13
   5   3  15    0.61    0.49
   6   3  15   19.57    1.23
   7   3  15    8.46    0.94
   8   3  15   -0.05    0.39
   0  -4 -15   14.12    1.10
  -1  -4 -15   12.43    1.04
  -2  -4 -15    2.83    0.57
  -3  -4 -15   22.26    1.17
   6   4  15    5.78    0.72
   7   4  15    4.48    0.70
  -8  -4 -15   15.18    1.16
   0  -5 -15   27.27    1.39
  -1  -5 -15   17.26    1.15
  -2  -5 -15    2.94    0.57
  -6  -5 -15   16.15    1.09
  -7  -5 -15    7.72    0.87
  -8  -5 -15    4.77    0.75
   1  -6 -15    9.69    0.96
   1  -6 -15    9.81    1.07
   0  -6 -15   38.37    1.64
   0  -6 -15   37.83    1.63
  -1  -6 -15    8.63    0.97
  -1  -6 -15    8.79    0.88
  -6  -6 -15   20.65    1.22
  -7  -6 -15   -0.49    0.33
  -8  -6 -15   15.34    1.17
   1  -7 -15   13.30    1.05
   0  -7 -15   30.05    1.45
  -1  -7 -15    1.24    0.47
  -2  -7 -15   17.04    1.15
  -3  -7 -15   17.54    1.15
  -4  -7 -15   -0.35    0.33
   4   7  15   -0.40    0.33
  -5  -7 -15   23.91    1.31
   5   7  15   23.59    1.27
  -6  -7 -15   13.04    1.05
  -6  -7 -15   13.82    1.15
   6   7  15   13.20    1.00
  -7  -7 -15   -0.30    0.36
  -8  -7 -15   12.65    1.13
   0  -8 -15   36.46    1.63
  -1  -8 -15   -0.01    0.36
  -2  -8 -15   15.96    1.16
  -3  -8 -15   22.06    1.29
  -4  -8 -15    0.47    0.41
   4   8  15    0.95    0.45
  -5  -8 -15   18.85    1.20
   5   8  15   20.93    1.22
  -6  -8 -15    6.22    0.76
   6   8  15    5.79    0.74
  -7  -8 -15    4.21    0.70
   7   8  15    3.65    0.68
  -8  -8 -15   17.80    1.30
   8   8  15   18.68    1.27
  -1  -9 -15    0.57    0.45
  -2  -9 -15   29.23    1.47
  -3  -9 -15   11.46    1.03
  -4  -9 -15    1.55    0.51
   4   9  15    2.77    0.57
  -5  -9 -15   15.86    1.16
   5   9  15   16.29    1.15
  -6  -9 -15    5.09    0.70
   6   9  15    5.35    0.73
  -7  -9 -15    7.29    0.88
   7   9  15    6.79    0.81
  -3 -10 -15    1.74    0.76
   3  10  15    0.61    0.51
  -4 -10 -15    1.11    0.55
   4  10  15    1.33    0.53
  -3  -4 -16    8.13    0.97
  -2  -5 -16    1.26    0.53
  -7  -6 -16    0.15    0.42
  -2  -8 -16   15.39    1.28
  -3  -8 -16   22.99    1.36
  -4  -8 -16   -0.23    0.39
   4   8  16    0.02    0.40
  -5  -8 -16   13.29    1.14
   5   8  16   13.59    1.11
   6   8  16    5.36    0.81
   0   0   0    0.00    0.00
;
_shelx_hkl_checksum              24746
_olex2_submission_special_instructions 'No special instructions were received'
loop_
_space_group_symop_operation_xyz
'x, y, z'
'-x, -y, -z'
loop_
_atom_site_label
_atom_site_type_symbol
_atom_site_fract_x
_atom_site_fract_y
_atom_site_fract_z
_atom_site_U_iso_or_equiv
_atom_site_adp_type
_atom_site_occupancy
_atom_site_site_symmetry_order
_atom_site_calc_flag
_atom_site_refinement_flags_posn
_atom_site_refinement_flags_adp
_atom_site_refinement_flags_occupancy
_atom_site_disorder_assembly
_atom_site_disorder_group
Gd1 Gd 0.32110(2) 0.45376(2) 0.51961(2) 0.01819(7) Uani 1 1 d . . . . .
O1 O 0.5169(2) 0.6477(2) 0.0255(2) 0.0330(5) Uani 1 1 d . . . . .
O2 O 0.5507(2) 0.9408(2) 0.2006(2) 0.0289(5) Uani 1 1 d . . . . .
O3 O 0.1561(2) 0.8528(3) 0.1469(2) 0.0357(6) Uani 1 1 d . . . . .
O4 O 0.5474(2) 0.5303(2) 0.36642(18) 0.0241(5) Uani 1 1 d . . . . .
O5 O 0.3981(2) 0.4821(2) 0.30372(19) 0.0306(5) Uani 1 1 d . . . . .
O6 O 0.3566(2) 0.6741(2) 0.4773(2) 0.0305(5) Uani 1 1 d . . . . .
O7 O 0.5647(2) 0.7261(2) 0.4442(2) 0.0292(5) Uani 1 1 d . . . . .
O8 O -0.1686(2) 0.6161(3) 0.2923(2) 0.0400(6) Uani 1 1 d . . . . .
O9 O 0.0341(3) 0.5920(3) 0.2865(2) 0.0507(7) Uani 1 1 d . . . . .
O10 O 0.1816(2) 0.3000(2) 0.5130(2) 0.0394(6) Uani 1 1 d . . . . .
O11A O 0.1414(11) 0.5571(14) 0.4683(18) 0.048(4) Uani 0.67(4) 1 d . . P A 1
H11A H 0.128691 0.546082 0.407797 0.072 Uiso 0.67(4) 1 d GR . P A 1
H11B H 0.153696 0.639428 0.446744 0.072 Uiso 0.67(4) 1 d GR . P A 1
O11B O 0.1850(19) 0.5994(14) 0.407(2) 0.033(4) Uani 0.33(4) 1 d . . P A 2
H11C H 0.209114 0.678119 0.387225 0.049 Uiso 0.33(4) 1 d GR . P A 2
H11D H 0.106585 0.579638 0.454752 0.049 Uiso 0.33(4) 1 d GR . P A 2
N1 N 0.0306(3) 0.2378(3) 0.4535(3) 0.0371(7) Uani 1 1 d . . . . .
C1 C 0.4670(3) 0.7313(3) 0.0774(3) 0.0258(7) Uani 1 1 d . . . . .
C2 C 0.5380(3) 0.7949(3) 0.1152(3) 0.0251(7) Uani 1 1 d . . . . .
H2 H 0.623607 0.782750 0.108452 0.030 Uiso 1 1 calc R . . . .
C3 C 0.4767(3) 0.8779(3) 0.1640(3) 0.0226(6) Uani 1 1 d . . . . .
C4 C 0.3505(3) 0.8990(3) 0.1717(3) 0.0263(7) Uani 1 1 d . . . . .
H4 H 0.310992 0.955384 0.203504 0.032 Uiso 1 1 calc R . . . .
C5 C 0.2841(3) 0.8338(3) 0.1308(3) 0.0269(7) Uani 1 1 d . . . . .
C6 C 0.3409(3) 0.7498(3) 0.0832(3) 0.0271(7) Uani 1 1 d . . . . .
H6 H 0.295495 0.706950 0.055872 0.032 Uiso 1 1 calc R . . . .
C7 C 0.6140(3) 0.5761(3) 0.0560(3) 0.0249(7) Uani 1 1 d . . . . .
C8 C 0.6165(3) 0.5111(3) 0.1764(3) 0.0226(6) Uani 1 1 d . . . . .
C9 C 0.7172(3) 0.4372(3) 0.1953(3) 0.0315(7) Uani 1 1 d . . . . .
H9 H 0.722343 0.395442 0.274309 0.038 Uiso 1 1 calc R . . . .
C10 C 0.8095(4) 0.4251(4) 0.0985(4) 0.0392(9) Uani 1 1 d . . . . .
H10 H 0.874896 0.374094 0.112838 0.047 Uiso 1 1 calc R . . . .
C11 C 0.8039(4) 0.4891(4) -0.0194(4) 0.0396(9) Uani 1 1 d . . . . .
H11 H 0.865252 0.480684 -0.084617 0.047 Uiso 1 1 calc R . . . .
C12 C 0.7076(4) 0.5652(3) -0.0404(3) 0.0350(8) Uani 1 1 d . . . . .
H12 H 0.705421 0.609768 -0.120240 0.042 Uiso 1 1 calc R . . . .
C13 C 0.5138(3) 0.5098(3) 0.2866(3) 0.0203(6) Uani 1 1 d . . . . .
C14 C 0.4825(3) 0.9810(3) 0.2911(3) 0.0268(7) Uani 1 1 d . . . . .
C15 C 0.4300(3) 0.8905(3) 0.4117(3) 0.0243(7) Uani 1 1 d . . . . .
C16 C 0.3602(3) 0.9316(3) 0.4989(3) 0.0306(7) Uani 1 1 d . . . . .
H16 H 0.322751 0.871921 0.579825 0.037 Uiso 1 1 calc R . . . .
C17 C 0.3453(4) 1.0604(3) 0.4675(4) 0.0360(8) Uani 1 1 d . . . . .
H17 H 0.297656 1.086831 0.526686 0.043 Uiso 1 1 calc R . . . .
C18 C 0.4019(4) 1.1484(3) 0.3475(4) 0.0429(9) Uani 1 1 d . . . . .
H18 H 0.394590 1.235065 0.326490 0.051 Uiso 1 1 calc R . . . .
C19 C 0.4696(4) 1.1098(3) 0.2577(3) 0.0361(8) Uani 1 1 d . . . . .
H19 H 0.505692 1.169384 0.176477 0.043 Uiso 1 1 calc R . . . .
C20 C 0.4528(3) 0.7518(3) 0.4465(3) 0.0243(7) Uani 1 1 d . . . . .
C21 C 0.1000(3) 0.8413(3) 0.0657(3) 0.0281(7) Uani 1 1 d . . . . .
C22 C -0.0062(3) 0.7503(3) 0.1120(3) 0.0257(7) Uani 1 1 d . . . . .
C23 C -0.0728(3) 0.7563(4) 0.0320(3) 0.0338(8) Uani 1 1 d . . . . .
H23 H -0.146426 0.699421 0.061218 0.041 Uiso 1 1 calc R . . . .
C24 C -0.0323(4) 0.8443(4) -0.0894(3) 0.0438(9) Uani 1 1 d . . . . .
H24 H -0.078053 0.846174 -0.141194 0.053 Uiso 1 1 calc R . . . .
C25 C 0.0771(4) 0.9301(4) -0.1340(4) 0.0481(10) Uani 1 1 d . . . . .
H25 H 0.106384 0.988004 -0.216366 0.058 Uiso 1 1 calc R . . . .
C26 C 0.1425(3) 0.9292(4) -0.0557(3) 0.0408(9) Uani 1 1 d . . . . .
H26 H 0.214836 0.987699 -0.084741 0.049 Uiso 1 1 calc R . . . .
C27 C -0.0483(3) 0.6460(3) 0.2407(3) 0.0305(7) Uani 1 1 d . . . . .
C28 C 0.1316(3) 0.3117(3) 0.4342(3) 0.0359(8) Uani 1 1 d . . . . .
H28 H 0.167907 0.377089 0.355939 0.043 Uiso 1 1 calc R . . . .
C29 C -0.0271(5) 0.2634(5) 0.3571(4) 0.0666(14) Uani 1 1 d . . . . .
H29A H -0.112866 0.284766 0.382715 0.100 Uiso 1 1 calc GR . . . .
H29B H -0.030051 0.188540 0.341899 0.100 Uiso 1 1 calc GR . . . .
H29C H 0.023584 0.333727 0.283082 0.100 Uiso 1 1 calc GR . . . .
C30 C -0.0351(5) 0.1396(5) 0.5726(4) 0.0722(15) Uani 1 1 d . . . . .
H30A H -0.005536 0.058834 0.578194 0.108 Uiso 1 1 calc GR . . . .
H30B H -0.125939 0.134705 0.585628 0.108 Uiso 1 1 calc GR . . . .
H30C H -0.017847 0.159295 0.634048 0.108 Uiso 1 1 calc GR . . . .
loop_
_atom_site_aniso_label
_atom_site_aniso_U_11
_atom_site_aniso_U_22
_atom_site_aniso_U_33
_atom_site_aniso_U_23
_atom_site_aniso_U_13
_atom_site_aniso_U_12
Gd1 0.01568(9) 0.01717(9) 0.02004(9) -0.00723(6) -0.00434(6) 0.00099(6)
O1 0.0388(14) 0.0420(14) 0.0331(13) -0.0256(11) -0.0191(11) 0.0179(11)
O2 0.0228(12) 0.0312(12) 0.0353(12) -0.0183(10) -0.0067(10) -0.0017(9)
O3 0.0178(12) 0.0558(16) 0.0435(14) -0.0319(13) -0.0083(10) 0.0050(11)
O4 0.0224(11) 0.0286(12) 0.0208(10) -0.0105(9) -0.0058(9) -0.0002(9)
O5 0.0188(12) 0.0451(14) 0.0272(11) -0.0162(11) -0.0048(9) -0.0022(10)
O6 0.0265(12) 0.0203(11) 0.0428(13) -0.0108(10) -0.0121(10) 0.0010(9)
O7 0.0268(12) 0.0182(11) 0.0429(13) -0.0115(10) -0.0136(10) 0.0056(9)
O8 0.0241(13) 0.0559(16) 0.0319(13) -0.0184(12) 0.0025(10) -0.0115(11)
O9 0.0412(16) 0.0574(18) 0.0397(15) -0.0063(13) -0.0152(13) 0.0116(13)
O10 0.0373(14) 0.0412(15) 0.0480(15) -0.0230(12) -0.0181(12) -0.0040(11)
O11A 0.045(5) 0.044(5) 0.079(8) -0.036(6) -0.042(6) 0.026(4)
O11B 0.043(7) 0.019(5) 0.030(9) -0.003(5) -0.015(6) -0.002(5)
N1 0.0299(16) 0.0424(18) 0.0449(17) -0.0243(15) -0.0113(14) -0.0020(13)
C1 0.0294(17) 0.0271(16) 0.0186(15) -0.0084(13) -0.0063(13) 0.0034(13)
C2 0.0195(16) 0.0285(17) 0.0247(15) -0.0092(13) -0.0067(13) 0.0037(13)
C3 0.0244(16) 0.0189(15) 0.0200(14) -0.0046(12) -0.0056(13) -0.0030(12)
C4 0.0222(16) 0.0293(17) 0.0290(16) -0.0153(14) -0.0064(13) 0.0041(13)
C5 0.0177(16) 0.0319(17) 0.0255(16) -0.0099(14) -0.0023(13) -0.0011(13)
C6 0.0279(17) 0.0292(17) 0.0266(16) -0.0141(14) -0.0086(14) -0.0008(13)
C7 0.0246(17) 0.0270(17) 0.0263(16) -0.0150(14) -0.0073(13) 0.0036(13)
C8 0.0202(15) 0.0228(16) 0.0280(16) -0.0146(13) -0.0065(13) 0.0006(12)
C9 0.0340(19) 0.0294(18) 0.0343(18) -0.0159(15) -0.0122(15) 0.0072(14)
C10 0.0298(19) 0.042(2) 0.050(2) -0.0270(19) -0.0098(17) 0.0145(16)
C11 0.032(2) 0.047(2) 0.041(2) -0.0302(18) 0.0029(16) 0.0063(17)
C12 0.040(2) 0.040(2) 0.0266(17) -0.0195(15) -0.0041(15) 0.0036(16)
C13 0.0214(16) 0.0183(15) 0.0214(15) -0.0089(12) -0.0063(12) 0.0027(12)
C14 0.0272(17) 0.0240(16) 0.0353(17) -0.0151(14) -0.0147(14) 0.0026(13)
C15 0.0207(16) 0.0231(16) 0.0332(17) -0.0137(14) -0.0116(13) 0.0029(12)
C16 0.0297(18) 0.0287(18) 0.0356(18) -0.0153(15) -0.0110(15) 0.0026(14)
C17 0.038(2) 0.0336(19) 0.052(2) -0.0297(17) -0.0187(17) 0.0118(15)
C18 0.055(2) 0.0232(18) 0.062(3) -0.0211(18) -0.030(2) 0.0126(17)
C19 0.048(2) 0.0204(17) 0.040(2) -0.0086(15) -0.0202(17) 0.0015(15)
C20 0.0278(17) 0.0186(15) 0.0257(16) -0.0083(13) -0.0090(13) 0.0036(13)
C21 0.0183(16) 0.0330(18) 0.0347(18) -0.0179(15) -0.0060(14) 0.0045(13)
C22 0.0169(15) 0.0317(17) 0.0282(16) -0.0154(14) -0.0034(13) 0.0060(13)
C23 0.0244(17) 0.043(2) 0.0383(19) -0.0204(17) -0.0107(15) 0.0042(15)
C24 0.040(2) 0.058(3) 0.039(2) -0.0211(19) -0.0198(18) 0.0115(19)
C25 0.046(2) 0.050(2) 0.031(2) -0.0030(18) -0.0082(18) 0.0091(19)
C26 0.0276(19) 0.034(2) 0.042(2) -0.0059(17) -0.0011(16) -0.0033(15)
C27 0.0265(18) 0.0372(19) 0.0283(17) -0.0168(15) -0.0051(15) 0.0013(15)
C28 0.034(2) 0.034(2) 0.040(2) -0.0188(16) -0.0088(16) 0.0045(15)
C29 0.065(3) 0.079(4) 0.059(3) -0.025(3) -0.028(2) -0.009(3)
C30 0.078(4) 0.074(3) 0.052(3) -0.016(3) -0.016(3) -0.028(3)
loop_
_atom_type_symbol
_atom_type_description
_atom_type_scat_dispersion_real
_atom_type_scat_dispersion_imag
_atom_type_scat_source
C C 0.0033 0.0016 'International Tables Vol C Tables 4.2.6.8 and 6.1.1.4'
H H 0.0000 0.0000 'International Tables Vol C Tables 4.2.6.8 and 6.1.1.4'
Gd Gd -0.1653 3.9035 'International Tables Vol C Tables 4.2.6.8 and 6.1.1.4'
N N 0.0061 0.0033 'International Tables Vol C Tables 4.2.6.8 and 6.1.1.4'
O O 0.0106 0.0060 'International Tables Vol C Tables 4.2.6.8 and 6.1.1.4'
loop_
_geom_angle_atom_site_label_1
_geom_angle_atom_site_label_2
_geom_angle_atom_site_label_3
_geom_angle
_geom_angle_site_symmetry_1
_geom_angle_site_symmetry_3
_geom_angle_publ_flag
O4 Gd1 Gd1 35.74(4) . 2_666 ?
O4 Gd1 Gd1 38.65(5) 2_666 2_666 ?
O4 Gd1 O4 74.39(7) 2_666 . ?
O4 Gd1 O5 125.84(7) 2_666 . ?
O4 Gd1 O6 72.07(7) 2_666 . ?
O4 Gd1 O10 141.26(8) 2_666 . ?
O4 Gd1 O11A 134.64(17) 2_666 . ?
O4 Gd1 O11B 135.2(3) 2_666 . ?
O4 Gd1 C13 26.35(7) . . ?
O4 Gd1 C13 100.23(8) 2_666 . ?
O5 Gd1 Gd1 87.38(5) . 2_666 ?
O5 Gd1 O4 51.82(7) . . ?
O5 Gd1 O11B 71.4(5) . . ?
O5 Gd1 C13 25.64(8) . . ?
O6 Gd1 Gd1 69.32(5) . 2_666 ?
O6 Gd1 O4 75.12(7) . . ?
O6 Gd1 O5 96.87(8) . . ?
O6 Gd1 O10 143.41(8) . . ?
O6 Gd1 O11A 71.7(3) . . ?
O6 Gd1 O11B 64.4(3) . . ?
O6 Gd1 C13 87.75(8) . . ?
O7 Gd1 Gd1 69.00(5) 2_666 2_666 ?
O7 Gd1 O4 73.66(7) 2_666 2_666 ?
O7 Gd1 O4 73.17(7) 2_666 . ?
O7 Gd1 O5 84.34(8) 2_666 . ?
O7 Gd1 O6 138.19(7) 2_666 . ?
O7 Gd1 O10 77.46(8) 2_666 . ?
O7 Gd1 O11A 149.3(2) 2_666 . ?
O7 Gd1 O11B 149.9(3) 2_666 . ?
O7 Gd1 C13 75.49(8) 2_666 . ?
O8 Gd1 Gd1 119.98(6) 2_566 2_666 ?
O8 Gd1 O4 81.35(8) 2_566 2_666 ?
O8 Gd1 O4 155.67(8) 2_566 . ?
O8 Gd1 O5 151.80(8) 2_566 . ?
O8 Gd1 O6 99.24(9) 2_566 . ?
O8 Gd1 O7 98.55(9) 2_566 2_666 ?
O8 Gd1 O10 77.98(9) 2_566 . ?
O8 Gd1 O11A 78.5(5) 2_566 . ?
O8 Gd1 O11B 95.1(6) 2_566 . ?
O8 Gd1 C13 172.97(9) 2_566 . ?
O10 Gd1 Gd1 143.56(6) . 2_666 ?
O10 Gd1 O4 120.74(8) . . ?
O10 Gd1 O5 75.29(8) . . ?
O10 Gd1 O11B 79.4(3) . . ?
O10 Gd1 C13 96.88(8) . . ?
O11A Gd1 Gd1 138.9(4) . 2_666 ?
O11A Gd1 O4 120.4(5) . . ?
O11A Gd1 O5 84.9(4) . . ?
O11A Gd1 O10 72.0(3) . . ?
O11A Gd1 C13 104.7(5) . . ?
O11B Gd1 O4 103.3(6) . . ?
O11B Gd1 C13 88.6(6) . . ?
C13 Gd1 Gd1 61.75(6) . 2_666 ?
C7 O1 C1 121.9(2) . . ?
C3 O2 C14 115.9(2) . . ?
C5 O3 C21 118.7(2) . . ?
Gd1 O4 Gd1 105.61(7) 2_666 . ?
C13 O4 Gd1 159.5(2) . 2_666 ?
C13 O4 Gd1 91.35(17) . . ?
C13 O5 Gd1 95.47(17) . . ?
C20 O6 Gd1 135.8(2) . . ?
C20 O7 Gd1 138.40(19) . 2_666 ?
C27 O8 Gd1 141.2(2) . 2_566 ?
C28 O10 Gd1 129.6(2) . . ?
Gd1 O11A H11A 111.4 . . ?
Gd1 O11A H11B 110.9 . . ?
H11A O11A H11B 108.2 . . ?
Gd1 O11B H11C 110.4 . . ?
Gd1 O11B H11D 107.9 . . ?
H11C O11B H11D 109.1 . . ?
C28 N1 C29 120.7(3) . . ?
C28 N1 C30 121.4(3) . . ?
C30 N1 C29 117.6(3) . . ?
C2 C1 O1 123.4(3) . . ?
C6 C1 O1 113.9(3) . . ?
C6 C1 C2 122.6(3) . . ?
C1 C2 H2 121.2 . . ?
C1 C2 C3 117.6(3) . . ?
C3 C2 H2 121.2 . . ?
O2 C3 C2 116.3(3) . . ?
C4 C3 O2 122.0(3) . . ?
C4 C3 C2 121.7(3) . . ?
C3 C4 H4 120.9 . . ?
C3 C4 C5 118.3(3) . . ?
C5 C4 H4 120.9 . . ?
O3 C5 C4 116.0(3) . . ?
C6 C5 O3 122.1(3) . . ?
C6 C5 C4 121.9(3) . . ?
C1 C6 C5 117.9(3) . . ?
C1 C6 H6 121.0 . . ?
C5 C6 H6 121.0 . . ?
O1 C7 C8 123.7(3) . . ?
O1 C7 C12 115.7(3) . . ?
C12 C7 C8 120.5(3) . . ?
C7 C8 C13 123.8(3) . . ?
C9 C8 C7 118.0(3) . . ?
C9 C8 C13 118.1(3) . . ?
C8 C9 H9 119.4 . . ?
C10 C9 C8 121.2(3) . . ?
C10 C9 H9 119.4 . . ?
C9 C10 H10 120.2 . . ?
C11 C10 C9 119.7(3) . . ?
C11 C10 H10 120.2 . . ?
C10 C11 H11 120.0 . . ?
C12 C11 C10 120.0(3) . . ?
C12 C11 H11 120.0 . . ?
C7 C12 H12 119.7 . . ?
C11 C12 C7 120.6(3) . . ?
C11 C12 H12 119.7 . . ?
O4 C13 Gd1 62.30(15) . . ?
O4 C13 C8 118.5(3) . . ?
O5 C13 Gd1 58.89(15) . . ?
O5 C13 O4 120.6(3) . . ?
O5 C13 C8 120.8(3) . . ?
C8 C13 Gd1 168.6(2) . . ?
C15 C14 O2 119.2(3) . . ?
C19 C14 O2 119.2(3) . . ?
C19 C14 C15 121.7(3) . . ?
C14 C15 C20 120.3(3) . . ?
C16 C15 C14 118.3(3) . . ?
C16 C15 C20 121.4(3) . . ?
C15 C16 H16 119.4 . . ?
C15 C16 C17 121.2(3) . . ?
C17 C16 H16 119.4 . . ?
C16 C17 H17 120.5 . . ?
C18 C17 C16 119.1(3) . . ?
C18 C17 H17 120.5 . . ?
C17 C18 H18 119.5 . . ?
C17 C18 C19 121.0(3) . . ?
C19 C18 H18 119.5 . . ?
C14 C19 C18 118.7(3) . . ?
C14 C19 H19 120.6 . . ?
C18 C19 H19 120.6 . . ?
O6 C20 C15 116.5(3) . . ?
O7 C20 O6 126.9(3) . . ?
O7 C20 C15 116.6(3) . . ?
O3 C21 C22 119.0(3) . . ?
C26 C21 O3 118.8(3) . . ?
C26 C21 C22 121.8(3) . . ?
C21 C22 C23 117.2(3) . . ?
C21 C22 C27 123.3(3) . . ?
C23 C22 C27 119.5(3) . . ?
C22 C23 H23 119.2 . . ?
C24 C23 C22 121.7(3) . . ?
C24 C23 H23 119.2 . . ?
C23 C24 H24 120.2 . . ?
C23 C24 C25 119.7(3) . . ?
C25 C24 H24 120.2 . . ?
C24 C25 H25 120.1 . . ?
C26 C25 C24 119.9(3) . . ?
C26 C25 H25 120.1 . . ?
C21 C26 C25 119.7(3) . . ?
C21 C26 H26 120.2 . . ?
C25 C26 H26 120.2 . . ?
O8 C27 C22 115.9(3) . . ?
O9 C27 O8 124.7(3) . . ?
O9 C27 C22 119.3(3) . . ?
O10 C28 N1 124.4(3) . . ?
O10 C28 H28 117.8 . . ?
N1 C28 H28 117.8 . . ?
N1 C29 H29A 109.5 . . ?
N1 C29 H29B 109.5 . . ?
N1 C29 H29C 109.5 . . ?
H29A C29 H29B 109.5 . . ?
H29A C29 H29C 109.5 . . ?
H29B C29 H29C 109.5 . . ?
N1 C30 H30A 109.5 . . ?
N1 C30 H30B 109.5 . . ?
N1 C30 H30C 109.5 . . ?
H30A C30 H30B 109.5 . . ?
H30A C30 H30C 109.5 . . ?
H30B C30 H30C 109.5 . . ?
loop_
_geom_bond_atom_site_label_1
_geom_bond_atom_site_label_2
_geom_bond_distance
_geom_bond_site_symmetry_2
_geom_bond_publ_flag
Gd1 Gd1 3.9248(4) 2_666 ?
Gd1 O4 2.380(2) 2_666 ?
Gd1 O4 2.545(2) . ?
Gd1 O5 2.472(2) . ?
Gd1 O6 2.385(2) . ?
Gd1 O7 2.349(2) 2_666 ?
Gd1 O8 2.271(2) 2_566 ?
Gd1 O10 2.412(2) . ?
Gd1 O11A 2.399(5) . ?
Gd1 O11B 2.506(11) . ?
Gd1 C13 2.874(3) . ?
O1 C1 1.390(4) . ?
O1 C7 1.382(4) . ?
O2 C3 1.389(4) . ?
O2 C14 1.406(4) . ?
O3 C5 1.383(4) . ?
O3 C21 1.393(4) . ?
O4 C13 1.276(3) . ?
O5 C13 1.249(4) . ?
O6 C20 1.256(4) . ?
O7 C20 1.252(4) . ?
O8 C27 1.266(4) . ?
O9 C27 1.238(4) . ?
O10 C28 1.234(4) . ?
O11A H11A 0.8728 . ?
O11A H11B 0.8736 . ?
O11B H11C 0.8610 . ?
O11B H11D 0.8606 . ?
N1 C28 1.314(4) . ?
N1 C29 1.459(5) . ?
N1 C30 1.428(5) . ?
C1 C2 1.383(4) . ?
C1 C6 1.380(4) . ?
C2 H2 0.9300 . ?
C2 C3 1.395(4) . ?
C3 C4 1.382(4) . ?
C4 H4 0.9300 . ?
C4 C5 1.390(4) . ?
C5 C6 1.382(5) . ?
C6 H6 0.9300 . ?
C7 C8 1.397(4) . ?
C7 C12 1.382(4) . ?
C8 C9 1.397(5) . ?
C8 C13 1.495(4) . ?
C9 H9 0.9300 . ?
C9 C10 1.385(5) . ?
C10 H10 0.9300 . ?
C10 C11 1.381(6) . ?
C11 H11 0.9300 . ?
C11 C12 1.376(5) . ?
C12 H12 0.9300 . ?
C14 C15 1.387(5) . ?
C14 C19 1.383(4) . ?
C15 C16 1.384(5) . ?
C15 C20 1.509(4) . ?
C16 H16 0.9300 . ?
C16 C17 1.389(5) . ?
C17 H17 0.9300 . ?
C17 C18 1.380(5) . ?
C18 H18 0.9300 . ?
C18 C19 1.385(5) . ?
C19 H19 0.9300 . ?
C21 C22 1.394(4) . ?
C21 C26 1.378(5) . ?
C22 C23 1.394(5) . ?
C22 C27 1.502(5) . ?
C23 H23 0.9300 . ?
C23 C24 1.378(5) . ?
C24 H24 0.9300 . ?
C24 C25 1.389(6) . ?
C25 H25 0.9300 . ?
C25 C26 1.382(6) . ?
C26 H26 0.9300 . ?
C28 H28 0.9300 . ?
C29 H29A 0.9600 . ?
C29 H29B 0.9600 . ?
C29 H29C 0.9600 . ?
C30 H30A 0.9600 . ?
C30 H30B 0.9600 . ?
C30 H30C 0.9600 . ?
loop_
_geom_torsion_atom_site_label_1
_geom_torsion_atom_site_label_2
_geom_torsion_atom_site_label_3
_geom_torsion_atom_site_label_4
_geom_torsion
_geom_torsion_site_symmetry_1
_geom_torsion_site_symmetry_2
_geom_torsion_site_symmetry_3
_geom_torsion_site_symmetry_4
_geom_torsion_publ_flag
Gd1 O4 C13 Gd1 146.5(6) 2_666 . . . ?
Gd1 O4 C13 O5 155.4(4) 2_666 . . . ?
Gd1 O4 C13 O5 8.9(3) . . . . ?
Gd1 O4 C13 C8 -20.6(7) 2_666 . . . ?
Gd1 O4 C13 C8 -167.1(2) . . . . ?
Gd1 O5 C13 O4 -9.2(3) . . . . ?
Gd1 O5 C13 C8 166.7(2) . . . . ?
Gd1 O6 C20 O7 -10.4(5) . . . . ?
Gd1 O6 C20 C15 171.4(2) . . . . ?
Gd1 O7 C20 O6 2.7(5) 2_666 . . . ?
Gd1 O7 C20 C15 -179.1(2) 2_666 . . . ?
Gd1 O8 C27 O9 36.1(6) 2_566 . . . ?
Gd1 O8 C27 C22 -147.2(3) 2_566 . . . ?
Gd1 O10 C28 N1 -159.9(3) . . . . ?
O1 C1 C2 C3 178.9(3) . . . . ?
O1 C1 C6 C5 -178.5(3) . . . . ?
O1 C7 C8 C9 177.1(3) . . . . ?
O1 C7 C8 C13 0.9(5) . . . . ?
O1 C7 C12 C11 -175.6(3) . . . . ?
O2 C3 C4 C5 178.8(3) . . . . ?
O2 C14 C15 C16 -178.3(3) . . . . ?
O2 C14 C15 C20 3.7(4) . . . . ?
O2 C14 C19 C18 179.8(3) . . . . ?
O3 C5 C6 C1 -176.1(3) . . . . ?
O3 C21 C22 C23 169.3(3) . . . . ?
O3 C21 C22 C27 -12.6(5) . . . . ?
O3 C21 C26 C25 -171.4(3) . . . . ?
C1 O1 C7 C8 44.0(4) . . . . ?
C1 O1 C7 C12 -139.8(3) . . . . ?
C1 C2 C3 O2 -179.7(3) . . . . ?
C1 C2 C3 C4 -1.6(4) . . . . ?
C2 C1 C6 C5 -1.1(5) . . . . ?
C2 C3 C4 C5 0.8(5) . . . . ?
C3 O2 C14 C15 74.0(3) . . . . ?
C3 O2 C14 C19 -106.0(3) . . . . ?
C3 C4 C5 O3 176.5(3) . . . . ?
C3 C4 C5 C6 -0.1(5) . . . . ?
C4 C5 C6 C1 0.2(5) . . . . ?
C5 O3 C21 C22 120.6(3) . . . . ?
C5 O3 C21 C26 -66.2(4) . . . . ?
C6 C1 C2 C3 1.8(5) . . . . ?
C7 O1 C1 C2 30.3(4) . . . . ?
C7 O1 C1 C6 -152.3(3) . . . . ?
C7 C8 C9 C10 -2.1(5) . . . . ?
C7 C8 C13 Gd1 135.5(9) . . . . ?
C7 C8 C13 O4 -133.4(3) . . . . ?
C7 C8 C13 O5 50.6(4) . . . . ?
C8 C7 C12 C11 0.8(5) . . . . ?
C8 C9 C10 C11 1.4(6) . . . . ?
C9 C8 C13 Gd1 -40.7(11) . . . . ?
C9 C8 C13 O4 50.4(4) . . . . ?
C9 C8 C13 O5 -125.6(3) . . . . ?
C9 C10 C11 C12 0.5(6) . . . . ?
C10 C11 C12 C7 -1.6(6) . . . . ?
C12 C7 C8 C9 1.0(5) . . . . ?
C12 C7 C8 C13 -175.2(3) . . . . ?
C13 C8 C9 C10 174.3(3) . . . . ?
C14 O2 C3 C2 -155.3(3) . . . . ?
C14 O2 C3 C4 26.6(4) . . . . ?
C14 C15 C16 C17 -1.4(5) . . . . ?
C14 C15 C20 O6 -111.8(3) . . . . ?
C14 C15 C20 O7 69.8(4) . . . . ?
C15 C14 C19 C18 -0.2(5) . . . . ?
C15 C16 C17 C18 -0.5(5) . . . . ?
C16 C15 C20 O6 70.2(4) . . . . ?
C16 C15 C20 O7 -108.2(4) . . . . ?
C16 C17 C18 C19 2.1(5) . . . . ?
C17 C18 C19 C14 -1.7(5) . . . . ?
C19 C14 C15 C16 1.8(5) . . . . ?
C19 C14 C15 C20 -176.3(3) . . . . ?
C20 C15 C16 C17 176.6(3) . . . . ?
C21 O3 C5 C4 151.9(3) . . . . ?
C21 O3 C5 C6 -31.5(4) . . . . ?
C21 C22 C23 C24 3.0(5) . . . . ?
C21 C22 C27 O8 144.0(3) . . . . ?
C21 C22 C27 O9 -39.1(5) . . . . ?
C22 C21 C26 C25 1.5(5) . . . . ?
C22 C23 C24 C25 -0.3(6) . . . . ?
C23 C22 C27 O8 -37.9(4) . . . . ?
C23 C22 C27 O9 138.9(4) . . . . ?
C23 C24 C25 C26 -1.9(6) . . . . ?
C24 C25 C26 C21 1.3(6) . . . . ?
C26 C21 C22 C23 -3.6(5) . . . . ?
C26 C21 C22 C27 174.5(3) . . . . ?
C27 C22 C23 C24 -175.2(3) . . . . ?
C29 N1 C28 O10 176.1(4) . . . . ?
C30 N1 C28 O10 3.4(6) . . . . ?
