#------------------------------------------------------------------------------
#$Date: 2020-03-12 00:18:16 +0200 (Thu, 12 Mar 2020) $
#$Revision: 249283 $
#$URL: file:///home/coder/svn-repositories/cod/cif/4/51/74/4517489.cif $
#------------------------------------------------------------------------------
#
# This file is available in the Crystallography Open Database (COD),
# http://www.crystallography.net/
#
# All data on this site have been placed in the public domain by the
# contributors.
#
data_4517489
loop_
_publ_author_name
'Zhang, Zhi-Hui'
'Lan, Jian-Hui'
'Yuan, Li-Yong'
'Sheng, Pan-Pan'
'He, Ming-Yang'
'Zheng, Li-Rong'
'Chen, Qun'
'Chai, Zhi-Fang'
'Gibson, John K.'
'Shi, Wei-Qun'
_publ_section_title
;
 Rational Construction of Porous Metal-Organic Frameworks for Uranium(VI)
 Extraction: The Strong Periodic Tendency with a Metal Node.
;
_journal_name_full               'ACS applied materials &amp; interfaces'
_journal_paper_doi               10.1021/acsami.0c02121
_journal_year                    2020
_chemical_formula_sum            'C52 H67 Eu3 N2 O40'
_chemical_formula_weight         1815.95
_space_group_crystal_system      triclinic
_space_group_IT_number           2
_space_group_name_Hall           '-P 1'
_space_group_name_H-M_alt        'P -1'
_atom_sites_solution_hydrogens   mixed
_audit_creation_method           SHELXL-2014/6
_cell_angle_alpha                65.0400(10)
_cell_angle_beta                 68.486(2)
_cell_angle_gamma                88.015(2)
_cell_formula_units_Z            1
_cell_length_a                   11.6419(4)
_cell_length_b                   12.2249(4)
_cell_length_c                   13.5781(5)
_cell_measurement_reflns_used    9214
_cell_measurement_temperature    170(2)
_cell_measurement_theta_max      27.51
_cell_measurement_theta_min      3.08
_cell_volume                     1613.29(10)
_computing_cell_refinement       'Bruker SAINT'
_computing_data_collection       'Bruker APEX2'
_computing_data_reduction        'Bruker SAINT'
_computing_molecular_graphics    'Bruker SHELXTL'
_computing_publication_material  'Bruker SHELXTL'
_computing_structure_refinement  'SHELXL-2014/6 (Sheldrick, 2014)'
_computing_structure_solution    'SHELXS-97 (Sheldrick 2008)'
_diffrn_ambient_temperature      170(2)
_diffrn_measured_fraction_theta_full 0.997
_diffrn_measured_fraction_theta_max 0.990
_diffrn_measurement_device_type  'Bruker APEX-II CCD'
_diffrn_measurement_method       '\f and \w scans'
_diffrn_radiation_type           MoK\a
_diffrn_radiation_wavelength     0.71073
_diffrn_reflns_av_R_equivalents  0.0278
_diffrn_reflns_av_unetI/netI     0.0249
_diffrn_reflns_Laue_measured_fraction_full 0.997
_diffrn_reflns_Laue_measured_fraction_max 0.990
_diffrn_reflns_limit_h_max       15
_diffrn_reflns_limit_h_min       -15
_diffrn_reflns_limit_k_max       15
_diffrn_reflns_limit_k_min       -15
_diffrn_reflns_limit_l_max       17
_diffrn_reflns_limit_l_min       -17
_diffrn_reflns_number            30926
_diffrn_reflns_point_group_measured_fraction_full 0.997
_diffrn_reflns_point_group_measured_fraction_max 0.990
_diffrn_reflns_theta_full        25.242
_diffrn_reflns_theta_max         27.525
_diffrn_reflns_theta_min         2.839
_exptl_absorpt_coefficient_mu    2.986
_exptl_absorpt_correction_T_max  0.648
_exptl_absorpt_correction_T_min  0.546
_exptl_absorpt_correction_type   multi-scan
_exptl_absorpt_process_details   SADABS
_exptl_crystal_colour            colorless
_exptl_crystal_density_diffrn    1.869
_exptl_crystal_description       block
_exptl_crystal_F_000             902
_exptl_crystal_size_max          0.220
_exptl_crystal_size_mid          0.180
_exptl_crystal_size_min          0.160
_refine_diff_density_max         1.708
_refine_diff_density_min         -0.873
_refine_diff_density_rms         0.147
_refine_ls_extinction_method     none
_refine_ls_goodness_of_fit_ref   1.120
_refine_ls_hydrogen_treatment    constr
_refine_ls_matrix_type           full
_refine_ls_number_parameters     413
_refine_ls_number_reflns         7355
_refine_ls_number_restraints     0
_refine_ls_restrained_S_all      1.120
_refine_ls_R_factor_all          0.0376
_refine_ls_R_factor_gt           0.0304
_refine_ls_shift/su_max          0.000
_refine_ls_shift/su_mean         0.000
_refine_ls_structure_factor_coef Fsqd
_refine_ls_weighting_details
'w=1/[\s^2^(Fo^2^)+(0.0700P)^2^+1.0000P] where P=(Fo^2^+2Fc^2^)/3'
_refine_ls_weighting_scheme      calc
_refine_ls_wR_factor_gt          0.0977
_refine_ls_wR_factor_ref         0.1033
_reflns_Friedel_coverage         0.000
_reflns_number_gt                6434
_reflns_number_total             7355
_reflns_threshold_expression     'I > 2\s(I)'
_cod_data_source_file            am0c02121_si_002.cif
_cod_data_source_block           Eu-MOF
_cod_database_code               4517489
_shelx_space_group_comment
; 
The symmetry employed for this shelxl refinement is uniquely defined 
by the following loop, which should always be used as a source of 
symmetry information in preference to the above space-group names. 
They are only intended as comments. 
;
_shelx_estimated_absorpt_t_min   0.560
_shelx_estimated_absorpt_t_max   0.647
_shelxl_version_number           2014/6
_shelx_res_file
; 
TITL mo_SPP_Eu_170430_0m_a.res in P-1 
CELL  0.71073  11.6419  12.2249  13.5781   65.040   68.486   88.015 
ZERR   1.000   0.0004   0.0004   0.0005    0.001    0.002    0.002 
LATT 1 
SFAC C  H  N  O  Eu 
UNIT 52  67  2  40  3 
L.S. 40 
ACTA 
BOND $H 
FMAP 2 
PLAN 20 
SIZE 0.22 0.18 0.16 
htab 
FREE O22  O20 
FREE C1   Eu1 
FREE O18  O20 
TEMP -103.150 
WGHT    0.070000    1.000000 
FVAR       0.12844 
EU1   5    1.000000    1.000000    0.000000    10.50000    0.01090    0.00665 = 
         0.00822   -0.00322   -0.00529    0.00280 
EU2   5    0.071059    0.170220    0.172864    11.00000    0.01563    0.00756 = 
         0.01261   -0.00714   -0.00862    0.00413 
N1    3    0.768223    0.388900    0.259140    11.00000    0.15858    0.19118 = 
         0.39060   -0.12865   -0.15330    0.04877 
AFIX  23 
H1A   2    0.753896    0.358404    0.337057    11.00000   -1.20000 
H1B   2    0.829680    0.351519    0.226974    11.00000   -1.20000 
AFIX   0 
O1    4    0.784489    0.953750    0.075664    11.00000    0.01540    0.02120 = 
         0.05389   -0.02088   -0.01609    0.00082 
O2    4    0.790581    0.807391    0.019660    11.00000    0.01503    0.02386 = 
         0.01639   -0.00936   -0.00527    0.00807 
O3    4    0.418614    1.130309    0.190970    11.00000    0.02877    0.01457 = 
         0.04022   -0.01958   -0.02334    0.01131 
AFIX 147 
H3    2    0.385405    1.193838    0.183997    10.50000   -1.50000 
AFIX   0 
O4    4    0.236044    1.055551    0.207876    11.00000    0.02059    0.01375 = 
         0.02560   -0.01173   -0.01177    0.01046 
O5    4    0.357827    0.328612    0.190013    11.00000    0.04359    0.01676 = 
         0.05608   -0.02278   -0.04094    0.01789 
O6    4    0.236910    0.323282    0.098322    11.00000    0.02755    0.00982 = 
         0.03597   -0.01193   -0.02237    0.00459 
O7    4    0.023891    0.668770   -0.055936    11.00000    0.02799    0.01146 = 
         0.02901   -0.01149   -0.02229    0.00560 
O8    4    0.066049    0.842918   -0.057305    11.00000    0.01597    0.00859 = 
         0.02139   -0.00821   -0.01185    0.00552 
O9    4    0.027275   -0.030765    0.187691    11.00000    0.03728    0.00672 = 
         0.01900   -0.00253   -0.01867   -0.00002 
O10   4   -0.038406   -0.189236    0.178861    11.00000    0.06049    0.01143 = 
         0.01768   -0.00218   -0.02457   -0.00406 
O11   4   -0.060302   -0.128958    0.629397    11.00000    0.04030    0.01330 = 
         0.01709   -0.01065   -0.01680    0.01015 
O12   4    0.001453   -0.300991    0.723411    11.00000    0.05233    0.01633 = 
         0.02030   -0.01337   -0.02437    0.01552 
O13   4   -0.144817    0.097058    0.303563    11.00000    0.02559    0.06489 = 
         0.02684   -0.02755    0.00078   -0.00959 
AFIX   3 
H13A  2   -0.161875    0.081111    0.372829    11.00000   -1.50000 
H13B  2   -0.189527    0.066381    0.284492    11.00000   -1.50000 
AFIX   0 
O17   4    0.674776    0.259769    0.494857    11.00000    0.48864 
AFIX   3 
H17A  2    0.697254    0.293620    0.526922    11.00000   -1.50000 
H17B  2    0.717675    0.215109    0.470194    11.00000   -1.50000 
AFIX   0 
O18   4    0.667439    0.462084    0.530353    11.00000    0.18745    0.40416 = 
         0.49572   -0.04375   -0.10760    0.09401 
AFIX   3 
H18A  2    0.714953    0.473279    0.558334    11.00000   -1.50000 
H18B  2    0.685748    0.425557    0.489267    11.00000   -1.50000 
PART 1 
AFIX   0 
O14   4    0.763328    0.996225    0.536000    10.50000    0.06392 
AFIX   3 
H14A  2    0.823084    1.038392    0.526924    10.50000   -1.50000 
H14B  2    0.768394    0.927411    0.540188    10.50000   -1.50000 
PART 2 
AFIX   0 
O15   4    0.685981    0.003562    0.419449    10.50000    0.25213 
AFIX   3 
H15A  2    0.642053    0.056999    0.403950    10.50000   -1.50000 
H15B  2    0.682146   -0.055773    0.406674    10.50000   -1.50000 
PART 3 
AFIX   0 
O16   4    0.695624    0.962887    0.296765    10.50000    0.09976 
AFIX   3 
H16A  2    0.716791    0.895491    0.324176    10.50000   -1.50000 
H16B  2    0.740340    1.025314    0.276210    10.50000   -1.50000 
PART 6 
AFIX   0 
O21   4    0.482923    0.024834    0.420268    10.50000    0.34717 
AFIX   3 
H21A  2    0.466102    0.086137    0.430055    10.50000   -1.50000 
H21B  2    0.431645   -0.036954    0.455600    10.50000   -1.50000 
PART 0 
AFIX   0 
C1    1    0.732949    0.873299    0.064602    11.00000    0.01534    0.01064 = 
         0.01346   -0.00152   -0.00738    0.00064 
C2    1    0.593563    0.862117    0.106342    11.00000    0.01402    0.00958 = 
         0.01340   -0.00584   -0.00609    0.00270 
C3    1    0.534281    0.948839    0.141551    11.00000    0.01503    0.00870 = 
         0.02248   -0.00839   -0.01068    0.00308 
AFIX  43 
H3A   2    0.580677    1.005868    0.148299    11.00000   -1.20000 
AFIX   0 
C4    1    0.408108    0.951301    0.166472    11.00000    0.01528    0.00854 = 
         0.01405   -0.00615   -0.00633    0.00239 
C5    1    0.340165    0.867229    0.157379    11.00000    0.01257    0.01070 = 
         0.02220   -0.00780   -0.00821    0.00146 
AFIX  43 
H5    2    0.253266    0.868629    0.176015    11.00000   -1.20000 
AFIX   0 
C6    1    0.397566    0.780507    0.121228    11.00000    0.01585    0.00891 = 
         0.01769   -0.00572   -0.01197    0.00312 
C7    1    0.525385    0.778712    0.096460    11.00000    0.01478    0.00934 = 
         0.01437   -0.00671   -0.00710    0.00344 
AFIX  43 
H7    2    0.565885    0.719980    0.072690    11.00000   -1.20000 
AFIX   0 
C8    1    0.346028    1.051445    0.192242    11.00000    0.02104    0.00951 = 
         0.01434   -0.00492   -0.01090    0.00423 
C9    1    0.325011    0.700397    0.100907    11.00000    0.01432    0.01214 = 
         0.01960   -0.00940   -0.00790    0.00207 
C10   1    0.341632    0.578567    0.128814    11.00000    0.01918    0.01265 = 
         0.02636   -0.01034   -0.01653    0.00663 
AFIX  43 
H10   2    0.400603    0.544427    0.162390    11.00000   -1.20000 
AFIX   0 
C11   1    0.271503    0.506884    0.107340    11.00000    0.01787    0.00927 = 
         0.02757   -0.01083   -0.01346    0.00457 
C12   1    0.184089    0.555710    0.060174    11.00000    0.01951    0.01239 = 
         0.02690   -0.01174   -0.01571    0.00442 
AFIX  43 
H12   2    0.134632    0.505571    0.048689    11.00000   -1.20000 
AFIX   0 
C13   1    0.167778    0.677269    0.029393    11.00000    0.01568    0.01022 = 
         0.01995   -0.00679   -0.01196    0.00248 
C14   1    0.238664    0.749069    0.049800    11.00000    0.01300    0.00761 = 
         0.02455   -0.00816   -0.01064    0.00387 
AFIX  43 
H14   2    0.228218    0.832271    0.028708    11.00000   -1.20000 
AFIX   0 
C15   1    0.289258    0.376978    0.134385    11.00000    0.01863    0.01227 = 
         0.03005   -0.01223   -0.01614    0.00587 
C16   1    0.080185    0.732222   -0.029696    11.00000    0.01607    0.01161 = 
         0.01992   -0.01030   -0.01080    0.00594 
C17   1   -0.006903   -0.144313    0.234130    11.00000    0.01673    0.00933 = 
         0.01178   -0.00607   -0.00617    0.00347 
C18   1   -0.004777   -0.226453    0.351085    11.00000    0.01879    0.00918 = 
         0.01497   -0.00493   -0.00900    0.00290 
C19   1   -0.009038   -0.184649    0.433400    11.00000    0.02668    0.00950 = 
         0.01400   -0.00532   -0.01008    0.00301 
AFIX  43 
H19   2   -0.009467   -0.100563    0.414916    11.00000   -1.20000 
AFIX   0 
C20   1   -0.012628   -0.268230    0.542562    11.00000    0.03138    0.01090 = 
         0.01481   -0.00595   -0.01275    0.00329 
C21   1   -0.007990   -0.391259    0.568068    11.00000    0.04115    0.01173 = 
         0.01195   -0.00556   -0.01429    0.00601 
AFIX  43 
H21   2   -0.008334   -0.446943    0.642556    11.00000   -1.20000 
AFIX   0 
C22   1   -0.002839   -0.434107    0.485844    11.00000    0.03736    0.00982 = 
         0.01792   -0.00778   -0.01467    0.00479 
C23   1   -0.002921   -0.349649    0.379019    11.00000    0.03515    0.01133 = 
         0.01217   -0.00744   -0.01073    0.00412 
AFIX  43 
H23   2   -0.001663   -0.376683    0.322555    11.00000   -1.20000 
AFIX   0 
C24   1   -0.023397   -0.229348    0.636416    11.00000    0.03182    0.00961 = 
         0.01307   -0.00523   -0.01099    0.00028 
C25   1    0.648079    0.355160    0.248095    11.00000    0.21085 
AFIX   3 
H25A  2    0.576312    0.346031    0.318831    11.00000   -1.50000 
H25B  2    0.647140    0.280499    0.237927    11.00000   -1.50000 
H25C  2    0.643520    0.424191    0.179001    11.00000   -1.50000 
AFIX   0 
C26   1    0.812380    0.516622    0.204314    11.00000    0.10382 
AFIX   3 
H26A  2    0.893651    0.526245    0.208119    11.00000   -1.50000 
H26B  2    0.752563    0.552823    0.250087    11.00000   -1.50000 
H26C  2    0.820741    0.557700    0.122016    11.00000   -1.50000 
AFIX   0 
O19   4    0.609211    0.573887    0.365208    11.00000    1.15916 
AFIX   3 
H19A  2    0.641831    0.526855    0.338004    11.00000   -1.50000 
H19B  2    0.650574    0.633359    0.355265    11.00000   -1.50000 
AFIX   0 
O20   4    0.658258    0.640001    0.481268    11.00000    0.06544    0.23762 = 
         0.92515   -0.13823    0.01478    0.01332 
AFIX   3 
H20A  2    0.636058    0.630600    0.549371    11.00000   -1.50000 
H20B  2    0.621243    0.678931    0.439412    11.00000   -1.50000 
AFIX   0 
O22   4    0.660456    0.775432    0.510247    11.00000    0.37465 
AFIX   3 
H22A  2    0.672690    0.713164    0.558818    11.00000   -1.50000 
H22B  2    0.658098    0.839379    0.516535    11.00000   -1.50000 
AFIX   0 
HKLF 4 
  
REM  mo_SPP_Eu_170430_0m_a.res in P-1 
REM R1 =  0.0304 for    6434 Fo > 4sig(Fo)  and  0.0376 for all    7355 data 
REM    413 parameters refined using      0 restraints 
  
END 
  
WGHT      0.0363      7.1776 
  
REM Instructions for potential hydrogen bonds 
HTAB N1 O17 
EQIV $1 -x+1, -y+1, -z 
HTAB N1 O7_$1 
EQIV $2 -x+1, -y, -z+1 
HTAB N1 O12_$2 
EQIV $3 x, y+1, z 
HTAB O3 O5_$3 
HTAB O3 O6_$3 
EQIV $4 x-1, y-1, z 
HTAB O13 O14_$4 
HTAB O13 O16_$4 
HTAB O17 O18 
EQIV $5 x, y-1, z 
HTAB O17 O14_$5 
HTAB O18 O17 
HTAB O14 O22 
HTAB O15 O22_$5 
HTAB O16 O22 
EQIV $6 x+1, y+1, z 
HTAB O16 O13_$6 
EQIV $7 -x+1, -y+1, -z+1 
HTAB O21 O22_$7 
HTAB C26 O19 
EQIV $8 x+1, y, z 
HTAB C26 O7_$8 
HTAB O19 N1 
HTAB O19 O20 
HTAB O22 O14 
HTAB O22 O15_$3 
HTAB O22 O21_$7 
  
REM Highest difference peak  1.708,  deepest hole -0.873,  1-sigma level  0.147 
Q1    1  -0.2146  0.0499  0.4052  11.00000  0.05    1.71 
Q2    1  -0.2344  0.0279  0.3253  11.00000  0.05    1.44 
Q3    1   0.6294  0.6801  0.3864  11.00000  0.05    1.34 
Q4    1   0.6712  0.6970  0.5429  11.00000  0.05    1.26 
Q5    1   0.6569  0.0363  0.4242  11.00000  0.05    1.23 
Q6    1   0.6892  0.2395  0.4876  11.00000  0.05    1.18 
Q7    1   0.6604  0.6149  0.4988  11.00000  0.05    1.13 
Q8    1   0.7780  1.0420  0.5332  11.00000  0.05    1.13 
Q9    1  -0.1397 -0.3411  0.6549  11.00000  0.05    1.05 
Q10   1   0.6989  0.9274  0.5328  11.00000  0.05    1.04 
Q11   1   0.6175  0.0560  0.3247  11.00000  0.05    1.01 
Q12   1   0.5249  0.4948  0.6441  11.00000  0.05    0.94 
Q13   1   0.6843  0.4880  0.2607  11.00000  0.05    0.84 
Q14   1  -0.0109  0.1531  0.2001  11.00000  0.05    0.78 
Q15   1   0.7365  0.4796  0.3164  11.00000  0.05    0.75 
Q16   1   0.6635  0.3222  0.5456  11.00000  0.05    0.74 
Q17   1   0.7546  0.9550  0.5309  11.00000  0.05    0.69 
Q18   1   0.6046  0.8480  0.4209  11.00000  0.05    0.66 
Q19   1   0.6767  1.0000  0.2813  11.00000  0.05    0.64 
Q20   1   0.7516  0.5009  0.1997  11.00000  0.05    0.63 
;
_shelx_res_checksum              77735
_shelx_hkl_file
; 
  -2   0   0  302.01    6.92 
  -2   0   0  296.98    6.86 
   2   0   0  299.85    6.92 
   2   0   0  259.77    6.91 
  -3   0   0  889.13   21.50 
  -3   0   0  909.50   21.58 
   3   0   0 1000.00   21.56 
   3   0   0  886.46   21.50 
   3   0   0  899.89   21.59 
  -4   0   0  207.87    5.18 
  -4   0   0  213.73    5.31 
   4   0   0  222.85    5.26 
   4   0   0  207.44    5.30 
  -5   0   0  102.74    2.89 
  -5   0   0  100.86    2.70 
   5   0   0  108.29    2.81 
   5   0   0  101.77    2.88 
   5   0   0  101.86    2.87 
  -6   0   0    0.57    0.36 
  -6   0   0    0.60    0.51 
   6   0   0    0.30    0.46 
   6   0   0    0.70    0.47 
   6   0   0    0.52    0.46 
  -7   0   0   16.62    0.91 
  -7   0   0   17.06    1.25 
   7   0   0   18.13    1.23 
   7   0   0   18.02    1.20 
  -8   0   0    1.13    0.46 
  -8   0   0    1.57    0.73 
   8   0   0    1.84    0.66 
   8   0   0    1.53    0.65 
   8   0   0    0.84    0.59 
  -9   0   0    6.30    0.70 
  -9   0   0    5.05    0.97 
   9   0   0    6.61    0.98 
   9   0   0    6.02    0.89 
   9   0   0    6.54    0.89 
 -10   0   0    6.95    0.94 
 -10   0   0    5.56    1.07 
  10   0   0    6.78    1.07 
  10   0   0    6.64    1.01 
  10   0   0    7.12    0.95 
 -11   0   0   20.49    1.91 
  11   0   0   24.39    2.05 
  11   0   0   21.75    2.12 
  11   0   0   22.07    1.67 
 -12   0   0   89.65    3.46 
  12   0   0   93.11    3.53 
  12   0   0   83.30    3.15 
  12   0   0   84.18    3.57 
 -13   0   0   77.54    3.52 
 -13   0   0   77.52    3.86 
  13   0   0   68.93    3.60 
  13   0   0   79.33    3.54 
  13   0   0   71.06    3.02 
  14  -1   0   26.36    2.69 
 -14   1   0   28.61    3.16 
  13  -1   0    7.76    1.38 
  13  -1   0   10.06    1.31 
 -13   1   0    8.91    1.61 
  12  -1   0    2.11    1.12 
  12  -1   0    3.90    1.26 
  12  -1   0    1.97    0.96 
 -12   1   0    2.11    1.24 
 -12   1   0    1.63    1.16 
  11  -1   0    2.77    0.92 
  11  -1   0    3.42    1.14 
  11  -1   0    2.71    0.88 
 -11   1   0    1.92    0.77 
 -11   1   0    1.81    1.13 
  10  -1   0    7.32    0.97 
  10  -1   0    7.29    1.15 
  10  -1   0    7.32    0.96 
 -10   1   0    9.34    1.15 
 -10   1   0    7.19    1.16 
   9  -1   0    2.70    0.88 
   9  -1   0    2.91    0.73 
   9  -1   0    2.02    0.73 
  -9   1   0    3.99    0.93 
   8  -1   0    8.78    1.12 
   8  -1   0    8.08    0.86 
   8  -1   0    8.63    0.93 
  -8   1   0    8.51    0.93 
  -8   1   0    8.31    0.94 
   7  -1   0   -0.03    0.54 
   7  -1   0    0.84    0.49 
   7  -1   0    0.25    0.52 
  -7   1   0    0.76    0.44 
  -7   1   0    0.88    0.61 
   6  -1   0    4.22    0.63 
   6  -1   0    4.21    0.59 
   6  -1   0    3.56    0.53 
  -6   1   0    3.77    0.52 
  -6   1   0    3.50    0.63 
   5  -1   0  311.58    7.78 
   5  -1   0  340.71    7.84 
   5  -1   0  312.50    7.87 
  -5   1   0  312.47    7.77 
  -5   1   0  315.19    7.88 
   4  -1   0  247.18    5.81 
   4  -1   0  232.38    5.79 
   4  -1   0  231.17    5.85 
  -4   1   0  235.72    5.86 
  -4   1   0  229.71    5.78 
   3  -1   0  255.29    6.31 
   3  -1   0  261.18    6.36 
   3  -1   0  266.21    6.31 
  -3   1   0  263.36    6.36 
  -3   1   0  255.07    6.31 
   2  -1   0  476.61   11.48 
   2  -1   0  471.81   11.45 
   2  -1   0  513.21   11.44 
  -2   1   0  477.29   11.46 
  -2   1   0  480.86   11.47 
   1   1   0   32.17    0.95 
  -2  -1   0   70.54    1.84 
   2   1   0   70.02    1.98 
   2   1   0   69.36    1.83 
  -3  -1   0   40.78    1.10 
  -3  -1   0   42.97    1.29 
   3   1   0   43.11    1.29 
   3   1   0   41.81    1.42 
  -4  -1   0   11.98    0.54 
  -4  -1   0   13.50    0.81 
   4   1   0   14.95    0.81 
   4   1   0   14.41    0.73 
   4   1   0   14.03    0.93 
  -5  -1   0   65.49    1.99 
  -5  -1   0   61.66    1.73 
   5   1   0   66.74    1.91 
   5   1   0   65.21    2.13 
   5   1   0   66.10    2.01 
  -6  -1   0   84.20    2.23 
  -6  -1   0   85.43    2.53 
   6   1   0   88.09    2.44 
   6   1   0   83.65    2.66 
   6   1   0   83.95    2.54 
  -7  -1   0    3.72    0.43 
  -7  -1   0    3.63    0.66 
   7   1   0    2.73    0.68 
   7   1   0    3.17    0.73 
   7   1   0    3.11    0.59 
  -8  -1   0   10.01    0.76 
  -8  -1   0   11.03    1.28 
   8   1   0   11.56    1.36 
   8   1   0   11.05    1.11 
   8   1   0   10.15    1.19 
  -9  -1   0   37.63    1.94 
  -9  -1   0   38.99    1.36 
   9   1   0   37.52    1.98 
   9   1   0   42.33    2.11 
   9   1   0   40.04    1.81 
 -10  -1   0   55.73    2.38 
 -10  -1   0   53.53    2.33 
  10   1   0   56.02    2.58 
  10   1   0   50.30    2.35 
  10   1   0   53.59    2.17 
 -11  -1   0   27.52    2.02 
 -11  -1   0   27.09    2.13 
  11   1   0   26.12    2.14 
  11   1   0   26.99    2.28 
  11   1   0   25.23    1.71 
 -12  -1   0   56.18    2.77 
  12   1   0   62.53    3.08 
  12   1   0   52.78    2.99 
  12   1   0   55.09    2.50 
 -13  -1   0   61.20    3.20 
 -13  -1   0   60.41    3.10 
  13   1   0   65.51    2.79 
  13   1   0   61.75    3.39 
  13   1   0   68.75    3.46 
  14  -2   0   -0.72    1.01 
 -14   2   0   -0.20    1.68 
  13  -2   0    2.92    1.12 
  13  -2   0    2.10    1.14 
 -13   2   0    2.31    1.56 
  12  -2   0    9.44    1.16 
  12  -2   0    9.46    1.21 
 -12   2   0    8.05    1.47 
 -12   2   0   10.12    1.36 
  11  -2   0    6.49    1.02 
  11  -2   0    6.58    1.16 
  11  -2   0    4.79    0.91 
 -11   2   0    6.53    0.96 
 -11   2   0    6.47    1.32 
  10  -2   0    1.10    0.69 
  10  -2   0    1.30    1.00 
  10  -2   0    0.56    0.76 
 -10   2   0    1.17    0.76 
 -10   2   0    1.76    1.02 
   9  -2   0   -0.01    0.58 
   9  -2   0    1.53    0.80 
   9  -2   0    0.91    0.71 
  -9   2   0   -0.02    0.65 
  -9   2   0    1.29    0.89 
   8  -2   0   28.76    1.35 
  -8   2   0   24.82    1.35 
  -8   2   0   27.07    1.68 
   7  -2   0  155.90    4.41 
   7  -2   0  154.03    4.22 
   7  -2   0  160.33    4.27 
  -7   2   0  158.10    4.38 
  -7   2   0  151.96    4.18 
   6  -2   0  216.36    5.65 
   6  -2   0  222.41    5.70 
   6  -2   0  238.01    6.55 
  -6   2   0  213.38    5.73 
  -6   2   0  213.47    5.61 
   5  -2   0  394.46    9.91 
   5  -2   0  392.04    9.82 
   5  -2   0  423.04    9.83 
  -5   2   0  402.34    9.81 
  -5   2   0  401.17    9.88 
   4  -2   0  237.30    5.73 
   4  -2   0  231.40    5.77 
   4  -2   0  225.91    5.81 
  -4   2   0  229.12    5.78 
  -4   2   0  227.76    5.75 
   3  -2   0   87.47    2.15 
   3  -2   0   85.89    2.41 
   3  -2   0   85.70    2.39 
  -3   2   0   85.91    2.38 
  -3   2   0   88.09    2.40 
   2  -2   0    3.57    0.46 
   2  -2   0    3.70    0.40 
   2  -2   0    4.63    0.41 
  -2   2   0    2.64    0.44 
  -2   2   0    4.02    0.42 
  -2   2   0    3.59    0.45 
   1  -2   0   20.44    0.71 
   1  -2   0   19.29    0.82 
   1  -2   0   19.70    0.70 
  -1   2   0   18.43    0.79 
  -1   2   0   18.57    0.77 
   0  -2   0   13.69    0.68 
   0  -2   0   12.46    0.62 
   0  -2   0   13.54    0.55 
   0   2   0   13.01    0.59 
   0   2   0   14.26    0.67 
  -1  -2   0  282.88    6.99 
  -1  -2   0  300.15    6.89 
   1   2   0  282.22    6.99 
  -2  -2   0  255.11    6.09 
  -2  -2   0  250.90    6.29 
  -2  -2   0  258.66    6.02 
   2   2   0  256.93    6.10 
   2   2   0  252.39    6.30 
  -3  -2   0  156.06    3.80 
   3   2   0  144.86    4.01 
   3   2   0  158.74    3.82 
  -4  -2   0    5.34    0.67 
   4   2   0    5.68    0.68 
   4   2   0    3.67    0.58 
  -5  -2   0   16.26    0.94 
   5   2   0   16.65    0.96 
   5   2   0   15.50    0.84 
   5   2   0   15.00    1.17 
  -6  -2   0   11.15    0.96 
   6   2   0   10.19    0.97 
   6   2   0   11.52    0.84 
   6   2   0   11.78    1.18 
  -7  -2   0   58.40    2.05 
   7   2   0   59.82    2.82 
   7   2   0   61.33    1.96 
   7   2   0   63.26    2.36 
  -8  -2   0  101.45    3.12 
  -8  -2   0  106.50    3.11 
   8   2   0  103.17    3.03 
   8   2   0  102.14    3.17 
   8   2   0  102.41    3.42 
  -9  -2   0  137.38    3.93 
  -9  -2   0  115.53    4.79 
   9   2   0  138.87    3.82 
   9   2   0  131.17    4.44 
   9   2   0  143.42    4.32 
 -10  -2   0   71.14    2.73 
 -10  -2   0   75.24    2.71 
  10   2   0   68.12    2.73 
  10   2   0   73.11    3.11 
  10   2   0   72.53    2.52 
 -11  -2   0   49.34    2.38 
 -11  -2   0   49.96    2.42 
  11   2   0   45.10    2.44 
  11   2   0   48.03    2.15 
  11   2   0   50.65    2.81 
 -12  -2   0   11.66    1.41 
 -12  -2   0   10.64    1.68 
  12   2   0   11.31    1.62 
  12   2   0   12.73    1.52 
  12   2   0   11.24    1.24 
 -13  -2   0    0.94    1.33 
 -13  -2   0    0.55    1.21 
  13   2   0    0.52    1.47 
  13   2   0   -0.33    1.44 
  13   2   0    1.51    0.98 
 -14   3   0    4.52    1.90 
  13  -3   0    0.73    1.00 
  13  -3   0   -0.20    0.92 
 -13   3   0   -1.37    1.55 
  12  -3   0    2.70    0.90 
  12  -3   0   -0.27    0.90 
 -12   3   0    2.44    1.35 
 -12   3   0    2.16    1.02 
  11  -3   0    3.96    0.83 
  11  -3   0    3.03    0.91 
 -11   3   0    3.78    1.25 
 -11   3   0    2.24    0.93 
  10  -3   0   25.88    1.47 
  10  -3   0   19.53    1.61 
 -10   3   0   22.28    1.68 
   9  -3   0  122.12    3.75 
   9  -3   0  123.03    3.46 
  -9   3   0  125.24    3.99 
   8  -3   0  207.78    5.61 
   8  -3   0  207.84    5.75 
   8  -3   0  209.21    5.61 
  -8   3   0  211.31    5.76 
  -8   3   0  206.93    5.56 
   7  -3   0  130.47    3.74 
   7  -3   0  128.05    3.83 
   7  -3   0  130.90    3.70 
  -7   3   0  131.47    3.84 
  -7   3   0  129.80    3.69 
   6  -3   0  295.93    7.11 
   6  -3   0  283.55    7.14 
  -6   3   0  263.08    7.46 
  -6   3   0  277.22    7.18 
   5  -3   0  290.65    7.16 
   5  -3   0  288.13    6.87 
   5  -3   0  290.20    7.24 
  -5   3   0  280.65    7.23 
  -5   3   0  283.35    7.18 
   4  -3   0  114.58    3.19 
   4  -3   0  115.47    2.85 
   4  -3   0  120.96    3.12 
  -4   3   0  111.54    3.18 
  -4   3   0  112.20    3.15 
   3  -3   0   14.53    0.90 
   3  -3   0   16.60    0.83 
   3  -3   0   15.61    0.61 
  -3   3   0   14.52    0.94 
  -3   3   0   14.88    0.86 
   2  -3   0   85.52    2.16 
   2  -3   0   81.09    2.09 
   2  -3   0   79.87    2.28 
  -2   3   0   78.15    2.25 
  -2   3   0   77.81    2.03 
  -2   3   0   83.35    2.08 
   1  -3   0   26.01    0.85 
   1  -3   0   24.55    1.02 
   1  -3   0   26.61    0.92 
   1  -3   0   26.58    0.95 
  -1   3   0   25.56    0.93 
  -1   3   0   25.85    1.00 
   0  -3   0   25.17    0.95 
   0  -3   0   26.72    1.02 
   0  -3   0   26.57    0.77 
   0  -3   0   23.67    1.03 
   0   3   0   25.44    0.94 
   0   3   0   25.52    1.02 
  -1  -3   0   87.30    2.22 
  -1  -3   0   81.88    2.18 
  -1  -3   0   83.17    2.36 
   1   3   0   82.86    2.36 
   1   3   0   83.97    2.16 
  -2  -3   0    4.93    0.42 
  -2  -3   0    4.41    0.53 
  -2  -3   0    4.97    0.55 
   2   3   0    4.49    0.48 
   2   3   0    5.93    0.79 
   3   3   0   75.33    2.00 
   3   3   0   70.39    2.28 
  -4  -3   0  109.58    2.80 
  -4  -3   0  112.33    2.89 
   4   3   0  108.32    3.24 
   4   3   0  109.29    2.92 
  -5  -3   0  113.17    2.98 
  -5  -3   0  108.37    2.91 
   5   3   0  108.22    3.33 
   5   3   0  112.03    2.88 
   5   3   0  111.29    3.02 
  -6  -3   0  297.06    7.58 
  -6  -3   0  316.42    7.65 
   6   3   0  317.94    7.55 
   6   3   0  305.11    8.02 
   6   3   0  310.17    7.69 
  -7  -3   0  223.91    5.84 
  -7  -3   0  225.27    5.87 
   7   3   0  237.04    5.79 
   7   3   0  233.38    6.22 
   7   3   0  227.58    6.29 
  -8  -3   0  177.66    4.76 
  -8  -3   0  177.32    4.79 
   8   3   0  176.19    4.85 
   8   3   0  177.10    5.24 
   8   3   0  178.11    4.67 
  -9  -3   0  148.12    4.20 
  -9  -3   0  148.27    4.17 
   9   3   0  152.98    4.73 
   9   3   0  136.07    4.57 
   9   3   0  144.97    4.04 
 -10  -3   0   20.39    1.66 
 -10  -3   0   22.69    1.73 
  10   3   0   21.18    1.75 
  10   3   0   23.30    2.27 
  10   3   0   20.93    2.50 
 -11  -3   0    3.62    0.96 
 -11  -3   0    2.32    1.01 
  11   3   0    0.43    1.07 
  11   3   0    2.38    1.26 
  11   3   0    2.17    0.86 
 -12  -3   0   -0.25    1.09 
 -12  -3   0    0.51    1.11 
  12   3   0    0.00    1.37 
  12   3   0    1.19    1.22 
  12   3   0    1.10    0.90 
 -13  -3   0    1.25    1.34 
 -13  -3   0   -1.14    1.24 
  13   3   0    0.80    1.04 
  13   3   0   -2.23    1.62 
  13   3   0   -2.96    1.45 
  13  -4   0    6.71    0.93 
  13  -4   0    8.74    1.33 
 -13   4   0    6.97    1.81 
  12  -4   0   22.75    2.00 
  12  -4   0   23.93    1.51 
  12  -4   0   22.56    1.59 
 -12   4   0   24.74    2.67 
 -12   4   0   21.34    2.05 
  11  -4   0   52.56    2.45 
  11  -4   0   50.99    1.95 
  11  -4   0   49.18    1.90 
 -11   4   0   50.97    2.45 
 -11   4   0   53.33    2.91 
  10  -4   0  107.84    3.13 
  10  -4   0  110.93    3.21 
  10  -4   0  112.70    3.68 
 -10   4   0  119.48    3.73 
 -10   4   0  116.23    3.97 
   9  -4   0  170.06    4.99 
   9  -4   0  173.65    4.56 
   9  -4   0  181.50    5.12 
   9  -4   0  175.90    4.53 
  -9   4   0  182.22    5.26 
  -9   4   0  178.18    5.06 
   8  -4   0   62.55    2.36 
   8  -4   0   61.30    1.84 
   8  -4   0   58.72    2.28 
  -8   4   0   59.14    2.37 
  -8   4   0   63.80    2.55 
   7  -4   0   25.03    0.99 
   7  -4   0   24.27    1.55 
   7  -4   0   24.31    1.46 
  -7   4   0   24.90    1.63 
  -7   4   0   25.03    1.43 
   6  -4   0   29.01    1.47 
   6  -4   0   27.89    1.39 
   6  -4   0   28.44    1.00 
  -6   4   0   27.07    1.52 
  -6   4   0   27.58    1.43 
   5  -4   0    0.33    0.49 
   5  -4   0    0.12    0.28 
   5  -4   0   -0.02    0.51 
  -5   4   0   -0.26    0.54 
  -5   4   0    0.26    0.49 
   4  -4   0    0.34    0.48 
   4  -4   0    0.58    0.29 
   4  -4   0    0.10    0.45 
  -4   4   0    0.42    0.50 
  -4   4   0    0.31    0.49 
   3  -4   0  195.21    4.71 
   3  -4   0  186.81    4.88 
   3  -4   0  188.84    4.58 
  -3   4   0  181.76    4.84 
  -3   4   0  188.09    4.56 
  -3   4   0  185.17    4.84 
  -3   4   0  178.82    4.49 
   2  -4   0  164.77    4.08 
   2  -4   0  160.17    4.26 
   2  -4   0  169.09    4.09 
  -2   4   0  162.85    4.06 
  -2   4   0  159.65    4.01 
  -2   4   0  161.37    4.24 
   1  -4   0    0.53    0.28 
   1  -4   0    0.39    0.36 
   1  -4   0    0.73    0.33 
   1  -4   0    1.12    0.34 
  -1   4   0    1.06    0.34 
  -1   4   0    0.21    0.34 
   0  -4   0   -0.08    0.22 
   0  -4   0    0.05    0.30 
   0  -4   0    0.07    0.34 
   0  -4   0    0.79    0.36 
   0   4   0   -0.13    0.31 
   0   4   0    0.26    0.35 
  -1  -4   0    8.44    0.66 
  -1  -4   0    9.18    0.64 
  -1  -4   0    8.73    0.83 
   1   4   0    8.98    0.60 
   1   4   0    8.83    0.87 
  -2  -4   0  213.17    5.32 
  -2  -4   0  215.95    5.63 
   2   4   0  219.90    5.65 
   2   4   0  224.44    5.35 
  -3  -4   0  280.04    6.88 
  -3  -4   0  299.07    7.09 
  -3  -4   0  282.71    7.33 
   3   4   0  288.13    6.99 
   3   4   0  288.40    7.35 
   4   4   0  386.94    9.76 
   4   4   0  388.56    9.37 
  -5  -4   0  276.78    6.55 
  -5  -4   0  271.12    6.67 
   5   4   0  265.79    7.13 
   5   4   0  268.43    6.52 
   5   4   0  269.52    6.71 
  -6  -4   0  144.79    3.88 
  -6  -4   0  155.35    4.00 
   6   4   0  153.53    4.50 
   6   4   0  147.97    4.04 
   6   4   0  153.84    3.84 
  -7  -4   0   78.22    2.44 
  -7  -4   0   85.34    2.57 
   7   4   0   82.78    3.11 
   7   4   0   82.11    2.60 
   7   4   0   85.62    2.41 
  -8  -4   0   64.99    2.31 
  -8  -4   0   62.80    2.20 
   8   4   0   66.74    2.12 
   8   4   0   66.13    2.93 
   8   4   0   67.17    2.38 
  -9  -4   0    2.69    0.75 
  -9  -4   0    2.70    0.80 
   9   4   0    2.02    0.70 
   9   4   0    0.96    1.06 
   9   4   0    2.94    0.86 
 -10  -4   0   -0.47    0.82 
  10   4   0   -0.58    1.09 
  10   4   0    0.18    0.90 
  10   4   0    0.95    0.73 
 -11  -4   0    2.51    1.05 
 -11  -4   0    0.53    0.97 
  11   4   0   -0.39    0.81 
  11   4   0    0.58    1.03 
  11   4   0    1.34    1.28 
 -12  -4   0    7.51    1.33 
  12   4   0    3.11    1.29 
  12   4   0   10.50    1.77 
  12   4   0    6.95    1.09 
  13  -5   0   55.71    2.86 
 -13   5   0   59.91    3.69 
  12  -5   0   56.13    2.74 
 -12   5   0   51.92    3.28 
  11  -5   0   90.59    3.43 
 -11   5   0   93.77    3.90 
 -11   5   0   97.89    3.51 
  10  -5   0  102.84    3.60 
  10  -5   0  110.31    3.74 
 -10   5   0  106.82    3.95 
 -10   5   0  109.26    3.70 
   9  -5   0   74.00    2.79 
   9  -5   0   77.58    2.94 
  -9   5   0   78.31    2.93 
   8  -5   0    0.12    0.67 
   8  -5   0   -0.46    0.72 
  -8   5   0    0.06    0.74 
  -8   5   0    1.12    0.87 
   7  -5   0   -0.14    0.65 
   7  -5   0    0.54    0.60 
   7  -5   0    0.37    0.37 
  -7   5   0    0.67    0.66 
  -7   5   0   -0.17    0.74 
   6  -5   0   12.69    1.13 
   6  -5   0   12.54    1.24 
   6  -5   0   14.54    0.75 
  -6   5   0   12.93    1.19 
  -6   5   0   13.10    1.35 
   5  -5   0   10.51    0.68 
   5  -5   0   11.09    1.13 
   5  -5   0   11.02    0.99 
  -5   5   0    8.95    1.06 
  -5   5   0   11.05    1.19 
   4  -5   0    4.19    0.58 
   4  -5   0    4.71    0.61 
   4  -5   0    4.43    0.70 
  -4   5   0    5.02    0.69 
  -4   5   0    5.20    0.59 
  -4   5   0    3.23    0.67 
   3  -5   0   10.24    1.03 
   3  -5   0   12.52    0.79 
   3  -5   0   11.76    0.85 
  -3   5   0   12.09    0.78 
  -3   5   0   11.36    0.63 
  -3   5   0   10.52    1.14 
   2  -5   0   93.74    2.48 
   2  -5   0   92.12    2.55 
   2  -5   0   90.39    2.73 
  -2   5   0   88.51    2.68 
  -2   5   0   90.72    2.47 
  -2   5   0   95.14    2.55 
   1  -5   0   51.73    1.60 
   1  -5   0   49.40    1.73 
   1  -5   0   50.63    1.47 
   1  -5   0   50.14    1.69 
  -1   5   0   48.92    1.70 
  -1   5   0   51.44    1.69 
   0  -5   0  145.73    3.46 
   0  -5   0  140.74    3.79 
   0  -5   0  137.92    3.63 
   0  -5   0  137.43    3.71 
   0   5   0  139.97    3.79 
   0   5   0  138.85    3.68 
  -1  -5   0  435.25   10.39 
  -1  -5   0  434.70   10.11 
  -1  -5   0  416.74   10.37 
  -1  -5   0  429.45   10.57 
   1   5   0  431.11   10.57 
  -2  -5   0  333.50    7.92 
  -2  -5   0  311.83    7.81 
   2   5   0  319.84    8.15 
  -3  -5   0  335.35    8.28 
  -3  -5   0  347.18    8.77 
  -3  -5   0  350.35    8.48 
   3   5   0  346.12    8.36 
   3   5   0  344.67    8.76 
  -4  -5   0  205.51    5.28 
   4   5   0  201.23    5.62 
   4   5   0  207.58    5.17 
  -5  -5   0   95.50    2.82 
   5   5   0   94.94    2.69 
   5   5   0   93.15    3.22 
   6   5   0   21.56    1.77 
   6   5   0   22.30    0.98 
  -7  -5   0   14.92    1.03 
   7   5   0   13.69    0.99 
   7   5   0   14.65    1.85 
   7   5   0   15.08    1.27 
  -8  -5   0    0.37    0.65 
  -8  -5   0    0.09    0.59 
   8   5   0    0.69    0.58 
   8   5   0   -1.19    0.95 
   8   5   0    0.33    0.73 
  -9  -5   0    8.99    1.49 
  -9  -5   0   14.28    1.48 
   9   5   0   12.34    1.24 
   9   5   0    9.76    1.48 
   9   5   0   11.82    1.15 
 -10  -5   0   -1.30    0.79 
 -10  -5   0    1.50    0.92 
  10   5   0    1.73    1.29 
  10   5   0    0.38    0.92 
  10   5   0    1.30    0.76 
 -11  -5   0    0.66    1.15 
 -11  -5   0   -0.45    1.05 
  11   5   0   -0.29    1.12 
  11   5   0   -0.27    0.95 
  11   5   0    1.99    1.43 
 -12  -5   0   -0.01    1.18 
  12   5   0   -3.34    1.57 
  12   5   0    2.69    0.94 
  12   5   0   -1.00    1.43 
  13  -6   0   37.39    2.57 
 -13   6   0   39.72    3.50 
  12  -6   0   38.90    2.40 
 -12   6   0   33.75    3.17 
 -12   6   0   39.49    2.68 
  11  -6   0   19.79    1.93 
 -11   6   0   16.76    1.83 
  10  -6   0    1.53    1.04 
  10  -6   0    0.19    0.84 
 -10   6   0    1.26    1.70 
 -10   6   0    0.59    1.20 
   9  -6   0    2.45    1.68 
   9  -6   0    1.86    0.87 
  -9   6   0    2.05    0.99 
  -9   6   0    1.31    1.10 
   8  -6   0   58.65    2.41 
   8  -6   0   62.48    2.59 
  -8   6   0   59.62    2.87 
  -8   6   0   60.49    2.56 
   7  -6   0    1.89    0.81 
   7  -6   0    2.38    0.72 
  -7   6   0    2.16    0.89 
  -7   6   0    1.32    0.74 
   6  -6   0   14.56    1.38 
   6  -6   0   13.25    1.35 
   6  -6   0   12.60    0.82 
  -6   6   0   14.36    1.36 
  -6   6   0   11.72    1.43 
   5  -6   0    0.09    0.56 
   5  -6   0   -0.14    0.51 
   5  -6   0   -0.14    0.36 
  -5   6   0    0.00    1.03 
  -5   6   0    0.20    0.63 
   4  -6   0   49.14    1.91 
   4  -6   0   48.15    1.98 
   4  -6   0   49.48    1.59 
  -4   6   0   47.87    1.92 
  -4   6   0   47.97    1.42 
  -4   6   0   50.61    1.55 
  -4   6   0   48.23    1.99 
   3  -6   0   74.36    2.47 
   3  -6   0   73.84    2.18 
   3  -6   0   73.52    2.18 
  -3   6   0   72.52    2.06 
  -3   6   0   75.04    2.16 
  -3   6   0   73.12    2.42 
   2  -6   0  290.06    6.93 
   2  -6   0  286.39    7.07 
   2  -6   0  278.01    7.24 
  -2   6   0  279.47    7.20 
  -2   6   0  284.91    7.04 
  -2   6   0  276.98    6.97 
   1  -6   0  550.02   13.58 
   1  -6   0  551.52   13.42 
   1  -6   0  562.26   13.54 
   1  -6   0  568.62   13.27 
  -1   6   0  554.48   13.55 
  -1   6   0  563.95   13.52 
   0  -6   0  485.67   11.22 
   0  -6   0  463.79   11.54 
   0  -6   0  471.09   11.44 
   0  -6   0  473.17   11.62 
   0   6   0  475.93   11.48 
   0   6   0  468.83   11.59 
  -1  -6   0  196.19    4.65 
  -1  -6   0  188.79    4.99 
  -1  -6   0  193.60    5.22 
  -1  -6   0  194.68    4.97 
   1   6   0  194.28    5.20 
  -2  -6   0   89.89    2.65 
  -2  -6   0   88.64    2.56 
  -2  -6   0   91.83    2.92 
   2   6   0   92.41    2.94 
  -3  -6   0  131.63    3.98 
  -3  -6   0  131.86    3.64 
  -3  -6   0  130.26    3.46 
   3   6   0  134.68    3.51 
   3   6   0  135.26    4.00 
  -4  -6   0    1.70    0.38 
  -4  -6   0    2.32    0.60 
   4   6   0    2.68    0.80 
   4   6   0    2.51    0.52 
  -5  -6   0   -0.10    0.59 
   5   6   0    0.28    0.76 
  -6  -6   0    9.45    0.97 
   6   6   0    8.58    1.23 
   6   6   0    9.60    1.11 
  -7  -6   0   44.62    2.01 
   7   6   0   47.03    2.62 
   7   6   0   46.18    1.94 
   8   6   0   -0.93    1.03 
   8   6   0    0.78    0.56 
  -9  -6   0    1.68    0.66 
   9   6   0    0.98    0.87 
   9   6   0    3.09    1.29 
   9   6   0    1.25    0.65 
 -10  -6   0    4.30    0.93 
  10   6   0    6.13    1.17 
  10   6   0    6.54    1.58 
  11   6   0   19.81    2.20 
  11   6   0   17.84    1.56 
 -13   7   0    2.84    1.85 
  12  -7   0    2.42    1.16 
 -12   7   0    0.01    1.66 
  11  -7   0    6.46    1.24 
  11  -7   0    6.60    1.40 
 -11   7   0    7.73    1.46 
 -11   7   0    5.71    1.60 
  10  -7   0    8.61    1.21 
  10  -7   0    7.09    1.29 
   9  -7   0    3.88    1.00 
   9  -7   0    5.20    1.10 
  -9   7   0    2.48    1.20 
   8  -7   0   67.67    3.24 
   8  -7   0   65.29    2.67 
  -8   7   0   71.42    2.99 
  -8   7   0   69.90    2.88 
   7  -7   0    0.09    0.71 
   7  -7   0    0.46    0.84 
  -7   7   0    0.19    0.87 
  -7   7   0    1.26    0.89 
   6  -7   0   43.03    2.12 
   6  -7   0   39.85    1.85 
   6  -7   0   41.20    1.47 
  -6   7   0   41.40    2.09 
  -6   7   0   41.63    2.14 
   5  -7   0   76.33    2.75 
   5  -7   0   73.93    2.43 
   5  -7   0   75.06    2.20 
  -5   7   0   76.99    2.78 
  -5   7   0   71.31    2.66 
  -5   7   0   74.11    2.13 
  -5   7   0   68.78    1.96 
   4  -7   0  104.14    2.88 
   4  -7   0   99.54    3.26 
   4  -7   0  103.32    2.95 
  -4   7   0  100.27    3.23 
  -4   7   0  102.19    3.24 
  -4   7   0   98.04    2.69 
  -4   7   0   99.64    2.82 
   3  -7   0  229.14    5.83 
   3  -7   0  234.54    5.77 
   3  -7   0  228.10    6.11 
  -3   7   0  216.41    6.14 
  -3   7   0  222.31    5.69 
  -3   7   0  232.40    5.79 
   2  -7   0  327.93    8.02 
   2  -7   0  326.79    8.40 
   2  -7   0  330.40    8.24 
  -2   7   0  333.56    8.37 
  -2   7   0  323.95    8.13 
  -2   7   0  330.00    8.21 
   1  -7   0  320.59    8.13 
   1  -7   0  328.80    7.94 
   1  -7   0  328.02    8.34 
  -1   7   0  333.88    8.27 
  -1   7   0  328.64    8.26 
   0  -7   0   93.19    2.46 
   0  -7   0   93.75    2.88 
   0  -7   0   91.19    2.74 
   0  -7   0   96.89    2.98 
   0   7   0   97.83    3.03 
   0   7   0   91.85    2.92 
  -1  -7   0   13.66    1.08 
  -1  -7   0   14.90    0.63 
  -1  -7   0   13.65    1.31 
  -1  -7   0   13.79    1.01 
   1   7   0   14.12    1.30 
  -2  -7   0    3.76    0.60 
  -2  -7   0    3.52    1.32 
  -2  -7   0    4.40    0.66 
   2   7   0    3.54    0.76 
  -3  -7   0    3.04    0.64 
  -3  -7   0    3.32    0.54 
   3   7   0    1.82    0.76 
   3   7   0    2.19    0.52 
  -4  -7   0   18.65    1.28 
  -4  -7   0   18.35    0.96 
   4   7   0   20.10    1.13 
   4   7   0   21.49    1.76 
  -5  -7   0    8.46    0.93 
   5   7   0    8.70    1.21 
   5   7   0    8.97    1.05 
  -6  -7   0    6.87    0.96 
   6   7   0    6.57    0.80 
   6   7   0    6.14    1.17 
  -7  -7   0    2.64    0.90 
   7   7   0    6.48    1.34 
   7   7   0    4.36    0.94 
  -8  -7   0   29.63    3.11 
   8   7   0   39.06    2.75 
   8   7   0   34.42    1.91 
  -9  -7   0   27.54    2.03 
   9   7   0   33.83    2.93 
   9   7   0   27.75    2.01 
 -10  -7   0   44.11    2.50 
  10   7   0   39.13    3.46 
  10   7   0   41.23    2.35 
 -11  -7   0   59.45    3.07 
  11   7   0   67.01    4.08 
  12  -8   0    1.68    1.22 
 -12   8   0    4.49    1.83 
  11  -8   0    3.03    1.13 
  11  -8   0    0.50    1.35 
 -11   8   0    2.98    1.59 
  10  -8   0   -1.16    1.10 
  10  -8   0   -0.92    0.93 
 -10   8   0    0.35    1.16 
 -10   8   0    0.89    1.36 
   9  -8   0    0.40    1.04 
   9  -8   0    0.30    0.86 
  -9   8   0    1.55    1.25 
  -9   8   0    1.49    1.05 
   8  -8   0   64.42    2.88 
   8  -8   0   55.45    2.51 
  -8   8   0   61.53    2.91 
   7  -8   0  123.33    3.37 
   7  -8   0  127.83    4.22 
   7  -8   0  123.73    3.91 
  -7   8   0  133.34    4.25 
   6  -8   0   70.84    2.97 
   6  -8   0   70.31    2.22 
   6  -8   0   70.77    2.57 
  -6   8   0   75.83    3.00 
   5  -8   0  117.79    3.26 
   5  -8   0  117.59    3.82 
  -5   8   0  116.08    3.17 
  -5   8   0  113.28    3.73 
  -5   8   0  115.37    3.81 
  -5   8   0  110.11    3.00 
   4  -8   0  109.38    3.62 
   4  -8   0  113.60    3.24 
   4  -8   0  109.85    3.22 
  -4   8   0  113.98    3.17 
  -4   8   0  111.74    3.59 
  -4   8   0  112.75    3.60 
  -4   8   0  107.49    3.02 
   3  -8   0  111.34    3.59 
   3  -8   0  114.12    3.32 
  -3   8   0  114.13    3.28 
  -3   8   0  109.99    3.14 
  -3   8   0  114.08    3.54 
   2  -8   0   62.93    2.40 
   2  -8   0   64.33    2.26 
   2  -8   0   61.83    1.93 
  -2   8   0   61.43    2.37 
  -2   8   0   63.46    2.70 
  -2   8   0   62.67    2.22 
   1  -8   0    2.59    0.72 
   1  -8   0    2.66    0.62 
   1  -8   0    3.06    0.68 
   1  -8   0    2.40    0.47 
  -1   8   0    1.79    0.64 
  -1   8   0    3.70    0.69 
   0  -8   0   13.10    0.77 
   0  -8   0   12.91    1.08 
   0  -8   0   11.71    1.20 
   0  -8   0   11.31    1.38 
   0   8   0   11.87    1.30 
  -1  -8   0   20.35    1.32 
  -1  -8   0   21.99    1.25 
  -1  -8   0   19.81    1.57 
  -1  -8   0   20.66    0.83 
   1   8   0   20.17    1.56 
  -2  -8   0   16.54    1.65 
  -2  -8   0   14.55    1.16 
  -2  -8   0   14.09    1.14 
   2   8   0   13.62    1.58 
  -3  -8   0    4.06    0.78 
  -3  -8   0    3.80    0.65 
   3   8   0    3.53    0.61 
   3   8   0    2.25    0.89 
  -4  -8   0    0.86    0.51 
  -4  -8   0   -0.03    0.65 
   4   8   0    0.01    1.64 
   4   8   0    0.63    0.57 
  -5  -8   0    1.14    0.75 
   5   8   0    0.49    0.99 
   5   8   0    0.66    0.65 
  -6  -8   0   13.15    1.44 
   6   8   0   12.17    1.60 
  -7  -8   0   95.25    4.27 
   7   8   0  101.81    4.15 
   7   8   0  100.00    3.20 
  -8  -8   0   58.94    2.67 
   8   8   0   66.99    3.57 
   8   8   0   60.27    2.54 
  -9  -8   0   53.23    2.64 
   9   8   0   52.72    3.64 
   9   8   0   50.06    2.42 
 -10  -8   0   44.60    2.72 
  10   8   0   57.85    3.88 
 -12   9   0   -2.70    2.95 
  11  -9   0    9.42    1.45 
  11  -9   0   12.76    1.84 
 -11   9   0   13.84    1.99 
  10  -9   0   31.41    2.65 
  10  -9   0   31.18    2.31 
 -10   9   0   31.69    3.07 
   9  -9   0   53.85    2.94 
   9  -9   0   47.71    2.60 
  -9   9   0   52.34    3.05 
  -9   9   0   58.55    2.94 
   8  -9   0  173.07    5.46 
   8  -9   0  174.66    5.17 
  -8   9   0  159.38    5.30 
  -8   9   0  177.50    5.49 
   7  -9   0  169.64    4.46 
   7  -9   0  172.17    5.36 
   7  -9   0  172.28    5.01 
  -7   9   0  166.61    5.27 
   6  -9   0  123.23    3.88 
   6  -9   0  132.82    4.35 
   6  -9   0  128.64    3.62 
  -6   9   0  131.15    4.32 
  -6   9   0  128.11    3.49 
   5  -9   0   71.65    2.53 
   5  -9   0   76.29    3.39 
   5  -9   0   72.43    2.45 
  -5   9   0   74.26    2.34 
  -5   9   0   74.69    2.93 
  -5   9   0   61.46    4.37 
  -5   9   0   71.50    2.14 
   4  -9   0    9.09    1.07 
   4  -9   0    9.31    1.19 
   4  -9   0    8.32    1.06 
  -4   9   0    7.38    0.83 
  -4   9   0    8.82    1.09 
  -4   9   0    8.23    1.11 
  -4   9   0    8.43    0.93 
   3  -9   0    2.89    0.90 
   3  -9   0    4.86    0.81 
   3  -9   0    4.58    0.68 
  -3   9   0    3.91    0.69 
  -3   9   0    4.41    0.89 
  -3   9   0    4.30    0.79 
   2  -9   0    8.79    0.89 
   2  -9   0    8.43    1.11 
   2  -9   0    9.26    1.00 
  -2   9   0    7.47    1.07 
  -2   9   0    7.74    0.94 
  -2   9   0    8.15    1.00 
   1  -9   0   19.06    1.32 
   1  -9   0   19.55    1.02 
   1  -9   0   18.63    1.95 
   1  -9   0   20.11    1.60 
  -1   9   0   19.63    1.43 
  -1   9   0   20.65    1.59 
   0  -9   0   15.75    1.46 
   0  -9   0   19.37    1.69 
   0  -9   0   17.68    0.91 
   0  -9   0   17.67    1.30 
   0   9   0   17.09    1.62 
   0   9   0   16.89    0.85 
  -1  -9   0    8.99    1.00 
  -1  -9   0   12.24    1.18 
  -1  -9   0    8.28    1.08 
   1   9   0    8.57    1.11 
  -2  -9   0    6.67    0.86 
  -2  -9   0    5.80    0.87 
   2   9   0    5.67    1.02 
  -3  -9   0    8.01    1.00 
  -3  -9   0    8.93    0.91 
   3   9   0    7.72    1.29 
   3   9   0    8.00    0.94 
  -4  -9   0   46.62    1.78 
  -4  -9   0   47.43    2.13 
   4   9   0   49.23    1.91 
   4   9   0   50.32    2.70 
  -5  -9   0  133.88    4.11 
   5   9   0  133.95    4.74 
   5   9   0  134.43    3.87 
   6   9   0  159.93    4.58 
   6   9   0  166.45    5.55 
  -7  -9   0   95.21    3.43 
   7   9   0   97.62    3.22 
   7   9   0   95.27    4.25 
  -8  -9   0   55.70    2.70 
   8   9   0   57.86    3.77 
   8   9   0   49.98    2.47 
  -9  -9   0   22.01    2.20 
   9   9   0   27.09    3.44 
  11 -10   0   46.70    3.36 
  11 -10   0   53.84    3.04 
 -11  10   0   55.60    3.84 
  10 -10   0   71.01    3.26 
  10 -10   0   72.38    3.65 
 -10  10   0   75.75    4.00 
   9 -10   0   76.16    3.21 
   9 -10   0   76.86    3.62 
  -9  10   0   76.85    3.79 
   8 -10   0   53.36    2.99 
   8 -10   0   48.72    2.50 
  -8  10   0   54.76    3.06 
   7 -10   0   23.64    1.84 
   7 -10   0   22.39    1.42 
   7 -10   0   24.06    2.25 
  -7  10   0   27.78    2.44 
   6 -10   0   13.63    1.59 
   6 -10   0   10.32    1.10 
   6 -10   0   10.65    1.36 
  -6  10   0   11.47    0.87 
  -6  10   0   10.11    1.45 
  -6  10   0   13.05    1.21 
   5 -10   0    0.74    0.68 
   5 -10   0    0.19    0.70 
   5 -10   0    1.14    1.03 
  -5  10   0   -0.43    0.94 
  -5  10   0   -0.38    0.56 
  -5  10   0    1.32    1.05 
  -5  10   0    0.13    0.64 
   4 -10   0   12.98    1.24 
   4 -10   0   14.36    1.55 
   4 -10   0   15.26    1.87 
  -4  10   0   12.12    1.12 
  -4  10   0   13.82    1.74 
  -4  10   0   14.29    1.80 
  -4  10   0   14.17    1.45 
   3 -10   0   14.04    1.13 
  -3  10   0   18.58    1.29 
  -3  10   0   16.64    1.54 
  -3  10   0   15.85    1.70 
   2 -10   0   20.08    1.77 
   2 -10   0   15.55    1.68 
   2 -10   0   20.26    1.80 
  -2  10   0   19.39    1.45 
  -2  10   0   18.00    1.64 
  -2  10   0   17.39    1.65 
   1 -10   0    1.18    0.71 
   1 -10   0    2.60    0.90 
   1 -10   0    1.25    0.55 
   1 -10   0    0.55    0.86 
  -1  10   0    1.12    0.49 
  -1  10   0    1.55    0.75 
  -1  10   0    0.98    0.80 
   0 -10   0    1.16    0.51 
   0 -10   0    1.54    0.92 
   0 -10   0    1.42    0.73 
   0 -10   0    1.84    0.87 
   0  10   0    1.28    0.87 
  -1 -10   0   29.23    1.76 
  -1 -10   0   27.54    1.65 
   1  10   0   22.60    2.58 
  -2 -10   0   58.65    2.35 
  -2 -10   0   60.33    2.37 
   2  10   0   62.93    2.89 
  -3 -10   0   94.25    2.99 
  -3 -10   0   91.09    3.15 
   3  10   0   93.18    2.93 
   3  10   0   96.44    3.72 
  -4 -10   0  107.54    3.21 
  -4 -10   0  100.58    3.78 
   4  10   0  111.39    3.33 
   4  10   0  112.70    4.22 
  -5 -10   0   44.60    2.36 
   5  10   0   45.49    3.01 
   5  10   0   48.61    2.12 
  -6 -10   0   79.23    3.10 
   6  10   0   82.21    2.90 
   6  10   0   82.58    3.96 
  -7 -10   0   48.67    2.58 
   7  10   0   50.67    3.63 
   7  10   0   47.88    2.33 
  -8 -10   0    6.25    1.33 
   8  10   0    5.04    1.81 
  10 -11   0   37.22    2.63 
  10 -11   0   41.04    3.21 
 -10  11   0   40.64    3.60 
   9 -11   0    7.15    1.67 
   9 -11   0    5.93    1.27 
  -9  11   0    4.12    1.65 
   8 -11   0    0.62    0.95 
   8 -11   0    1.80    1.34 
  -8  11   0   -1.48    1.36 
   7 -11   0    0.51    0.88 
   7 -11   0   -0.04    1.19 
  -7  11   0   -0.79    1.27 
   6 -11   0    8.31    1.02 
   6 -11   0    6.35    1.03 
   6 -11   0    6.47    1.41 
  -6  11   0    6.54    1.39 
  -6  11   0    6.64    0.84 
  -6  11   0    6.84    0.74 
  -6  11   0    6.60    1.45 
   5 -11   0   16.11    1.43 
   5 -11   0   17.87    2.19 
   5 -11   0   17.72    1.70 
  -5  11   0   15.39    1.54 
  -5  11   0   15.03    1.24 
  -5  11   0   19.11    2.29 
  -5  11   0   16.90    2.08 
   4 -11   0    7.83    1.38 
   4 -11   0    8.94    1.12 
   4 -11   0    8.20    0.92 
  -4  11   0    9.54    1.35 
  -4  11   0    7.26    1.23 
  -4  11   0    8.87    0.98 
  -4  11   0    8.15    1.04 
   3 -11   0    1.21    0.94 
   3 -11   0    1.74    0.69 
   3 -11   0    2.32    1.09 
  -3  11   0    2.92    0.81 
  -3  11   0    1.46    0.89 
   2 -11   0   17.50    1.20 
   2 -11   0   17.75    1.97 
   2 -11   0   16.64    1.97 
  -2  11   0   18.93    1.82 
  -2  11   0   16.97    1.27 
  -2  11   0   17.66    1.56 
   1 -11   0   83.31    2.43 
   1 -11   0   73.96    4.49 
   1 -11   0   81.25    3.32 
  -1  11   0   83.48    2.97 
  -1  11   0   81.29    2.43 
  -1  11   0   81.60    3.17 
  -1  11   0   80.60    2.40 
   0 -11   0   16.71    1.80 
   0 -11   0   15.46    1.03 
   0 -11   0   17.06    1.51 
   0  11   0   16.49    1.74 
   0  11   0   16.11    1.98 
  -1 -11   0  138.42    4.70 
  -1 -11   0  151.04    4.59 
   1  11   0  159.05    4.95 
  -2 -11   0   93.72    3.14 
  -2 -11   0   76.81    4.09 
   2  11   0   92.79    3.73 
  -3 -11   0   62.66    2.61 
  -3 -11   0   64.80    2.48 
   3  11   0   64.06    2.40 
   3  11   0   60.30    3.22 
  -4 -11   0   38.66    1.90 
  -4 -11   0   40.26    2.16 
   4  11   0   41.31    2.04 
   4  11   0   38.51    2.98 
  -5 -11   0    3.38    1.14 
   5  11   0    3.80    1.02 
   5  11   0    3.27    1.47 
  -6 -11   0    1.30    1.13 
   6  11   0    0.84    1.62 
   6  11   0    2.78    1.02 
  -7 -11   0    0.09    1.15 
   7  11   0   -0.38    1.70 
   9 -12   0    3.79    1.94 
   9 -12   0    6.64    1.42 
  -9  12   0    8.66    2.45 
   8 -12   0    0.71    1.08 
   8 -12   0    0.66    1.42 
  -8  12   0    2.43    1.56 
   7 -12   0   13.67    1.82 
   7 -12   0   17.16    1.78 
  -7  12   0   12.73    1.52 
  -7  12   0   10.27    1.79 
   6 -12   0    1.03    0.87 
   6 -12   0    1.35    1.42 
  -6  12   0    2.02    1.09 
  -6  12   0    2.59    0.86 
  -6  12   0    1.36    1.40 
  -6  12   0    1.12    1.11 
   5 -12   0    2.73    1.36 
   5 -12   0    0.77    0.75 
  -5  12   0    0.13    0.92 
  -5  12   0    0.88    0.99 
  -5  12   0    2.17    1.29 
  -5  12   0   -0.54    0.78 
   4 -12   0   19.66    1.47 
   4 -12   0   18.82    2.33 
  -4  12   0   18.95    1.61 
  -4  12   0   19.59    1.73 
  -4  12   0   17.72    1.76 
  -4  12   0   18.34    1.87 
   3 -12   0   47.06    2.83 
   3 -12   0   45.58    1.89 
  -3  12   0   47.20    2.09 
  -3  12   0   48.73    2.45 
  -3  12   0   46.43    2.17 
   2 -12   0   82.36    2.58 
   2 -12   0   81.20    3.46 
  -2  12   0   84.66    3.34 
  -2  12   0   80.64    3.01 
  -2  12   0   81.05    2.61 
   1 -12   0  126.73    3.52 
   1 -12   0  132.33    4.41 
  -1  12   0  126.31    4.35 
  -1  12   0  125.20    3.42 
  -1  12   0  124.74    3.46 
  -1  12   0  125.54    4.10 
   0 -12   0   73.38    2.97 
   0 -12   0   81.27    3.23 
   0  12   0   81.74    3.43 
   0  12   0   77.78    3.17 
  -1 -12   0  102.51    5.20 
  -1 -12   0  119.36    3.83 
   1  12   0  112.68    4.08 
   1  12   0  117.73    4.36 
  -2 -12   0   30.20    2.02 
  -2 -12   0   29.95    2.11 
   2  12   0   31.45    2.79 
   2  12   0   31.46    1.98 
  -3 -12   0    8.34    1.22 
  -3 -12   0    7.66    1.22 
   3  12   0    8.49    1.14 
   3  12   0    7.51    1.63 
  -4 -12   0   -0.02    0.96 
   4  12   0   -0.05    0.95 
   4  12   0   -1.05    1.50 
  -5 -12   0    0.67    1.03 
   5  12   0    1.27    1.66 
   5  12   0    3.22    1.08 
  -6 -12   0    4.36    1.34 
   7 -13   0    6.84    1.16 
   7 -13   0    4.86    1.64 
  -7  13   0    3.27    1.65 
   6 -13   0   31.76    2.00 
   6 -13   0   32.58    3.09 
  -6  13   0   29.41    3.19 
  -6  13   0   29.88    2.03 
  -6  13   0   29.24    2.51 
   5 -13   0   21.63    1.71 
   5 -13   0   24.33    2.86 
  -5  13   0   20.89    2.18 
  -5  13   0   21.53    1.62 
  -5  13   0   19.31    2.15 
  -5  13   0   22.92    2.10 
   4 -13   0   82.59    3.95 
   4 -13   0   80.12    2.81 
  -4  13   0   81.42    3.84 
  -4  13   0   87.81    2.97 
  -4  13   0   79.23    3.06 
   3 -13   0   89.59    2.96 
   3 -13   0   89.63    4.05 
  -3  13   0   95.78    3.06 
  -3  13   0   98.24    3.92 
  -3  13   0   97.13    3.60 
  -3  13   0   87.60    3.32 
   2 -13   0   79.37    3.70 
   2 -13   0   79.21    2.61 
  -2  13   0   79.70    3.17 
  -2  13   0   81.16    2.59 
  -2  13   0   83.78    3.51 
  -2  13   0   81.66    2.67 
   1 -13   0   36.81    2.71 
  -1  13   0   39.78    2.77 
  -1  13   0   32.88    2.38 
   0 -13   0   11.68    1.62 
   0 -13   0   10.54    1.39 
   0  13   0   17.15    2.09 
   0  13   0    9.46    1.57 
  -1 -13   0    6.20    1.38 
  -1 -13   0    5.53    1.22 
   1  13   0    5.83    1.53 
  -2 -13   0    1.25    1.19 
  -2 -13   0   -0.26    1.00 
   2  13   0    0.61    1.47 
   2  13   0    1.38    1.02 
  -3 -13   0    4.03    1.23 
  -3 -13   0    5.11    1.37 
   3  13   0    3.86    1.72 
   3  13   0    8.39    1.22 
  -4 -13   0    8.48    1.44 
   4  13   0    9.63    1.43 
   4  13   0    7.45    1.93 
   5 -14   0   54.14    3.66 
   5 -14   0   56.52    2.46 
  -5  14   0   56.12    3.72 
  -5  14   0   58.63    2.83 
   4 -14   0   66.32    2.64 
   4 -14   0   73.25    3.96 
  -4  14   0   71.31    3.89 
  -4  14   0   67.87    3.24 
   3 -14   0   45.69    3.43 
   3 -14   0   46.01    2.05 
  -3  14   0   44.10    2.47 
  -3  14   0   43.88    2.96 
  -3  14   0   44.04    3.29 
  -3  14   0   45.32    2.18 
   2 -14   0   16.84    2.10 
  -2  14   0   16.74    1.84 
  -2  14   0   15.74    2.12 
   1 -14   0   -0.21    1.50 
  -1  14   0    2.99    1.45 
   0 -14   0    2.48    1.56 
   0  14   0   -0.16    1.53 
  -1 -14   0    3.24    1.31 
  -1 -14   0    3.97    1.55 
   1  14   0    5.80    1.76 
   2  13  -1   44.53    3.62 
   2  13  -1   54.22    3.10 
  -2 -13   1   49.23    2.64 
  -2 -13   1   50.33    2.87 
   1  13  -1   60.99    3.69 
   1  13  -1   59.85    3.53 
  -1 -13   1   57.17    2.75 
  -1 -13   1   59.56    3.14 
   0  13  -1   92.81    4.19 
   0 -13   1   94.19    3.92 
  -1  13  -1   68.40    3.12 
  -1  13  -1   70.35    3.43 
   1 -13   1   63.73    3.46 
  -2  13  -1   76.22    3.17 
  -2  13  -1   80.15    3.57 
   2 -13   1   68.30    3.67 
  -3  13  -1   50.56    2.94 
  -3  13  -1   48.03    2.37 
  -3  13  -1   52.88    2.51 
   3 -13   1   50.25    2.07 
   3 -13   1   47.69    3.30 
  -4  13  -1   11.36    1.30 
  -4  13  -1    9.21    1.45 
  -4  13  -1    7.94    1.12 
  -4  13  -1   10.46    1.77 
   4 -13   1   10.86    1.08 
   4 -13   1   14.62    2.02 
  -5  13  -1   -0.28    1.05 
  -5  13  -1    1.83    1.56 
  -5  13  -1    0.84    1.14 
   5 -13   1    2.00    1.43 
   5 -13   1    1.88    0.89 
   5 -13   1    2.09    1.55 
  -6  13  -1   -1.16    1.20 
  -6  13  -1    2.04    1.14 
  -6  13  -1   -2.11    1.60 
   6 -13   1    0.58    0.88 
   6 -13   1    2.11    1.64 
  -7  13  -1    6.28    1.96 
   7 -13   1    7.47    2.88 
   7 -13   1    6.39    1.16 
   5  12  -1   12.41    1.68 
   4  12  -1   23.94    2.11 
   4  12  -1   19.54    2.23 
  -4 -12   1   19.82    2.03 
  -4 -12   1   16.27    1.76 
   3  12  -1   42.76    2.37 
   3  12  -1   38.91    3.42 
  -3 -12   1   42.83    2.42 
  -3 -12   1   41.99    2.35 
   2  12  -1   87.68    3.26 
   2  12  -1   92.98    4.20 
  -2 -12   1   90.02    3.36 
   1  12  -1   85.90    3.83 
  -1 -12   1   79.44    3.11 
  -1 -12   1   81.72    3.37 
   0  12  -1   46.39    2.97 
   0 -12   1   48.83    2.77 
   0 -12   1   50.47    2.39 
  -1  12  -1   30.96    2.21 
  -1  12  -1   30.70    2.56 
   1 -12   1   35.84    2.45 
  -2  12  -1    9.36    1.27 
  -2  12  -1    8.36    1.36 
  -2  12  -1    6.20    0.78 
   2 -12   1    7.79    0.84 
   2 -12   1    8.52    1.50 
  -3  12  -1    0.97    0.99 
  -3  12  -1    0.03    1.03 
   3 -12   1    0.08    1.18 
   3 -12   1    0.43    1.22 
  -4  12  -1    3.13    2.08 
  -4  12  -1    4.20    0.97 
  -4  12  -1    4.96    0.97 
   4 -12   1    3.07    1.23 
   4 -12   1    4.49    0.84 
   4 -12   1    7.45    1.47 
  -5  12  -1   17.22    2.00 
  -5  12  -1   21.74    2.60 
  -5  12  -1   19.86    2.02 
   5 -12   1   20.88    2.62 
   5 -12   1   17.05    1.63 
   5 -12   1   17.14    1.50 
  -6  12  -1    5.58    1.31 
  -6  12  -1    8.52    0.93 
  -6  12  -1    7.05    1.12 
  -6  12  -1    6.54    1.67 
   6 -12   1    6.81    1.08 
   6 -12   1    7.69    1.68 
   6 -12   1    6.17    1.30 
  -7  12  -1   -1.21    1.55 
  -7  12  -1    0.14    0.91 
  -7  12  -1   -0.96    1.22 
   7 -12   1    0.28    0.92 
   7 -12   1    0.23    1.07 
   7 -12   1    2.09    1.55 
  -8  12  -1    6.53    1.73 
   8 -12   1   10.37    1.86 
   8 -12   1    8.78    1.37 
   6  11  -1   29.36    3.49 
   6  11  -1   22.88    2.19 
  -6 -11   1   23.67    2.14 
   5  11  -1   52.18    2.61 
   5  11  -1   55.92    3.82 
  -5 -11   1   52.32    2.62 
   4  11  -1   65.24    3.76 
   4  11  -1   65.29    2.69 
  -4 -11   1   62.67    2.74 
  -4 -11   1   63.30    2.44 
   3  11  -1   53.34    2.39 
   3  11  -1   59.00    3.43 
  -3 -11   1   56.88    2.53 
  -3 -11   1   57.57    2.42 
   2  11  -1   57.64    3.26 
   2  11  -1   55.69    2.39 
  -2 -11   1   55.54    2.51 
  -2 -11   1   62.16    2.61 
   1  11  -1   12.45    1.51 
  -1 -11   1   12.97    1.60 
  -1 -11   1   10.75    1.32 
   0  11  -1    2.09    1.11 
  -1  11  -1    5.49    1.17 
   1 -11   1    6.48    1.29 
   1 -11   1    8.68    0.99 
   1 -11   1    7.01    1.26 
  -2  11  -1    5.97    0.82 
  -2  11  -1    4.91    1.01 
   2 -11   1    6.04    1.20 
   2 -11   1    4.98    1.22 
  -3  11  -1   14.06    1.46 
  -3  11  -1   12.98    1.31 
  -3  11  -1   12.96    1.80 
   3 -11   1   12.33    1.17 
   3 -11   1   10.33    1.48 
   3 -11   1   13.55    1.42 
  -4  11  -1    3.76    0.92 
  -4  11  -1    3.51    0.97 
   4 -11   1    3.01    1.11 
   4 -11   1    4.72    1.30 
   4 -11   1    4.10    0.77 
  -5  11  -1    0.20    0.74 
  -5  11  -1   -1.02    1.06 
  -5  11  -1   -0.88    0.85 
  -5  11  -1    0.12    0.87 
   5 -11   1   -0.41    0.94 
   5 -11   1    0.87    1.17 
   5 -11   1   -0.23    0.72 
  -6  11  -1   22.86    1.24 
  -6  11  -1   24.52    2.03 
  -6  11  -1   21.29    2.57 
  -6  11  -1   19.41    1.68 
   6 -11   1   22.83    2.40 
   6 -11   1   22.08    1.68 
   6 -11   1   20.56    1.97 
  -7  11  -1   34.54    1.84 
  -7  11  -1   31.93    2.39 
  -7  11  -1   32.23    2.87 
   7 -11   1   32.83    2.12 
   7 -11   1   35.84    2.09 
   7 -11   1   36.40    2.79 
  -8  11  -1   44.56    2.69 
  -8  11  -1   47.06    3.27 
   8 -11   1   43.51    2.11 
   8 -11   1   45.01    2.47 
   8 -11   1   47.76    3.13 
  -9  11  -1   87.91    4.17 
   9 -11   1   85.62    4.04 
   9 -11   1   80.21    3.48 
 -10  11  -1  133.17    6.28 
  10 -11   1  115.96    4.81 
  10 -11   1  105.19    4.29 
   7  10  -1   86.94    4.47 
   7  10  -1   85.83    3.28 
  -7 -10   1   88.60    3.53 
   6  10  -1   75.49    4.02 
   6  10  -1   72.81    2.95 
  -6 -10   1   74.87    3.11 
   5  10  -1   44.26    3.16 
   5  10  -1   42.50    2.24 
  -5 -10   1   44.38    1.73 
  -5 -10   1   41.43    2.27 
   4  10  -1   38.47    1.98 
   4  10  -1   39.96    2.91 
  -4 -10   1   39.72    2.29 
  -4 -10   1   42.79    1.83 
   3  10  -1   12.28    1.44 
   3  10  -1   11.74    1.58 
  -3 -10   1   11.80    1.43 
  -3 -10   1   13.53    1.42 
   2  10  -1    0.37    1.06 
   2  10  -1   -0.11    0.69 
  -2 -10   1   -0.14    0.78 
  -2 -10   1   -0.07    0.75 
   1  10  -1    7.58    1.26 
  -1 -10   1    8.81    1.13 
  -1 -10   1    6.54    1.48 
  -1 -10   1    9.06    1.08 
   0 -10   1   31.82    1.95 
   0 -10   1   34.68    2.32 
   0 -10   1   32.02    1.76 
   0 -10   1   31.94    1.20 
  -1  10  -1    8.75    0.84 
  -1  10  -1    7.67    1.17 
   1 -10   1    7.57    0.98 
   1 -10   1    7.53    0.89 
   1 -10   1    7.56    1.15 
   1 -10   1    9.31    1.23 
  -2  10  -1    7.16    1.09 
  -2  10  -1    7.29    1.03 
   2 -10   1    6.98    1.35 
   2 -10   1    5.58    1.08 
   2 -10   1    5.68    0.70 
  -3  10  -1    1.09    0.84 
  -3  10  -1    0.17    0.65 
  -3  10  -1    0.98    0.79 
   3 -10   1    0.87    0.86 
   3 -10   1   -0.54    0.54 
   3 -10   1    0.27    0.92 
  -4  10  -1   10.91    1.37 
  -4  10  -1   13.12    1.55 
  -4  10  -1   12.35    1.19 
   4 -10   1   10.16    1.36 
   4 -10   1   13.55    1.65 
  -5  10  -1   66.26    2.26 
  -5  10  -1   68.22    2.54 
  -5  10  -1   71.25    2.62 
  -5  10  -1   68.40    3.05 
   5 -10   1   70.51    3.12 
   5 -10   1   71.12    2.74 
   5 -10   1   67.33    2.48 
  -6  10  -1  105.24    3.53 
  -6  10  -1  107.84    4.06 
  -6  10  -1  102.92    3.19 
   6 -10   1  103.53    3.97 
   6 -10   1   99.44    3.37 
   6 -10   1  107.49    3.42 
  -7  10  -1   94.84    3.85 
  -7  10  -1   83.51    3.32 
   7 -10   1   93.53    3.77 
   7 -10   1   88.25    3.00 
   7 -10   1   92.34    3.25 
  -8  10  -1   83.09    3.72 
  -8  10  -1   80.08    3.36 
   8 -10   1   81.08    3.21 
   8 -10   1   86.14    3.66 
   8 -10   1   81.97    2.77 
  -9  10  -1   80.57    3.77 
   9 -10   1   74.33    3.60 
   9 -10   1   67.62    3.12 
 -10  10  -1   36.13    3.31 
  10 -10   1   33.50    2.99 
  10 -10   1   33.80    2.47 
 -11  10  -1    4.83    2.06 
  11 -10   1    3.87    1.30 
  11 -10   1    2.24    1.63 
   8   9  -1   33.65    2.39 
   8   9  -1   38.54    3.41 
  -8  -9   1   35.74    2.43 
   7   9  -1   39.05    2.32 
   7   9  -1   44.41    3.35 
  -7  -9   1   44.21    2.40 
   6   9  -1   49.15    2.31 
   6   9  -1   48.82    3.18 
  -6  -9   1   49.16    2.42 
   5   9  -1    8.47    1.46 
   5   9  -1    9.63    1.06 
  -5  -9   1   10.36    1.21 
  -5  -9   1   11.76    1.04 
   4   9  -1    2.10    0.75 
   4   9  -1    1.74    1.14 
  -4  -9   1    2.87    0.69 
  -4  -9   1    2.08    0.84 
   3   9  -1    4.65    0.79 
   3   9  -1    3.86    1.09 
  -3  -9   1    5.75    0.83 
  -3  -9   1    5.55    0.91 
   2   9  -1    3.92    1.11 
   2   9  -1    5.86    0.78 
  -2  -9   1    4.99    1.14 
  -2  -9   1    6.03    0.87 
  -2  -9   1    5.17    0.84 
   1   9  -1   24.37    1.96 
  -1  -9   1   19.19    1.54 
  -1  -9   1   21.36    1.45 
  -1  -9   1   23.01    1.93 
   0   9  -1    4.60    0.98 
   0  -9   1    4.36    0.96 
   0  -9   1    5.60    0.98 
   0  -9   1    6.91    0.73 
   0  -9   1    5.31    0.85 
  -1   9  -1   -0.14    0.42 
  -1   9  -1    0.35    0.78 
   1  -9   1    0.35    0.77 
   1  -9   1   -0.21    0.80 
   1  -9   1    0.67    0.68 
   1  -9   1    1.02    0.46 
  -2   9  -1   14.62    1.57 
  -2   9  -1   14.20    1.10 
   2  -9   1   16.32    1.57 
   2  -9   1   15.34    0.97 
   2  -9   1   15.44    1.64 
  -3   9  -1   57.39    2.04 
  -3   9  -1   61.06    2.31 
  -3   9  -1   54.05    2.04 
   3  -9   1   55.65    2.52 
   3  -9   1   55.58    2.64 
   3  -9   1   57.08    1.92 
  -4   9  -1  101.21    3.26 
  -4   9  -1  111.78    3.65 
  -4   9  -1  111.30    3.37 
   4  -9   1  102.47    4.11 
   4  -9   1  114.46    3.24 
   4  -9   1  110.30    3.45 
  -5   9  -1  125.30    3.68 
  -5   9  -1  126.11    3.42 
  -5   9  -1  126.02    4.12 
   5  -9   1  126.38    4.22 
   5  -9   1  125.67    3.73 
   5  -9   1  129.27    3.82 
  -6   9  -1   86.96    2.75 
  -6   9  -1   90.98    3.55 
   6  -9   1   90.58    3.46 
   6  -9   1   90.41    3.03 
   6  -9   1   86.88    3.21 
  -7   9  -1   82.22    3.38 
   7  -9   1   75.75    2.84 
   7  -9   1   78.63    3.28 
   7  -9   1   72.74    2.56 
  -8   9  -1   39.41    2.67 
  -8   9  -1   34.56    2.48 
   8  -9   1   37.92    1.72 
   8  -9   1   37.70    2.57 
   8  -9   1   38.35    2.14 
  -9   9  -1    0.60    1.31 
  -9   9  -1    3.50    1.84 
   9  -9   1   -0.83    1.14 
   9  -9   1    2.78    1.04 
 -10   9  -1    0.26    1.45 
  10  -9   1   -1.60    1.23 
  10  -9   1   -0.30    1.04 
 -11   9  -1    1.86    1.71 
  11  -9   1    3.63    1.27 
  11  -9   1    5.96    1.56 
 -12   9  -1   -0.35    2.11 
  12  -9   1    5.33    1.74 
  12  -9   1    2.34    1.63 
   9   8  -1   23.88    3.22 
   9   8  -1   15.79    1.51 
  -9  -8   1   18.31    2.07 
   8   8  -1   16.25    2.03 
   8   8  -1   13.84    1.44 
  -8  -8   1   14.36    1.48 
   7   8  -1    8.36    1.71 
   7   8  -1   11.37    1.21 
  -7  -8   1   11.30    1.40 
   6   8  -1   12.60    1.47 
   6   8  -1   12.56    1.64 
  -6  -8   1   10.94    1.18 
   5   8  -1    6.71    0.90 
   5   8  -1    7.63    1.28 
  -5  -8   1    9.36    1.04 
  -5  -8   1    7.09    0.84 
   4   8  -1    0.42    0.97 
   4   8  -1    0.59    0.66 
  -4  -8   1    1.39    0.79 
  -4  -8   1    1.24    0.56 
   3   8  -1    0.65    0.61 
   3   8  -1   -0.56    1.01 
  -3  -8   1   -0.27    0.66 
  -3  -8   1    0.49    0.92 
  -3  -8   1    0.21    0.60 
   2   8  -1    2.17    0.84 
   2   8  -1    3.71    0.78 
  -2  -8   1    3.12    0.73 
  -2  -8   1    3.38    0.93 
  -2  -8   1    2.35    0.71 
   1   8  -1    4.44    0.96 
  -1  -8   1    5.82    0.84 
  -1  -8   1    7.50    0.85 
  -1  -8   1    5.19    0.96 
   0   8  -1   33.63    1.87 
   0  -8   1   31.86    1.66 
   0  -8   1   30.21    1.08 
   0  -8   1   32.18    1.52 
   0  -8   1   31.69    1.87 
  -1   8  -1  132.45    3.90 
  -1   8  -1  127.70    3.35 
   1  -8   1  127.43    3.33 
   1  -8   1  128.16    3.65 
   1  -8   1  127.31    3.87 
  -2   8  -1  173.76    4.57 
  -2   8  -1  178.91    4.92 
   2  -8   1  176.92    5.05 
   2  -8   1  172.93    4.51 
   2  -8   1  181.17    4.96 
  -3   8  -1  163.19    4.63 
  -3   8  -1  159.26    4.45 
   3  -8   1  164.65    4.53 
   3  -8   1  157.31    4.26 
   3  -8   1  156.27    4.72 
  -4   8  -1   97.90    2.85 
  -4   8  -1  102.55    3.09 
  -4   8  -1  103.43    3.38 
   4  -8   1  101.53    3.46 
   4  -8   1  101.15    3.18 
   4  -8   1  106.58    3.03 
  -5   8  -1   22.75    1.04 
  -5   8  -1   25.87    1.38 
  -5   8  -1   24.91    1.75 
   5  -8   1   25.01    1.78 
   5  -8   1   23.70    1.44 
   5  -8   1   24.63    1.62 
  -6   8  -1   13.47    1.13 
   6  -8   1   11.68    1.10 
   6  -8   1   10.58    1.22 
  -7   8  -1    2.77    1.09 
   7  -8   1    3.48    0.69 
   7  -8   1    3.77    1.04 
   7  -8   1    4.41    0.94 
  -8   8  -1    0.35    1.05 
   8  -8   1    0.41    0.85 
   8  -8   1    0.86    0.60 
   8  -8   1    0.63    0.96 
  -9   8  -1   15.31    1.64 
  -9   8  -1   10.21    1.42 
   9  -8   1   12.74    1.36 
   9  -8   1   14.24    1.58 
 -10   8  -1    1.66    1.23 
 -10   8  -1    1.40    1.33 
  10  -8   1    2.09    1.09 
  10  -8   1    0.56    1.19 
 -11   8  -1    1.59    1.56 
  11  -8   1    1.55    1.09 
  11  -8   1    0.50    1.32 
 -12   8  -1   -2.34    1.68 
  12  -8   1    1.23    1.13 
  12  -8   1    3.68    1.54 
  10   7  -1   -0.09    1.69 
  10   7  -1    1.74    1.26 
 -10  -7   1    0.89    1.17 
   9   7  -1    2.03    1.52 
   9   7  -1   -1.65    1.06 
  -9  -7   1   -0.45    1.00 
   8   7  -1    1.05    1.35 
   8   7  -1    0.22    0.98 
  -8  -7   1   -0.77    0.96 
   7   7  -1    2.15    1.24 
   7   7  -1    4.23    0.90 
  -7  -7   1    3.31    0.94 
   6   7  -1   21.64    2.32 
   6   7  -1   19.60    1.49 
  -6  -7   1   19.13    1.50 
   5   7  -1   15.33    2.02 
  -5  -7   1   14.43    0.87 
  -5  -7   1   14.28    1.32 
   4   7  -1    0.00    0.82 
   4   7  -1   -0.68    0.55 
  -4  -7   1    0.21    0.63 
  -4  -7   1   -0.31    0.46 
   3   7  -1   82.16    3.12 
   3   7  -1   84.64    2.58 
  -3  -7   1   85.56    2.69 
  -3  -7   1   81.24    2.50 
  -3  -7   1   86.59    3.11 
   2   7  -1   64.95    2.11 
   2   7  -1   63.81    2.56 
  -2  -7   1   64.30    2.14 
  -2  -7   1   66.67    2.20 
  -2  -7   1   66.05    2.61 
   1   7  -1  123.51    3.73 
  -1  -7   1  121.46    3.47 
  -1  -7   1  116.83    4.09 
  -1  -7   1  120.22    3.40 
   0   7  -1  190.42    5.24 
   0  -7   1  190.18    4.99 
   0  -7   1  192.30    5.25 
   0  -7   1  192.17    4.64 
   0  -7   1  185.92    5.11 
  -1   7  -1  224.88    5.87 
  -1   7  -1  218.36    5.43 
   1  -7   1  222.51    5.41 
   1  -7   1  214.30    5.84 
   1  -7   1  222.52    5.87 
   1  -7   1  216.66    5.65 
  -2   7  -1   98.13    3.03 
  -2   7  -1  100.65    3.05 
   2  -7   1   98.37    3.13 
   2  -7   1  100.49    2.71 
   2  -7   1  100.29    3.05 
  -3   7  -1   69.59    2.26 
  -3   7  -1   69.53    2.88 
   3  -7   1   69.51    2.09 
   3  -7   1   64.90    2.46 
   3  -7   1   67.87    2.28 
  -4   7  -1    1.28    0.41 
  -4   7  -1    1.11    0.53 
  -4   7  -1    0.92    0.67 
   4  -7   1    1.44    0.54 
   4  -7   1    1.35    0.69 
   4  -7   1    0.64    0.51 
  -5   7  -1    0.10    0.34 
  -5   7  -1   -0.33    0.47 
  -5   7  -1   -0.43    0.72 
  -5   7  -1    0.56    0.64 
   5  -7   1    0.11    0.55 
   5  -7   1   -0.43    0.51 
   5  -7   1   -0.80    0.67 
  -6   7  -1    1.91    0.80 
  -6   7  -1    0.84    0.85 
   6  -7   1    0.37    0.63 
   6  -7   1    0.16    0.53 
   6  -7   1    0.47    0.78 
  -7   7  -1   94.95    3.26 
  -7   7  -1   89.46    3.64 
   7  -7   1   87.86    3.03 
   7  -7   1   91.26    3.30 
   7  -7   1   90.97    2.70 
  -8   7  -1   28.43    2.00 
  -8   7  -1   27.28    2.20 
   8  -7   1   26.99    1.77 
   8  -7   1   27.54    2.02 
   8  -7   1   27.34    1.35 
  -9   7  -1   -0.22    1.06 
   9  -7   1   -0.26    0.81 
   9  -7   1    0.22    0.97 
 -10   7  -1   -1.65    1.01 
 -10   7  -1   -0.68    1.25 
  10  -7   1    0.01    0.88 
  10  -7   1   -0.12    1.04 
 -11   7  -1   19.92    2.06 
 -11   7  -1   21.36    2.37 
  11  -7   1   22.14    2.07 
  11  -7   1   26.94    2.46 
 -12   7  -1   58.50    3.70 
  12  -7   1   63.13    3.28 
  12  -7   1   56.23    2.91 
 -13   7  -1   34.71    3.38 
  13  -7   1   34.92    2.80 
  11   6  -1   -1.57    1.69 
  11   6  -1   -0.19    1.39 
 -11  -6   1    0.45    1.22 
  10   6  -1    8.19    1.75 
  10   6  -1    6.98    1.30 
 -10  -6   1    5.03    1.24 
   9   6  -1    1.78    1.06 
   9   6  -1    3.75    1.41 
  -9  -6   1    3.85    1.13 
   8   6  -1    0.86    0.87 
   8   6  -1    1.10    1.21 
  -8  -6   1   -0.40    0.77 
   7   6  -1    5.40    1.28 
   7   6  -1    3.73    0.88 
  -7  -6   1    2.45    0.88 
   6   6  -1    4.66    0.82 
   6   6  -1    3.81    1.19 
  -6  -6   1    3.82    0.82 
   5   6  -1   30.30    2.13 
   5   6  -1   31.74    1.53 
  -5  -6   1   31.65    1.55 
   4   6  -1  103.24    3.55 
   4   6  -1  104.80    3.00 
  -4  -6   1  102.12    2.79 
  -4  -6   1  104.12    3.10 
  -4  -6   1  105.52    3.52 
   3   6  -1  248.94    6.71 
   3   6  -1  245.71    6.24 
  -3  -6   1  247.55    6.68 
  -3  -6   1  241.26    6.16 
  -3  -6   1  252.69    6.34 
   2   6  -1   80.89    2.80 
   2   6  -1   79.85    2.53 
  -2  -6   1   79.62    2.38 
  -2  -6   1   80.53    2.77 
  -2  -6   1   80.04    2.44 
   1   6  -1  194.01    5.24 
  -1  -6   1  190.32    4.95 
  -1  -6   1  195.78    5.26 
  -1  -6   1  188.18    5.00 
   0   6  -1  178.98    4.38 
   0   6  -1  176.64    4.89 
   0  -6   1  180.12    4.67 
   0  -6   1  181.82    4.80 
   0  -6   1  178.47    4.89 
   0  -6   1  186.49    4.39 
  -1   6  -1  128.92    3.32 
  -1   6  -1  132.32    3.67 
   1  -6   1  125.08    3.70 
   1  -6   1  129.56    3.50 
   1  -6   1  132.97    3.30 
   1  -6   1  130.08    3.67 
  -2   6  -1    0.62    0.50 
  -2   6  -1    0.19    0.48 
   2  -6   1    0.45    0.53 
   2  -6   1    0.16    0.36 
   2  -6   1    0.21    0.47 
  -3   6  -1    0.10    0.52 
  -3   6  -1    0.81    0.46 
   3  -6   1    1.12    0.43 
   3  -6   1    1.33    0.58 
   3  -6   1   -0.13    0.44 
  -4   6  -1    5.07    0.77 
  -4   6  -1    6.12    0.57 
  -4   6  -1    6.56    0.85 
   4  -6   1    6.07    0.64 
   4  -6   1    6.47    0.84 
   4  -6   1    6.60    0.85 
  -5   6  -1   15.53    1.39 
  -5   6  -1   16.65    0.98 
  -5   6  -1   17.88    1.33 
   5  -6   1   15.83    1.36 
   5  -6   1   16.32    1.01 
   5  -6   1   16.35    1.14 
  -6   6  -1    0.34    0.76 
  -6   6  -1   -0.19    0.67 
   6  -6   1    0.05    0.63 
   6  -6   1   -0.66    0.55 
   6  -6   1   -0.24    0.43 
  -7   6  -1    5.30    0.95 
  -7   6  -1    4.51    0.96 
   7  -6   1    5.47    0.86 
   7  -6   1    5.13    0.62 
   7  -6   1    5.56    0.95 
  -8   6  -1    1.64    0.88 
  -8   6  -1   -0.35    0.91 
   8  -6   1    0.34    0.83 
   8  -6   1    0.54    0.51 
   8  -6   1   -0.29    0.74 
  -9   6  -1   25.31    1.93 
  -9   6  -1   27.09    2.18 
   9  -6   1   26.63    1.33 
   9  -6   1   26.86    1.79 
 -10   6  -1   60.97    3.02 
  10  -6   1   58.71    2.59 
  10  -6   1   61.71    2.82 
 -11   6  -1  105.90    4.21 
  11  -6   1  109.31    3.91 
  11  -6   1  102.04    3.69 
 -12   6  -1   85.86    4.04 
  12  -6   1   86.94    3.62 
  12  -6   1   83.75    3.43 
 -13   6  -1   47.17    3.67 
  13  -6   1   40.42    2.62 
  11   5  -1    2.09    1.28 
  11   5  -1    3.74    1.62 
  11   5  -1    5.56    1.13 
  10   5  -1   -0.91    1.11 
  10   5  -1    0.24    1.35 
 -10  -5   1    0.02    0.84 
   9   5  -1   -0.73    0.90 
   9   5  -1    0.08    0.66 
   9   5  -1    0.06    1.22 
  -9  -5   1   -0.06    0.71 
   8   5  -1   48.43    2.74 
   8   5  -1   42.09    2.10 
   8   5  -1   43.96    1.58 
   7   5  -1   17.84    2.01 
   7   5  -1   18.08    1.00 
   6   5  -1  110.48    3.84 
   6   5  -1  115.11    3.34 
   5   5  -1  145.69    3.94 
   5   5  -1  141.09    4.40 
  -5  -5   1  144.76    3.99 
   4   5  -1  155.96    4.53 
  -4  -5   1  147.74    3.82 
  -4  -5   1  153.64    4.11 
  -4  -5   1  153.01    4.58 
   3   5  -1  137.80    4.09 
   3   5  -1  138.80    3.66 
  -3  -5   1  137.91    3.72 
  -3  -5   1  141.19    4.06 
  -3  -5   1  135.23    3.55 
   2   5  -1   86.18    2.43 
   2   5  -1   89.73    2.82 
  -2  -5   1   81.90    2.41 
  -2  -5   1   86.47    2.48 
  -2  -5   1   86.49    2.77 
   1   5  -1   42.26    1.72 
  -1  -5   1   42.09    1.45 
  -1  -5   1   40.02    1.47 
   0   5  -1   26.48    1.34 
   0  -5   1   25.46    1.33 
   0  -5   1   27.38    1.10 
   0  -5   1   25.86    1.19 
   0  -5   1   25.46    0.82 
  -1   5  -1    6.71    0.91 
  -1   5  -1    6.87    0.59 
   1  -5   1    6.59    0.88 
   1  -5   1    6.08    0.55 
   1  -5   1    6.02    0.58 
   1  -5   1    5.18    0.62 
  -2   5  -1   31.36    1.32 
  -2   5  -1   31.27    1.35 
   2  -5   1   31.00    1.43 
   2  -5   1   33.04    1.13 
   2  -5   1   30.78    1.32 
  -3   5  -1   43.71    1.91 
  -3   5  -1   42.32    1.50 
   3  -5   1   42.26    1.70 
   3  -5   1   43.21    1.47 
   3  -5   1   43.74    1.51 
  -4   5  -1    4.44    0.70 
  -4   5  -1    3.97    0.44 
  -4   5  -1    4.13    0.48 
   4  -5   1    5.02    0.58 
   4  -5   1    5.47    0.74 
   4  -5   1    3.48    0.66 
  -5   5  -1    1.34    0.61 
  -5   5  -1    0.44    0.62 
   5  -5   1    1.63    0.42 
   5  -5   1    0.70    0.52 
   5  -5   1    1.15    0.61 
  -6   5  -1   41.44    2.67 
  -6   5  -1   52.76    2.17 
   6  -5   1   53.40    2.08 
   6  -5   1   52.84    1.64 
   6  -5   1   51.48    1.92 
  -7   5  -1   95.42    3.22 
  -7   5  -1   96.03    3.17 
   7  -5   1   99.57    2.70 
   7  -5   1   98.46    3.20 
   7  -5   1   94.99    3.09 
  -8   5  -1   65.51    2.55 
  -8   5  -1   62.35    2.65 
   8  -5   1   68.28    2.04 
   8  -5   1   63.58    2.57 
   8  -5   1   64.42    2.46 
  -9   5  -1  177.97    5.18 
  -9   5  -1  179.11    6.95 
   9  -5   1  181.70    4.65 
   9  -5   1  173.01    5.09 
   9  -5   1  182.66    5.25 
 -10   5  -1  129.94    4.07 
 -10   5  -1  123.39    4.31 
  10  -5   1  129.51    4.27 
  10  -5   1  124.22    4.00 
  10  -5   1  122.47    3.48 
 -11   5  -1   60.69    2.76 
 -11   5  -1   60.31    3.11 
  11  -5   1   50.44    2.05 
  11  -5   1   61.81    2.64 
  11  -5   1   64.67    2.79 
 -12   5  -1   25.44    2.74 
  12  -5   1   18.51    1.92 
  12  -5   1   16.76    1.46 
  12  -5   1   20.85    2.18 
  12  -5   1   20.93    1.44 
 -13   5  -1    2.65    1.69 
  13  -5   1    3.84    1.18 
  12   4  -1   -3.59    1.58 
  12   4  -1   -0.92    1.35 
  12   4  -1   -0.76    0.92 
 -12  -4   1    2.38    1.28 
  11   4  -1    6.76    1.59 
  11   4  -1    7.08    1.01 
  11   4  -1    6.22    1.38 
 -11  -4   1    4.53    1.06 
 -11  -4   1    7.32    1.27 
  10   4  -1   18.80    2.44 
  10   4  -1   17.80    1.47 
  10   4  -1   19.52    1.99 
 -10  -4   1   20.00    1.86 
 -10  -4   1   13.58    1.93 
   9   4  -1   72.11    2.81 
   9   4  -1   76.46    3.32 
  -9  -4   1   72.58    2.71 
  -9  -4   1   73.65    2.51 
   8   4  -1  208.96    8.00 
   8   4  -1  215.70    5.87 
   8   4  -1  220.74    5.51 
  -8  -4   1  221.33    5.78 
  -8  -4   1  211.13    5.58 
   7   4  -1  121.49    3.23 
   7   4  -1  122.73    3.60 
   7   4  -1  124.36    4.08 
  -7  -4   1  113.80    3.30 
  -7  -4   1  123.89    3.52 
   6   4  -1  174.67    4.67 
   6   4  -1  173.55    5.10 
   6   4  -1  176.41    4.34 
  -6  -4   1  181.16    4.62 
  -6  -4   1  161.57    4.38 
   5   4  -1  160.12    4.95 
   5   4  -1  161.55    4.66 
   5   4  -1  156.50    3.91 
  -5  -4   1  164.54    4.19 
  -5  -4   1  151.71    3.95 
   4   4  -1   88.40    2.93 
   4   4  -1   92.22    2.55 
  -4  -4   1   87.88    2.89 
  -4  -4   1   85.65    2.30 
   3   4  -1   16.10    1.26 
   3   4  -1   16.01    0.93 
  -3  -4   1   16.85    1.24 
  -3  -4   1   15.32    0.76 
  -3  -4   1   16.27    0.91 
   2   4  -1    0.01    0.35 
   2   4  -1   -0.10    0.52 
  -2  -4   1   -0.03    0.35 
  -2  -4   1   -0.41    0.44 
  -2  -4   1    0.09    0.39 
   1   4  -1   11.58    1.03 
  -1  -4   1   12.18    0.77 
  -1  -4   1   12.02    0.99 
  -1  -4   1   11.40    0.77 
   0   4  -1    0.42    0.20 
   0   4  -1    0.43    0.43 
   0  -4   1    0.32    0.41 
   0  -4   1    0.31    0.20 
   0  -4   1    0.53    0.34 
   0  -4   1    0.47    0.38 
  -1   4  -1    0.80    0.37 
  -1   4  -1    0.23    0.38 
   1  -4   1    0.32    0.39 
   1  -4   1    0.36    0.34 
   1  -4   1    0.67    0.41 
   1  -4   1    0.48    0.28 
  -2   4  -1   20.87    0.98 
  -2   4  -1   20.18    1.02 
   2  -4   1   21.14    0.87 
   2  -4   1   20.61    0.97 
   2  -4   1   20.43    1.08 
  -3   4  -1    6.41    0.86 
  -3   4  -1    6.52    0.71 
   3  -4   1    6.60    0.71 
   3  -4   1    7.03    0.72 
   3  -4   1    7.23    0.90 
  -4   4  -1   62.28    2.12 
  -4   4  -1   64.20    1.83 
   4  -4   1   61.37    2.11 
   4  -4   1   64.81    1.86 
   4  -4   1   65.45    1.99 
  -5   4  -1  206.37    5.51 
  -5   4  -1  205.08    5.56 
   5  -4   1  205.42    5.51 
   5  -4   1  214.85    5.40 
   5  -4   1  213.60    5.18 
  -6   4  -1  263.00    6.87 
  -6   4  -1  260.61    6.85 
   6  -4   1  268.65    6.49 
   6  -4   1  267.00    6.77 
   6  -4   1  262.95    6.86 
  -7   4  -1  145.95    4.18 
  -7   4  -1  139.79    4.11 
   7  -4   1  142.78    4.05 
   7  -4   1  143.92    3.71 
   7  -4   1  142.31    4.13 
  -8   4  -1  153.23    4.54 
  -8   4  -1  154.51    4.47 
   8  -4   1  150.68    4.47 
   8  -4   1  158.92    4.42 
   8  -4   1  154.64    4.02 
  -9   4  -1  120.32    3.88 
  -9   4  -1  113.86    3.64 
   9  -4   1  114.64    3.20 
   9  -4   1  115.65    3.69 
   9  -4   1  116.78    3.64 
 -10   4  -1   25.11    2.16 
 -10   4  -1   25.06    1.77 
  10  -4   1   18.90    1.27 
  10  -4   1   22.57    1.74 
  10  -4   1   20.44    1.67 
 -11   4  -1    2.18    1.27 
 -11   4  -1    3.07    1.03 
  11  -4   1    4.36    1.06 
  11  -4   1    2.24    0.70 
  11  -4   1    4.94    0.74 
  11  -4   1    2.51    0.89 
 -12   4  -1    1.15    1.35 
  12  -4   1   -0.81    0.83 
  12  -4   1    0.35    0.74 
 -13   4  -1    1.36    1.57 
  13  -4   1    4.29    1.16 
  13  -4   1    3.34    0.90 
  13  -4   1    4.06    0.90 
 -14   4  -1    8.08    1.96 
  14  -4   1    4.05    1.31 
  12   3  -1   18.75    2.07 
  12   3  -1   23.14    2.70 
  12   3  -1   25.47    1.90 
 -12  -3   1   23.07    2.12 
 -12  -3   1   23.69    2.37 
  11   3  -1   41.77    2.97 
  11   3  -1   43.15    2.03 
  11   3  -1   35.90    2.51 
 -11  -3   1   39.05    2.39 
 -11  -3   1   43.61    2.27 
  10   3  -1   68.19    2.84 
  10   3  -1   69.23    2.74 
  10   3  -1   72.14    3.23 
 -10  -3   1   65.88    2.57 
 -10  -3   1   66.05    2.70 
   9   3  -1  125.87    3.93 
   9   3  -1  125.58    3.60 
   9   3  -1  127.74    4.90 
  -9  -3   1  126.69    3.72 
  -9  -3   1  127.16    3.85 
   8   3  -1  121.94    4.14 
   8   3  -1  128.24    4.22 
   8   3  -1  129.51    3.55 
  -8  -3   1  127.61    3.76 
  -8  -3   1  131.57    3.63 
   7   3  -1  112.72    3.38 
   7   3  -1  112.17    3.09 
   7   3  -1  111.43    3.73 
  -7  -3   1  113.96    3.31 
   6   3  -1   53.77    2.26 
   6   3  -1   52.23    1.64 
   6   3  -1   50.55    1.89 
  -6  -3   1   52.35    1.86 
   5   3  -1    0.36    0.37 
   5   3  -1    0.56    0.47 
   5   3  -1    0.70    0.61 
  -5  -3   1    0.93    0.47 
   4   3  -1    2.04    0.32 
   4   3  -1    1.41    0.44 
   4   3  -1    1.48    0.60 
  -4  -3   1    1.91    0.44 
  -4  -3   1    1.34    0.64 
   3   3  -1   34.98    1.24 
   3   3  -1   32.92    1.54 
  -3  -3   1   32.05    1.50 
   2   3  -1   31.83    1.39 
   2   3  -1   32.41    1.11 
  -2  -3   1   32.87    1.11 
  -2  -3   1   30.82    1.35 
   1   3  -1    8.19    0.82 
  -1  -3   1    7.89    0.57 
  -1  -3   1    7.60    0.79 
  -1  -3   1    7.99    0.60 
   0   3  -1    0.04    0.17 
   0   3  -1    0.25    0.35 
   0  -3   1    0.20    0.29 
   0  -3   1   -0.06    0.32 
   0  -3   1    0.24    0.35 
  -1   3  -1   59.73    1.73 
  -1   3  -1   57.78    1.75 
   1  -3   1   62.26    1.58 
   1  -3   1   57.46    1.73 
   1  -3   1   56.95    1.74 
   1  -3   1   60.19    1.65 
  -2   3  -1   84.67    2.29 
  -2   3  -1   85.11    2.39 
   2  -3   1   85.21    2.40 
   2  -3   1   87.19    2.30 
   2  -3   1   85.82    2.26 
  -3   3  -1  199.36    4.89 
  -3   3  -1  195.40    5.08 
   3  -3   1  201.47    4.91 
   3  -3   1  198.61    5.08 
   3  -3   1  202.71    4.97 
  -4   3  -1  257.61    6.63 
  -4   3  -1  261.81    6.63 
   4  -3   1  259.98    6.62 
   4  -3   1  271.78    6.54 
   4  -3   1  265.69    6.39 
  -5   3  -1  326.91    8.24 
  -5   3  -1  322.79    8.23 
   5  -3   1  325.67    8.23 
   5  -3   1  333.25    7.95 
   5  -3   1  341.43    8.17 
  -6   3  -1  167.20    4.59 
  -6   3  -1  177.67    5.27 
   6  -3   1  169.10    4.26 
   6  -3   1  166.51    4.56 
   6  -3   1  166.68    4.53 
  -7   3  -1   72.83    2.46 
  -7   3  -1   68.08    2.33 
   7  -3   1   70.30    2.03 
   7  -3   1   71.72    2.34 
   7  -3   1   67.16    2.36 
  -8   3  -1   44.38    1.88 
  -8   3  -1   45.58    2.08 
   8  -3   1   45.17    1.90 
   8  -3   1   44.02    1.86 
  -9   3  -1    1.70    0.89 
   9  -3   1    0.70    0.70 
   9  -3   1    1.18    0.73 
 -10   3  -1    3.81    1.12 
 -10   3  -1    5.30    0.94 
  10  -3   1    4.74    0.91 
  10  -3   1    5.14    0.91 
 -11   3  -1   16.64    1.64 
 -11   3  -1   18.51    2.16 
  11  -3   1   17.80    1.64 
  11  -3   1   17.05    1.49 
 -12   3  -1    9.12    1.30 
 -12   3  -1    7.85    1.46 
  12  -3   1    7.69    1.15 
  12  -3   1    9.79    1.06 
 -13   3  -1   -2.12    1.46 
  13  -3   1    1.05    0.97 
  13  -3   1   -0.01    0.94 
 -14   3  -1   -2.79    1.72 
  14  -3   1   -0.46    1.04 
  13   2  -1   22.45    2.29 
  13   2  -1   24.04    2.46 
  13   2  -1   28.24    2.16 
 -13  -2   1   18.15    2.51 
 -13  -2   1   27.58    2.77 
  12   2  -1   58.58    3.21 
  12   2  -1   62.10    2.61 
  12   2  -1   60.26    3.43 
 -12  -2   1   61.62    2.99 
  11   2  -1   74.52    3.18 
  11   2  -1   75.51    2.79 
  11   2  -1   77.89    3.44 
 -11  -2   1   78.72    3.09 
 -11  -2   1   75.97    2.95 
  10   2  -1   52.20    2.05 
  10   2  -1   46.48    3.14 
  10   2  -1   45.50    2.37 
 -10  -2   1   48.57    2.35 
 -10  -2   1   47.82    2.21 
   9   2  -1   33.83    1.96 
   9   2  -1   37.83    2.29 
   9   2  -1   37.60    1.75 
  -9  -2   1   37.42    1.99 
   8   2  -1   12.06    1.23 
   8   2  -1   11.60    1.31 
  -8  -2   1   10.75    1.39 
   7   2  -1    0.20    0.69 
   7   2  -1    0.97    0.52 
   7   2  -1    0.31    0.59 
  -7  -2   1    0.55    0.63 
   6   2  -1    2.75    0.50 
   6   2  -1    2.32    0.69 
  -6  -2   1    2.87    0.61 
  -6  -2   1    2.83    0.33 
   5   2  -1    5.07    0.59 
   5   2  -1    4.54    0.70 
   5   2  -1    5.41    0.50 
  -5  -2   1    5.57    0.45 
  -5  -2   1    5.08    0.60 
   4   2  -1   10.31    0.66 
   4   2  -1   12.08    0.87 
   4   2  -1   11.69    1.08 
  -4  -2   1   11.42    1.04 
  -4  -2   1   10.47    0.84 
   3   2  -1    9.67    0.71 
   3   2  -1    8.85    0.50 
   3   2  -1    9.45    0.92 
  -3  -2   1    9.30    0.90 
  -3  -2   1    8.90    0.68 
   2   2  -1    5.67    0.78 
   2   2  -1    4.41    0.53 
  -2  -2   1    3.60    0.48 
  -2  -2   1    4.39    0.51 
   1   2  -1   19.16    0.77 
  -1  -2   1   20.35    0.96 
  -1  -2   1   19.97    0.74 
   0   2  -1   40.98    1.09 
   0  -2   1   40.86    1.35 
   0  -2   1   43.17    1.19 
  -1   2  -1  612.38   14.65 
  -1   2  -1  621.08   14.59 
   1  -2   1  619.41   14.66 
   1  -2   1  629.02   14.70 
  -2   2  -1  464.91   10.83 
  -2   2  -1  456.61   10.92 
   2  -2   1  449.23   10.82 
  -3   2  -1  194.02    4.87 
   3  -2   1  193.72    4.70 
   3  -2   1  193.21    4.86 
  -4   2  -1   21.89    1.10 
  -4   2  -1   22.60    1.04 
   4  -2   1   23.63    1.04 
   4  -2   1   22.65    0.84 
  -5   2  -1   37.37    1.50 
  -5   2  -1   35.64    1.42 
   5  -2   1   37.43    1.44 
   5  -2   1   38.32    1.42 
  -6   2  -1   28.68    1.39 
  -6   2  -1   27.52    1.28 
   6  -2   1   27.37    1.29 
   6  -2   1   29.46    1.31 
  -7   2  -1    9.24    1.15 
  -7   2  -1    8.45    0.93 
   7  -2   1    7.99    0.96 
   7  -2   1    8.43    0.98 
  -8   2  -1   21.18    1.56 
  -8   2  -1   23.95    1.30 
   8  -2   1   22.58    1.56 
   8  -2   1   21.97    1.30 
  -9   2  -1   20.73    1.36 
  -9   2  -1   21.05    1.74 
   9  -2   1   20.62    1.47 
   9  -2   1   21.93    1.38 
 -10   2  -1    9.45    1.29 
 -10   2  -1    9.02    1.24 
  10  -2   1   11.71    1.34 
  10  -2   1    9.65    1.04 
  10  -2   1   12.00    1.34 
 -11   2  -1   -0.06    1.22 
  11  -2   1   -0.97    0.73 
  11  -2   1    0.07    0.82 
  11  -2   1   -0.17    0.55 
 -12   2  -1    1.70    1.13 
 -12   2  -1    0.09    1.19 
  12  -2   1    2.06    0.71 
  12  -2   1    1.99    0.93 
  12  -2   1    1.50    0.92 
 -13   2  -1    5.25    1.55 
  13  -2   1    7.81    1.22 
  13  -2   1    9.23    1.45 
  13  -2   1    5.41    1.15 
 -14   2  -1   32.72    3.24 
  14  -2   1   33.22    2.36 
  14  -2   1   30.69    2.53 
  13   1  -1   77.38    3.83 
  13   1  -1   81.95    3.13 
  13   1  -1   77.24    4.40 
 -13  -1   1   63.30    3.33 
 -13  -1   1   77.85    3.63 
  12   1  -1   35.12    2.76 
  12   1  -1   37.95    2.19 
  12   1  -1   35.95    2.82 
 -12  -1   1   38.49    2.61 
  11   1  -1    4.90    1.40 
  11   1  -1    6.20    0.99 
  11   1  -1    6.11    1.26 
 -11  -1   1    5.06    1.07 
 -11  -1   1    5.12    1.19 
  10   1  -1    8.77    1.02 
  10   1  -1   11.77    1.22 
  10   1  -1    9.01    1.25 
 -10  -1   1    8.63    0.85 
 -10  -1   1   10.32    1.19 
   9   1  -1    0.23    0.79 
   9   1  -1    0.47    0.68 
   9   1  -1    0.90    0.82 
  -9  -1   1    0.16    0.82 
  -9  -1   1    0.24    0.44 
   8   1  -1    2.47    0.84 
   8   1  -1    1.76    0.66 
  -8  -1   1    2.10    0.45 
  -8  -1   1    2.34    0.80 
   7   1  -1   14.25    1.23 
   7   1  -1   14.78    1.04 
   7   1  -1   15.12    1.39 
  -7  -1   1   15.68    0.82 
  -7  -1   1   15.70    1.32 
   6   1  -1    1.57    0.47 
   6   1  -1    1.23    0.59 
  -6  -1   1    2.17    0.37 
  -6  -1   1    1.77    0.60 
   5   1  -1    3.01    0.59 
   5   1  -1    3.07    0.53 
   5   1  -1    3.55    0.48 
  -5  -1   1    3.50    0.57 
  -5  -1   1    3.30    0.37 
   4   1  -1   90.20    2.66 
   4   1  -1   92.35    2.41 
   4   1  -1   90.18    2.55 
  -4  -1   1   90.93    2.54 
   3   1  -1  356.80    8.61 
   3   1  -1  359.35    8.71 
   3   1  -1  370.54    8.50 
  -3  -1   1  349.69    8.69 
  -3  -1   1  349.67    8.59 
   2   1  -1  388.67    9.45 
   2   1  -1  406.92    9.25 
   2   1  -1  390.09    9.35 
  -2  -1   1  381.57    9.43 
  -2  -1   1  394.49    9.35 
   1   1  -1  451.28   10.58 
   1   1  -1  441.68   10.49 
  -1  -1   1  435.40   10.42 
  -1  -1   1  451.47   10.58 
  -1  -1   1  439.74   10.48 
   0   1  -1  755.95   16.62 
   0   1  -1  641.60   16.68 
   0   1  -1  727.43   16.59 
   0  -1   1  712.99   16.78 
  -1   1  -1  403.75    8.74 
  -1   1  -1  345.27    8.74 
   1  -1   1  360.27    8.82 
  -2   1  -1  304.75    7.12 
   2  -1   1  288.12    7.05 
   2  -1   1  296.67    7.12 
  -3   1  -1   32.17    1.09 
  -3   1  -1   30.23    1.14 
   3  -1   1   31.90    1.07 
  -4   1  -1    5.79    0.70 
  -4   1  -1    6.01    0.62 
   4  -1   1    6.79    0.62 
  -5   1  -1    0.49    0.46 
  -5   1  -1   -0.05    0.38 
   5  -1   1    0.13    0.41 
   5  -1   1   -0.07    0.38 
  -6   1  -1  144.23    3.91 
  -6   1  -1  140.17    3.79 
   6  -1   1  144.22    3.82 
   6  -1   1  138.34    3.92 
   6  -1   1  153.83    3.88 
  -7   1  -1   55.66    1.85 
  -7   1  -1   56.26    2.05 
   7  -1   1   55.05    1.86 
   7  -1   1   56.26    2.11 
   7  -1   1   57.02    1.93 
  -8   1  -1   17.05    1.08 
  -8   1  -1   17.47    1.42 
   8  -1   1   17.94    1.36 
   8  -1   1   18.64    1.23 
   8  -1   1   18.83    1.13 
  -9   1  -1    0.82    0.77 
   9  -1   1    0.06    0.64 
   9  -1   1    0.39    0.57 
   9  -1   1    0.58    0.78 
 -10   1  -1    0.81    0.84 
 -10   1  -1    0.25    0.92 
  10  -1   1   -0.14    0.69 
  10  -1   1   -0.07    0.72 
  10  -1   1    1.65    0.82 
 -11   1  -1   39.48    2.82 
 -11   1  -1   39.09    2.35 
  11  -1   1   40.42    2.07 
  11  -1   1   39.62    2.13 
 -12   1  -1   43.36    2.63 
  12  -1   1   38.85    2.13 
  12  -1   1   37.05    2.33 
 -13   1  -1   36.17    2.78 
  13  -1   1   37.15    2.21 
  13  -1   1   39.44    2.62 
 -14   1  -1   64.26    3.64 
  14  -1   1   63.40    2.97 
  14  -1   1   64.52    3.27 
  13   0  -1    8.85    1.31 
  13   0  -1    7.87    1.59 
 -13   0   1   10.51    1.68 
  12   0  -1   -0.42    1.35 
  12   0  -1    1.50    0.96 
  12   0  -1    3.33    1.33 
 -12   0   1    4.24    1.20 
 -12   0   1    0.97    1.27 
  11   0  -1   12.97    1.57 
  11   0  -1   11.32    1.39 
  11   0  -1   15.26    2.02 
 -11   0   1   11.64    1.39 
 -11   0   1   10.45    1.18 
  10   0  -1    7.64    1.00 
  10   0  -1    7.80    1.13 
  10   0  -1    7.17    1.15 
 -10   0   1    7.89    1.13 
 -10   0   1    8.90    1.06 
   9   0  -1   25.68    1.79 
   9   0  -1   25.05    1.53 
   9   0  -1   25.07    1.79 
  -9   0   1   26.72    1.87 
  -9   0   1   24.87    1.25 
   8   0  -1   20.57    1.50 
   8   0  -1   18.54    1.29 
  -8   0   1   20.00    1.56 
  -8   0   1   18.28    1.06 
   7   0  -1   19.18    1.32 
   7   0  -1   17.74    1.30 
  -7   0   1   20.58    1.00 
  -7   0   1   21.21    1.38 
   6   0  -1    3.61    0.57 
   6   0  -1    3.89    0.61 
  -6   0   1    3.90    0.49 
  -6   0   1    2.94    0.65 
   5   0  -1  122.35    3.40 
   5   0  -1  120.90    3.37 
   5   0  -1  128.49    3.27 
  -5   0   1  122.48    3.39 
  -5   0   1  120.36    3.19 
   4   0  -1  311.29    7.68 
   4   0  -1  327.89    7.58 
   4   0  -1  309.18    7.66 
  -4   0   1  309.21    7.66 
  -4   0   1  305.49    7.52 
   3   0  -1  113.41    2.98 
   3   0  -1  112.13    2.96 
   3   0  -1  114.74    2.87 
  -3   0   1  112.74    2.97 
   2   0  -1   35.11    1.16 
   2   0  -1   36.67    1.05 
   2   0  -1   35.71    1.19 
  -2   0   1   35.60    1.19 
  -2   0   1   33.79    1.13 
   1   0  -1  356.75    8.36 
   1   0  -1  336.19    8.42 
  -1   0   1  356.69    8.32 
  -1   0   1  354.27    8.33 
  -2   0  -1    0.36    0.25 
  -2   0  -1    0.01    0.24 
   2   0   1   -0.03    0.18 
   2   0   1    0.14    0.25 
  -3   0  -1  221.02    5.22 
  -3   0  -1  214.57    5.26 
   3   0   1  216.92    5.22 
   3   0   1  213.65    5.28 
  -4   0  -1   70.52    1.97 
  -4   0  -1   69.49    1.88 
   4   0   1   68.18    1.87 
   4   0   1   69.62    1.96 
  -5   0  -1   19.87    1.03 
  -5   0  -1   18.13    0.85 
   5   0   1   20.36    1.00 
   5   0   1   19.04    0.86 
  -6   0  -1  154.63    3.99 
  -6   0  -1  145.87    3.82 
   6   0   1  146.32    3.83 
   6   0   1  150.45    3.99 
  -7   0  -1    5.32    0.71 
  -7   0  -1    5.21    0.68 
   7   0   1    5.22    0.66 
   7   0   1    5.32    0.70 
  -8   0  -1    6.52    0.78 
  -8   0  -1    5.68    0.81 
   8   0   1    5.33    0.72 
   8   0   1    5.43    0.77 
  -9   0  -1   32.39    1.76 
  -9   0  -1   32.19    1.80 
   9   0   1   32.55    1.73 
   9   0   1   29.22    1.83 
   9   0   1   29.91    1.79 
 -10   0  -1   59.45    2.48 
 -10   0  -1   60.58    2.48 
  10   0   1   58.73    2.30 
  10   0   1   56.50    2.48 
  10   0   1   58.03    2.46 
 -11   0  -1  119.98    3.86 
 -11   0  -1  118.71    3.88 
  11   0   1  122.71    3.92 
  11   0   1  114.80    3.68 
  11   0   1  110.91    3.88 
 -12   0  -1   79.47    3.21 
  12   0   1   78.52    3.22 
  12   0   1   73.69    3.20 
  12   0   1   76.11    2.92 
 -13   0  -1   41.48    2.76 
 -13   0  -1   40.85    2.62 
  13   0   1   37.49    2.20 
  13   0   1   41.79    2.80 
  13   0   1   35.92    2.18 
 -14   0  -1   25.71    2.85 
  14   0   1   21.30    2.90 
  14   0   1   22.68    2.12 
  13  -1  -1    3.79    1.33 
  13  -1  -1    5.25    1.16 
 -13   1   1    2.08    1.51 
  12  -1  -1    6.08    1.46 
  12  -1  -1    4.18    1.21 
  12  -1  -1    4.51    1.11 
 -12   1   1    4.38    1.31 
 -12   1   1    6.25    0.98 
  11  -1  -1    4.85    1.19 
  11  -1  -1    5.41    1.00 
  11  -1  -1    3.07    0.97 
 -11   1   1    4.43    0.83 
 -11   1   1    4.28    1.22 
  10  -1  -1    2.53    0.88 
  10  -1  -1    3.21    1.03 
  10  -1  -1    2.70    0.84 
 -10   1   1    3.66    1.14 
 -10   1   1    2.63    0.71 
   9  -1  -1    8.18    1.06 
   9  -1  -1    7.53    0.95 
   9  -1  -1    6.97    0.91 
  -9   1   1    8.02    1.13 
   8  -1  -1   29.26    1.54 
   8  -1  -1   30.80    1.72 
   8  -1  -1   27.79    1.48 
  -8   1   1   27.83    1.35 
  -8   1   1   28.07    1.74 
   7  -1  -1   55.56    1.97 
   7  -1  -1   58.13    1.99 
   7  -1  -1   55.49    2.13 
  -7   1   1   58.36    2.18 
  -7   1   1   55.96    1.87 
   6  -1  -1  240.01    6.06 
   6  -1  -1  238.94    6.05 
   6  -1  -1  234.01    6.23 
  -6   1   1  246.05    6.19 
  -6   1   1  237.79    6.00 
   5  -1  -1  475.08   11.60 
   5  -1  -1  480.05   11.74 
   5  -1  -1  494.25   11.64 
  -5   1   1  488.59   11.74 
  -5   1   1  475.54   11.60 
   4  -1  -1  207.97    5.01 
   4  -1  -1  197.43    4.96 
   4  -1  -1  204.32    5.12 
  -4   1   1  196.88    5.10 
  -4   1   1  196.10    5.00 
   3  -1  -1  202.04    5.18 
   3  -1  -1  213.85    5.09 
   3  -1  -1  209.70    5.04 
  -3   1   1  204.82    5.11 
  -3   1   1  207.61    5.18 
   2  -1  -1  247.60    5.55 
   2  -1  -1  229.46    5.62 
   2  -1  -1  214.23    5.53 
  -2   1   1  226.03    5.57 
  -2   1   1  231.95    5.62 
  -1   1   1    1.22    0.29 
  -2  -1  -1    8.78    0.53 
  -2  -1  -1    9.49    0.47 
   2   1   1    8.49    0.50 
   2   1   1    8.60    0.44 
  -3  -1  -1    4.52    0.55 
  -3  -1  -1    5.80    0.55 
   3   1   1    5.24    0.51 
   3   1   1    4.24    0.34 
  -4  -1  -1   45.85    1.40 
  -4  -1  -1   45.44    1.43 
   4   1   1   44.70    1.27 
   4   1   1   47.51    1.40 
  -5  -1  -1    9.28    0.81 
  -5  -1  -1    7.19    0.80 
   5   1   1    8.45    0.75 
   5   1   1    7.53    0.54 
  -6  -1  -1   56.67    1.88 
  -6  -1  -1   56.58    1.86 
   6   1   1   57.46    1.84 
  -7  -1  -1  204.28    5.26 
  -7  -1  -1  203.08    5.34 
   7   1   1  209.41    5.23 
   7   1   1  196.88    5.26 
   7   1   1  200.95    5.43 
  -8  -1  -1  195.75    5.19 
  -8  -1  -1  196.83    5.14 
   8   1   1  191.38    5.14 
   8   1   1  192.71    5.09 
   8   1   1  190.94    5.31 
  -9  -1  -1  215.58    5.72 
  -9  -1  -1  213.67    5.66 
   9   1   1  209.63    5.69 
   9   1   1  213.47    5.89 
   9   1   1  206.97    5.64 
 -10  -1  -1  150.66    4.41 
 -10  -1  -1  150.18    4.37 
  10   1   1  148.20    4.28 
  10   1   1  147.09    4.39 
  10   1   1  148.70    4.55 
 -11  -1  -1   56.30    2.62 
 -11  -1  -1   63.16    2.60 
  11   1   1   61.32    2.80 
  11   1   1   56.19    2.37 
  11   1   1   58.79    2.69 
 -12  -1  -1   35.51    2.80 
  12   1   1   34.87    2.03 
  12   1   1   38.38    2.48 
  12   1   1   32.70    2.87 
 -13  -1  -1   11.58    1.50 
 -13  -1  -1   10.62    1.53 
  13   1   1   14.00    1.63 
  13   1   1   13.94    1.71 
  13   1   1   14.88    1.74 
 -14  -1  -1    1.69    1.46 
  14   1   1    1.43    1.04 
  14   1   1   -1.32    1.55 
  13  -2  -1    0.95    1.09 
  13  -2  -1    0.39    1.02 
 -13   2   1   -0.98    1.55 
  12  -2  -1   -0.64    0.99 
  12  -2  -1    0.35    0.91 
  12  -2  -1   -0.20    1.28 
 -12   2   1    0.68    0.96 
 -12   2   1    0.72    1.31 
  11  -2  -1   23.57    2.31 
  11  -2  -1   25.14    1.84 
  11  -2  -1   26.69    1.89 
 -11   2   1   25.53    1.72 
 -11   2   1   24.82    2.36 
  10  -2  -1   72.23    3.06 
  10  -2  -1   72.43    2.75 
  10  -2  -1   76.75    2.64 
 -10   2   1   74.40    2.58 
   9  -2  -1  132.89    4.17 
   9  -2  -1  133.14    4.00 
   9  -2  -1  136.24    3.85 
  -9   2   1  136.20    3.87 
  -9   2   1  136.74    4.21 
   8  -2  -1  251.43    6.72 
   8  -2  -1  248.42    6.39 
  -8   2   1  251.03    6.47 
  -8   2   1  253.35    6.72 
   7  -2  -1  370.62    9.03 
   7  -2  -1  368.39    9.31 
   7  -2  -1  366.99    9.17 
  -7   2   1  369.85    9.30 
  -7   2   1  366.28    9.15 
   6  -2  -1  377.64    9.48 
   6  -2  -1  377.02    9.21 
  -6   2   1  391.06    9.50 
  -6   2   1  375.78    9.35 
   5  -2  -1  256.95    6.61 
   5  -2  -1  266.01    6.51 
   5  -2  -1  255.64    6.34 
  -5   2   1  261.37    6.52 
  -5   2   1  261.56    6.62 
   4  -2  -1  113.44    3.06 
   4  -2  -1  111.10    2.83 
   4  -2  -1  116.11    3.02 
   4  -2  -1  112.55    3.11 
  -4   2   1  112.68    3.04 
  -4   2   1  109.20    3.12 
   3  -2  -1  145.45    3.54 
   3  -2  -1  136.95    3.59 
   3  -2  -1  136.04    3.61 
  -3   2   1  136.28    3.58 
  -3   2   1  138.45    3.62 
   2  -2  -1    0.75    0.31 
   2  -2  -1    0.76    0.35 
   2  -2  -1    1.10    0.27 
   2  -2  -1    0.95    0.37 
  -2   2   1    1.03    0.38 
  -2   2   1    0.57    0.36 
   1  -2  -1    8.78    0.66 
   1  -2  -1    9.03    0.63 
   1  -2  -1    7.84    0.57 
   1  -2  -1    9.15    0.52 
  -1   2   1    8.71    0.63 
  -1   2   1    7.96    0.46 
  -1   2   1   11.15    0.66 
   0  -2  -1   31.42    0.93 
   0  -2  -1   32.26    1.01 
   0  -2  -1   35.28    0.93 
   0  -2  -1   31.83    0.98 
   0   2   1   34.83    0.97 
   0   2   1   35.51    1.00 
   0   2   1   32.03    0.96 
  -1  -2  -1   37.02    0.99 
  -1  -2  -1   32.22    0.94 
   1   2   1   32.58    0.93 
   1   2   1   30.90    0.92 
  -2  -2  -1    5.03    0.41 
  -2  -2  -1    3.12    0.39 
   2   2   1    4.39    0.39 
   2   2   1    4.74    0.43 
  -3  -2  -1  144.53    3.59 
  -3  -2  -1  149.16    3.56 
   3   2   1  144.19    3.56 
  -4  -2  -1  308.87    7.25 
  -4  -2  -1  299.37    7.28 
   4   2   1  296.17    7.26 
  -5  -2  -1  257.19    6.23 
  -5  -2  -1  256.58    6.29 
   5   2   1  248.69    6.51 
   5   2   1  254.35    6.26 
  -6  -2  -1  288.73    7.15 
  -6  -2  -1  289.81    7.21 
   6   2   1  289.85    7.45 
   6   2   1  294.04    7.19 
  -7  -2  -1  242.38    6.11 
  -7  -2  -1  237.09    6.17 
   7   2   1  248.19    6.44 
   7   2   1  239.79    6.14 
  -8  -2  -1  180.33    4.86 
  -8  -2  -1  183.82    4.95 
   8   2   1  184.51    5.19 
   8   2   1  184.68    4.84 
   8   2   1  187.58    5.23 
  -9  -2  -1   76.39    2.57 
   9   2   1   74.25    2.57 
   9   2   1   74.83    2.48 
   9   2   1   74.35    2.89 
 -10  -2  -1   35.45    1.96 
 -10  -2  -1   36.69    1.99 
  10   2   1   36.79    2.23 
  10   2   1   38.22    1.92 
  10   2   1   39.85    1.80 
 -11  -2  -1    8.59    1.14 
 -11  -2  -1    9.35    1.14 
  11   2   1   11.12    1.20 
  11   2   1   11.15    1.10 
 -12  -2  -1    6.42    1.21 
 -12  -2  -1    7.66    2.02 
  12   2   1    7.14    1.04 
  12   2   1    6.77    1.42 
  12   2   1    8.31    1.35 
 -13  -2  -1   14.45    1.59 
 -13  -2  -1   13.85    1.54 
  13   2   1   11.30    1.63 
  13   2   1   21.02    2.86 
  13   2   1   15.57    1.78 
  13  -3  -1   13.28    1.84 
  13  -3  -1   17.69    1.98 
 -13   3   1   12.78    2.02 
 -13   3   1   16.09    2.01 
  12  -3  -1   32.75    2.16 
  12  -3  -1   32.49    1.96 
 -12   3   1   27.86    2.08 
 -12   3   1   32.66    2.77 
  11  -3  -1   91.05    2.95 
  11  -3  -1   86.71    3.27 
  11  -3  -1   90.81    3.66 
 -11   3   1   93.65    3.69 
 -11   3   1   93.47    3.21 
  10  -3  -1  149.80    4.50 
  10  -3  -1  149.36    4.11 
  10  -3  -1  141.44    4.73 
 -10   3   1  145.62    4.32 
 -10   3   1  154.47    4.75 
   9  -3  -1  193.61    5.45 
   9  -3  -1  198.03    5.11 
   9  -3  -1  191.60    5.67 
  -9   3   1  200.40    5.65 
   8  -3  -1  140.90    4.33 
   8  -3  -1  139.77    4.08 
   8  -3  -1  142.56    3.78 
  -8   3   1  145.20    4.07 
  -8   3   1  142.50    4.28 
   7  -3  -1   64.00    1.93 
   7  -3  -1   65.26    2.23 
  -7   3   1   66.40    2.24 
  -7   3   1   64.60    2.42 
   6  -3  -1   94.03    2.53 
   6  -3  -1   98.05    2.90 
   6  -3  -1   95.68    2.83 
   6  -3  -1   92.24    3.00 
  -6   3   1   97.44    3.49 
  -6   3   1   98.57    3.02 
   5  -3  -1    7.83    0.88 
   5  -3  -1    7.93    0.92 
   5  -3  -1    8.02    0.57 
  -5   3   1    6.59    0.75 
  -5   3   1    8.77    0.89 
   4  -3  -1    3.17    0.56 
   4  -3  -1    2.63    0.55 
   4  -3  -1    3.23    0.50 
   4  -3  -1    3.65    0.46 
  -4   3   1    3.63    0.55 
  -4   3   1    2.67    0.57 
   3  -3  -1   16.45    0.93 
   3  -3  -1   16.46    0.96 
   3  -3  -1   16.98    0.84 
   3  -3  -1   15.77    0.60 
  -3   3   1   16.61    0.93 
  -3   3   1   16.53    0.95 
   2  -3  -1    0.49    0.37 
   2  -3  -1    0.42    0.30 
   2  -3  -1    0.57    0.25 
  -2   3   1    0.57    0.37 
  -2   3   1    0.19    0.35 
  -2   3   1    0.58    0.23 
   1  -3  -1   18.30    0.91 
   1  -3  -1   20.59    0.77 
   1  -3  -1   20.05    0.75 
   1  -3  -1   19.71    0.72 
  -1   3   1   19.97    0.90 
  -1   3   1   19.79    0.72 
  -1   3   1   19.67    0.74 
   0  -3  -1    4.01    0.32 
   0  -3  -1    4.07    0.43 
   0  -3  -1    4.53    0.48 
   0   3   1    3.45    0.38 
   0   3   1    3.60    0.41 
   0   3   1    3.61    0.40 
  -1  -3  -1   27.01    0.77 
  -1  -3  -1   25.36    1.01 
  -1  -3  -1   26.48    0.89 
   1   3   1   25.47    0.88 
   1   3   1   26.26    1.07 
  -2  -3  -1  244.98    5.84 
  -2  -3  -1  258.62    5.98 
   2   3   1  242.80    6.13 
   2   3   1  236.41    5.84 
   2   3   1  245.66    5.85 
  -3  -3  -1  443.70   10.64 
   3   3   1  446.83   10.99 
   3   3   1  463.05   10.67 
  -4  -3  -1  371.76    8.78 
  -4  -3  -1  375.20    8.80 
   4   3   1  355.49    9.14 
   4   3   1  369.95    8.81 
  -5  -3  -1  277.36    6.67 
  -5  -3  -1  276.51    6.64 
   5   3   1  266.63    6.66 
   5   3   1  269.10    7.03 
  -6  -3  -1  226.47    5.54 
  -6  -3  -1  218.41    5.57 
   6   3   1  221.98    5.95 
   6   3   1  218.94    5.57 
  -7  -3  -1  117.99    3.35 
  -7  -3  -1  122.98    3.31 
   7   3   1  120.40    3.34 
   7   3   1  121.43    3.75 
  -8  -3  -1   11.68    1.20 
  -8  -3  -1   13.66    1.20 
   8   3   1   13.54    1.60 
   8   3   1   12.96    1.24 
  -9  -3  -1    0.38    0.69 
  -9  -3  -1   -0.07    0.67 
   9   3   1    0.56    0.90 
   9   3   1    0.45    0.68 
   9   3   1    0.26    0.64 
 -10  -3  -1    4.58    0.89 
 -10  -3  -1    4.60    0.91 
  10   3   1    4.42    1.07 
  10   3   1    6.38    1.39 
 -11  -3  -1    4.29    1.02 
 -11  -3  -1    4.34    1.00 
  11   3   1    4.49    0.92 
  11   3   1    5.34    1.26 
  11   3   1    4.11    1.02 
 -12  -3  -1    2.55    1.08 
 -12  -3  -1    2.14    1.13 
  12   3   1    0.69    1.15 
  12   3   1    1.46    0.93 
  12   3   1    4.24    1.41 
 -13  -3  -1   -0.46    1.35 
 -13  -3  -1    2.27    1.23 
  13   3   1    3.36    1.04 
  13   3   1    1.53    1.37 
  13   3   1    2.60    1.58 
  13  -4  -1   74.42    3.26 
 -13   4   1   74.58    3.94 
  12  -4  -1   60.75    2.28 
  12  -4  -1   63.05    2.86 
 -12   4   1   62.95    3.41 
 -12   4   1   60.95    2.84 
  11  -4  -1   71.36    2.40 
  11  -4  -1   70.41    2.90 
 -11   4   1   74.74    2.97 
 -11   4   1   75.43    3.43 
  10  -4  -1   88.43    2.65 
  10  -4  -1   84.57    3.18 
 -10   4   1   91.27    3.50 
 -10   4   1   94.20    3.16 
   9  -4  -1   42.55    2.33 
   9  -4  -1   42.39    2.08 
   9  -4  -1   41.95    1.55 
  -9   4   1   44.77    2.05 
  -9   4   1   38.79    2.44 
   8  -4  -1   -0.30    0.73 
   8  -4  -1    0.07    0.65 
  -8   4   1   -0.11    0.87 
  -8   4   1    0.02    0.70 
   7  -4  -1   11.91    0.70 
   7  -4  -1   11.11    1.23 
   7  -4  -1   11.75    1.33 
  -7   4   1   12.47    1.21 
  -7   4   1   11.90    1.44 
   6  -4  -1   20.80    1.38 
   6  -4  -1   20.79    1.25 
   6  -4  -1   22.04    1.33 
  -6   4   1   19.39    1.26 
  -6   4   1   21.43    1.45 
   5  -4  -1   50.91    1.94 
   5  -4  -1   51.56    1.41 
   5  -4  -1   53.69    1.94 
  -5   4   1   51.66    1.97 
  -5   4   1   50.17    1.92 
   4  -4  -1   39.18    1.15 
   4  -4  -1   38.35    1.58 
   4  -4  -1   41.03    1.48 
  -4   4   1   38.82    1.56 
  -4   4   1   40.93    1.62 
   3  -4  -1   86.44    2.35 
   3  -4  -1   82.28    2.15 
   3  -4  -1   83.91    2.51 
  -3   4   1   81.88    2.46 
  -3   4   1   80.96    2.47 
  -3   4   1   84.25    2.14 
   2  -4  -1   52.61    1.46 
   2  -4  -1   56.71    1.60 
   2  -4  -1   51.96    1.74 
  -2   4   1   50.97    1.71 
  -2   4   1   52.12    1.47 
  -2   4   1   53.32    1.74 
  -2   4   1   53.83    1.45 
   1  -4  -1  108.24    2.79 
   1  -4  -1  109.97    2.75 
   1  -4  -1  111.47    2.79 
   1  -4  -1  105.88    2.92 
  -1   4   1  105.63    2.77 
  -1   4   1  107.92    2.76 
  -1   4   1  102.56    2.88 
   0  -4  -1   50.91    1.58 
   0  -4  -1   52.16    1.41 
   0  -4  -1   51.12    1.49 
   0  -4  -1   49.11    1.57 
   0   4   1   51.11    1.55 
   0   4   1   50.45    1.57 
  -1  -4  -1  253.94    6.29 
  -1  -4  -1  265.09    6.15 
   1   4   1  256.81    6.15 
   1   4   1  258.21    6.27 
   1   4   1  256.88    6.42 
  -2  -4  -1  423.38    9.72 
  -2  -4  -1  392.92    9.59 
   2   4   1  403.94    9.89 
   2   4   1  393.09    9.58 
  -3  -4  -1  202.72    4.97 
   3   4   1  192.39    5.20 
   3   4   1  197.44    4.81 
  -4  -4  -1  182.49    4.40 
   4   4   1  178.74    4.48 
  -5  -4  -1   26.49    0.99 
  -5  -4  -1   26.42    1.00 
   5   4   1   24.16    1.50 
   5   4   1   25.65    1.05 
  -6  -4  -1    0.95    0.41 
  -6  -4  -1    0.05    0.39 
   6   4   1    0.12    0.64 
   6   4   1    0.55    0.45 
  -7  -4  -1    1.41    0.53 
  -7  -4  -1    0.98    0.51 
   7   4   1    1.33    0.53 
   7   4   1    1.70    0.75 
  -8  -4  -1   22.46    1.43 
  -8  -4  -1   26.13    1.39 
   8   4   1   26.46    1.31 
   8   4   1   24.44    1.98 
   8   4   1   26.86    1.67 
  -9  -4  -1   36.50    1.70 
  -9  -4  -1   33.14    1.74 
   9   4   1   35.42    2.42 
   9   4   1   32.46    1.71 
   9   4   1   36.42    1.60 
 -10  -4  -1    3.88    0.85 
  10   4   1    3.48    1.37 
  10   4   1    3.33    0.77 
  10   4   1    3.33    1.19 
 -11  -4  -1    0.46    0.98 
 -11  -4  -1    1.98    0.91 
  11   4   1   -0.48    1.20 
  11   4   1    0.88    0.81 
  11   4   1   -0.88    0.93 
 -12  -4  -1   -0.89    1.02 
 -12  -4  -1   -2.22    1.15 
  12   4   1   -0.62    1.38 
  12   4   1    0.65    0.88 
  12   4   1    0.22    1.09 
 -13  -4  -1   23.70    2.29 
  13   4   1   19.44    2.02 
  13   4   1   16.90    2.16 
  13  -5  -1   35.73    2.50 
 -13   5   1   38.32    3.39 
 -13   5   1   29.98    2.75 
  12  -5  -1    9.16    1.34 
 -12   5   1    7.19    1.73 
  11  -5  -1    8.32    1.24 
 -11   5   1    6.37    1.51 
 -11   5   1    9.29    1.37 
  10  -5  -1    1.00    0.87 
 -10   5   1    1.59    1.16 
 -10   5   1    2.20    1.02 
   9  -5  -1    8.17    1.08 
  -9   5   1    7.92    1.07 
  -9   5   1    8.24    1.22 
   8  -5  -1   48.54    2.17 
   8  -5  -1   50.69    2.27 
  -8   5   1   47.06    2.41 
  -8   5   1   55.41    2.26 
   7  -5  -1   14.49    1.30 
   7  -5  -1   17.90    1.42 
  -7   5   1   16.56    1.61 
  -7   5   1   16.29    1.36 
   6  -5  -1   32.87    1.64 
   6  -5  -1   27.65    1.46 
  -6   5   1   29.94    1.55 
  -6   5   1   27.76    1.67 
   5  -5  -1    5.08    0.76 
   5  -5  -1    5.47    0.68 
  -5   5   1    4.35    0.71 
  -5   5   1    4.67    0.73 
   4  -5  -1   12.23    1.09 
   4  -5  -1   13.41    0.93 
  -4   5   1   13.13    1.12 
  -4   5   1   11.47    1.05 
   3  -5  -1   69.10    2.06 
   3  -5  -1   70.93    2.28 
   3  -5  -1   67.69    1.85 
  -3   5   1   65.76    2.27 
  -3   5   1   67.44    2.24 
  -3   5   1   66.99    1.85 
  -3   5   1   69.98    1.83 
   2  -5  -1  475.04   10.86 
   2  -5  -1  444.07   11.06 
   2  -5  -1  456.96   10.81 
  -2   5   1  449.26   11.01 
  -2   5   1  451.72   10.78 
  -2   5   1  440.04   10.79 
  -2   5   1  445.86   11.03 
   1  -5  -1  171.53    4.54 
   1  -5  -1  168.67    4.41 
   1  -5  -1  178.55    4.32 
   1  -5  -1  179.90    4.43 
  -1   5   1  173.38    4.39 
  -1   5   1  171.08    4.50 
  -1   5   1  170.75    4.39 
   0  -5  -1  431.75   10.57 
   0  -5  -1  452.60   10.37 
   0  -5  -1  408.73   10.61 
   0  -5  -1  444.46   10.59 
   0   5   1  436.15   10.54 
   0   5   1  442.09   10.57 
  -1  -5  -1  262.21    6.43 
  -1  -5  -1  263.41    6.58 
  -1  -5  -1  253.34    6.41 
  -1  -5  -1  264.02    6.22 
   1   5   1  257.09    6.38 
   1   5   1  260.68    6.56 
   1   5   1  256.65    6.22 
  -2  -5  -1  108.53    2.95 
  -2  -5  -1  115.36    3.05 
  -2  -5  -1  118.39    2.79 
   2   5   1  111.65    3.25 
   2   5   1  109.28    2.92 
  -3  -5  -1    5.54    0.54 
  -3  -5  -1    5.93    0.63 
   3   5   1    5.99    0.60 
   3   5   1    5.79    0.74 
  -4  -5  -1    1.19    0.47 
   4   5   1    0.09    0.34 
   4   5   1    0.34    0.57 
   5   5   1    0.54    0.62 
   5   5   1    1.12    0.41 
  -6  -5  -1   26.48    1.06 
   6   5   1   25.82    1.76 
   6   5   1   25.70    1.20 
  -7  -5  -1   57.04    1.84 
   7   5   1   53.55    1.77 
   7   5   1   53.86    1.91 
   7   5   1   56.05    2.55 
  -8  -5  -1   21.84    1.32 
  -8  -5  -1   22.40    1.33 
   8   5   1   20.24    1.18 
   8   5   1   21.61    1.36 
   8   5   1   18.92    2.10 
  -9  -5  -1    4.12    0.77 
  -9  -5  -1    4.38    0.88 
   9   5   1    3.78    1.14 
   9   5   1    3.67    0.82 
 -10  -5  -1   12.22    1.62 
 -10  -5  -1   15.56    1.51 
  10   5   1   14.14    1.40 
  10   5   1   14.24    1.66 
  10   5   1   11.62    1.40 
 -11  -5  -1   10.92    1.19 
 -11  -5  -1   12.51    1.27 
  11   5   1   15.91    1.86 
  11   5   1   11.94    1.25 
  11   5   1   11.45    1.24 
 -12  -5  -1   21.60    2.05 
 -12  -5  -1   23.15    2.17 
  12   5   1   25.34    3.17 
  12   5   1   22.18    1.85 
  12   5   1   20.04    2.11 
  13  -6  -1    0.45    1.11 
 -13   6   1   -4.53    1.70 
  12  -6  -1    1.44    1.07 
 -12   6   1    3.28    1.65 
 -12   6   1    2.13    1.34 
  11  -6  -1    4.69    1.12 
 -11   6   1    5.46    1.58 
 -11   6   1    1.69    1.17 
  10  -6  -1   14.61    1.44 
 -10   6   1   12.56    1.64 
   9  -6  -1   20.88    1.68 
  -9   6   1   21.11    2.15 
  -9   6   1   18.81    1.81 
   8  -6  -1   25.96    1.71 
   8  -6  -1   28.51    1.92 
  -8   6   1   28.28    1.84 
   7  -6  -1   40.01    2.03 
   7  -6  -1   36.66    1.82 
  -7   6   1   37.24    1.94 
  -7   6   1   37.84    2.10 
   6  -6  -1   38.16    1.89 
  -6   6   1   38.16    1.83 
  -6   6   1   38.49    1.93 
   5  -6  -1  199.37    5.37 
   5  -6  -1  200.30    5.14 
  -5   6   1  202.66    5.33 
  -5   6   1  169.63    6.00 
   4  -6  -1  299.79    7.29 
   4  -6  -1  293.24    7.84 
   4  -6  -1  306.24    7.82 
  -4   6   1  300.31    7.75 
  -4   6   1  304.49    7.74 
  -4   6   1  303.82    7.28 
  -4   6   1  306.85    7.24 
   3  -6  -1  341.63    8.20 
   3  -6  -1  336.00    8.08 
   3  -6  -1  334.97    8.46 
  -3   6   1  330.95    8.42 
  -3   6   1  327.13    8.39 
  -3   6   1  330.26    8.03 
  -3   6   1  329.37    8.05 
   2  -6  -1  851.25   19.86 
   2  -6  -1  820.12   20.13 
   2  -6  -1  835.92   19.88 
  -2   6   1  843.85   19.86 
  -2   6   1  867.18   20.41 
  -2   6   1  809.05   19.84 
   1  -6  -1  642.52   16.01 
   1  -6  -1  660.31   15.85 
   1  -6  -1  687.11   15.76 
   1  -6  -1  681.73   15.92 
  -1   6   1  662.43   15.88 
  -1   6   1  656.91   15.97 
  -1   6   1  655.59   15.87 
   0  -6  -1  345.87    8.53 
   0  -6  -1  339.47    8.51 
   0  -6  -1  337.43    8.40 
   0  -6  -1  349.30    8.24 
   0   6   1  341.77    8.51 
   0   6   1  344.46    8.46 
  -1  -6  -1   66.71    2.06 
  -1  -6  -1   65.12    2.24 
  -1  -6  -1   65.46    2.02 
  -1  -6  -1   67.05    1.79 
   1   6   1   67.26    2.23 
   1   6   1   65.59    2.00 
  -2  -6  -1   30.15    1.21 
  -2  -6  -1   33.15    0.98 
  -2  -6  -1   31.99    1.32 
   2   6   1   31.64    1.16 
   2   6   1   33.45    1.59 
  -3  -6  -1    0.18    0.46 
  -3  -6  -1    0.57    0.35 
   3   6   1   -0.12    0.55 
   3   6   1    0.22    0.33 
  -4  -6  -1    3.38    0.59 
   4   6   1    3.91    0.47 
   4   6   1    3.22    0.74 
  -5  -6  -1   -0.22    0.53 
   5   6   1    0.42    0.44 
   5   6   1   -0.81    0.66 
  -6  -6  -1   -0.01    0.58 
   6   6   1    0.75    0.50 
   6   6   1    1.52    0.85 
   7   6   1    3.08    0.58 
   7   6   1    1.75    1.02 
  -8  -6  -1   55.42    1.91 
   8   6   1   58.13    2.97 
   8   6   1   54.23    2.10 
   8   6   1   57.83    1.88 
  -9  -6  -1   30.31    1.63 
   9   6   1   34.03    1.83 
   9   6   1   36.62    1.60 
   9   6   1   39.05    2.74 
 -10  -6  -1   79.70    3.00 
  10   6   1   99.99    2.93 
  10   6   1   96.84    3.18 
  10   6   1  102.33    4.12 
  11   6   1   66.31    2.36 
  11   6   1   62.30    2.64 
  11   6   1   66.41    3.77 
  12   6   1   58.52    2.35 
  12   6   1   61.08    3.91 
  12  -7  -1    2.23    1.18 
 -12   7   1    4.08    1.77 
  11  -7  -1    4.94    1.21 
 -11   7   1    7.96    1.49 
 -11   7   1    4.29    1.51 
  10  -7  -1    4.45    1.08 
 -10   7   1    1.42    1.11 
 -10   7   1    4.46    1.39 
   9  -7  -1    6.16    1.20 
   9  -7  -1    6.73    1.12 
  -9   7   1    6.53    1.35 
   8  -7  -1    1.00    0.84 
   8  -7  -1    0.21    0.99 
  -8   7   1    0.98    0.92 
   7  -7  -1  180.29    5.25 
   7  -7  -1  169.28    5.00 
  -7   7   1  178.64    5.26 
  -7   7   1  179.25    5.17 
   6  -7  -1  242.25    6.47 
   6  -7  -1  243.74    6.70 
  -6   7   1  246.99    6.64 
  -6   7   1  242.71    6.65 
   5  -7  -1  239.16    6.57 
   5  -7  -1  242.28    6.32 
  -5   7   1  241.96    6.52 
  -5   7   1  245.21    6.51 
   4  -7  -1  145.16    4.26 
   4  -7  -1  144.07    3.74 
   4  -7  -1  147.09    3.97 
  -4   7   1  142.62    3.68 
  -4   7   1  143.69    4.20 
  -4   7   1  146.00    3.70 
  -4   7   1  143.36    4.20 
   3  -7  -1  135.60    3.99 
   3  -7  -1  136.58    3.66 
   3  -7  -1  134.05    3.61 
  -3   7   1  134.88    3.92 
  -3   7   1  136.24    3.94 
  -3   7   1  136.08    3.56 
  -3   7   1  134.31    3.55 
   2  -7  -1  134.93    3.64 
   2  -7  -1  131.99    3.86 
   2  -7  -1  133.97    3.52 
  -2   7   1  134.23    3.59 
  -2   7   1  130.74    3.55 
  -2   7   1  131.32    3.79 
   1  -7  -1   46.76    1.83 
   1  -7  -1   46.64    1.48 
   1  -7  -1   46.91    1.74 
   1  -7  -1   44.77    1.61 
  -1   7   1   44.50    1.62 
  -1   7   1   44.19    1.72 
  -1   7   1   46.03    1.69 
   0  -7  -1    0.95    0.47 
   0  -7  -1    0.25    0.35 
   0  -7  -1   -0.01    0.53 
   0  -7  -1    0.73    0.52 
   0   7   1    0.80    0.57 
   0   7   1    0.42    0.51 
  -1  -7  -1   14.72    0.98 
  -1  -7  -1   13.89    1.02 
  -1  -7  -1   13.83    0.71 
   1   7   1   13.74    0.97 
   1   7   1   16.17    1.24 
  -2  -7  -1   12.18    0.64 
  -2  -7  -1   13.10    0.94 
  -2  -7  -1   11.92    1.01 
   2   7   1   12.54    0.86 
   2   7   1   10.66    1.26 
  -3  -7  -1    5.64    0.74 
  -3  -7  -1    5.59    0.74 
   3   7   1    4.82    0.53 
   3   7   1    4.42    0.80 
  -4  -7  -1    2.17    0.61 
   4   7   1    2.87    0.81 
   4   7   1    2.00    0.48 
  -5  -7  -1    4.54    0.76 
   5   7   1    3.94    0.59 
   5   7   1    2.87    0.90 
  -6  -7  -1   29.49    1.60 
   6   7   1   28.82    3.19 
  -7  -7  -1   86.74    3.01 
   7   7   1   91.87    3.62 
   7   7   1   89.37    2.76 
  -8  -7  -1  131.46    4.09 
   8   7   1  130.98    3.80 
   8   7   1  131.54    3.42 
   8   7   1  131.89    4.69 
  -9  -7  -1   65.86    2.79 
   9   7   1   64.61    3.49 
   9   7   1   63.54    2.71 
   9   7   1   72.18    2.13 
 -10  -7  -1   51.28    2.60 
  10   7   1   51.80    2.33 
  10   7   1   52.50    3.46 
 -11  -7  -1   30.71    2.33 
  11   7   1   41.35    3.51 
  12  -8  -1    3.11    1.18 
 -12   8   1    4.53    1.86 
  11  -8  -1   26.35    2.22 
 -11   8   1   31.00    3.05 
  10  -8  -1   35.89    2.35 
 -10   8   1   39.61    2.65 
 -10   8   1   42.93    3.02 
   9  -8  -1   76.56    3.08 
   9  -8  -1   75.88    3.28 
  -9   8   1   78.69    3.50 
   8  -8  -1  230.78    6.61 
   8  -8  -1  241.63    6.85 
  -8   8   1  242.35    6.89 
   7  -8  -1  232.43    6.66 
   7  -8  -1  229.68    6.38 
  -7   8   1  231.99    6.57 
  -7   8   1  239.34    6.64 
   6  -8  -1  104.91    3.28 
   6  -8  -1  101.50    3.56 
  -6   8   1  102.28    3.60 
  -6   8   1  100.35    3.53 
   5  -8  -1   64.11    2.40 
   5  -8  -1   67.58    2.03 
   5  -8  -1   68.38    2.70 
  -5   8   1   68.53    2.60 
  -5   8   1   65.52    1.94 
  -5   8   1   67.11    1.95 
  -5   8   1   69.58    2.68 
   4  -8  -1    7.05    0.77 
   4  -8  -1    6.57    0.91 
   4  -8  -1    5.86    0.96 
  -4   8   1    6.41    0.75 
  -4   8   1    6.01    0.94 
  -4   8   1    7.44    0.84 
  -4   8   1    6.93    0.93 
   3  -8  -1   10.33    1.32 
   3  -8  -1   10.21    0.94 
   3  -8  -1    9.83    1.02 
  -3   8   1   10.82    0.96 
  -3   8   1    9.92    1.03 
  -3   8   1   10.33    1.22 
  -3   8   1   11.00    0.88 
   2  -8  -1    8.59    0.83 
   2  -8  -1   10.42    1.05 
   2  -8  -1    8.74    1.25 
  -2   8   1    8.22    0.87 
  -2   8   1    9.82    1.03 
   1  -8  -1   72.95    2.34 
   1  -8  -1   75.48    2.14 
   1  -8  -1   76.08    2.54 
   1  -8  -1   70.85    2.54 
  -1   8   1   72.30    2.41 
  -1   8   1   73.63    2.48 
  -1   8   1   71.63    2.34 
   0  -8  -1   43.25    1.85 
   0  -8  -1   44.62    1.45 
   0  -8  -1   46.21    1.95 
   0  -8  -1   44.22    1.70 
   0   8   1   45.44    1.80 
   0   8   1   45.42    1.89 
   0   8   1   44.40    1.76 
   0   8   1   44.15    1.46 
  -1  -8  -1   12.28    1.13 
  -1  -8  -1   13.14    0.73 
  -1  -8  -1   13.52    1.04 
   1   8   1   11.40    1.31 
   1   8   1   12.06    0.99 
  -2  -8  -1   -0.58    0.35 
  -2  -8  -1   -0.22    0.49 
  -2  -8  -1   -0.52    0.52 
   2   8   1    0.51    0.70 
  -3  -8  -1   34.81    1.60 
  -3  -8  -1   33.47    1.41 
   3   8   1   33.63    1.52 
   3   8   1   33.87    2.00 
  -4  -8  -1   60.57    2.23 
  -4  -8  -1   61.93    1.92 
   4   8   1   63.02    2.21 
   4   8   1   61.35    2.72 
  -5  -8  -1   53.76    2.15 
   5   8   1   56.68    1.93 
   5   8   1   54.19    3.41 
  -6  -8  -1  103.56    3.45 
   6   8   1  112.95    4.07 
   6   8   1  110.76    3.17 
  -7  -8  -1  132.35    4.13 
   7   8   1  132.93    3.82 
   7   8   1  138.55    4.79 
  -8  -8  -1   54.95    2.54 
   8   8   1   58.33    3.30 
   8   8   1   59.02    2.27 
  -9  -8  -1   27.40    2.06 
   9   8   1   27.13    1.90 
   9   8   1   29.61    2.99 
 -10  -8  -1    5.41    1.28 
  10   8   1    7.60    1.74 
  10   8   1    4.34    1.08 
  11   8   1    3.05    1.80 
  11  -9  -1   86.81    3.62 
 -11   9   1   82.72    4.28 
  10  -9  -1  101.33    3.85 
 -10   9   1  100.41    4.35 
   9  -9  -1   94.06    3.54 
   9  -9  -1   94.20    3.81 
  -9   9   1   93.88    3.95 
  -9   9   1   90.80    3.73 
   8  -9  -1  133.21    4.36 
   8  -9  -1  137.19    4.65 
  -8   9   1  140.03    4.69 
   7  -9  -1   72.11    3.16 
   7  -9  -1   71.49    2.84 
  -7   9   1   80.33    3.25 
   6  -9  -1   27.35    1.71 
   6  -9  -1   29.60    2.08 
  -6   9   1   27.01    2.09 
   5  -9  -1    0.40    0.52 
   5  -9  -1    0.67    0.65 
  -5   9   1    0.20    0.48 
  -5   9   1    1.20    0.92 
  -5   9   1    0.88    0.94 
  -5   9   1    0.11    0.48 
   4  -9  -1   12.55    1.62 
   4  -9  -1   11.79    1.14 
  -4   9   1   12.51    1.09 
  -4   9   1   10.88    0.96 
  -4   9   1   10.77    1.28 
  -4   9   1   13.21    1.51 
   3  -9  -1   13.25    1.03 
   3  -9  -1   13.49    1.24 
   3  -9  -1   11.85    1.54 
  -3   9   1   11.79    1.15 
  -3   9   1   10.95    1.47 
  -3   9   1   11.37    1.14 
   2  -9  -1   31.47    1.84 
   2  -9  -1   33.48    1.68 
  -2   9   1   31.92    1.60 
  -2   9   1   30.40    1.47 
  -2   9   1   29.41    1.77 
   1  -9  -1    3.12    0.77 
   1  -9  -1    2.57    0.54 
   1  -9  -1    3.54    0.73 
   1  -9  -1    3.10    0.84 
  -1   9   1    4.20    0.82 
  -1   9   1    2.92    0.73 
  -1   9   1    2.21    0.67 
   0  -9  -1    8.91    0.80 
   0  -9  -1    7.31    0.96 
   0  -9  -1    7.18    0.84 
   0   9   1    6.67    0.92 
   0   9   1    7.58    1.04 
   0   9   1    9.07    1.00 
   0   9   1    8.22    0.80 
  -1  -9  -1   38.09    1.76 
  -1  -9  -1   38.28    1.29 
  -1  -9  -1   36.29    1.69 
   1   9   1   38.27    2.01 
   1   9   1   38.67    1.69 
  -2  -9  -1  130.93    3.75 
  -2  -9  -1  129.72    3.80 
   2   9   1  130.79    4.14 
  -3  -9  -1  111.64    3.51 
  -3  -9  -1  119.37    3.35 
   3   9   1  114.16    3.25 
   3   9   1  119.21    3.99 
  -4  -9  -1  196.03    5.47 
   4   9   1  198.55    5.17 
   4   9   1  200.88    5.95 
  -5  -9  -1  208.39    5.85 
   5   9   1  214.00    5.56 
   5   9   1  216.89    6.42 
  -6  -9  -1  107.62    3.61 
   6   9   1  112.21    4.22 
   6   9   1  112.55    3.30 
  -7  -9  -1   40.74    2.22 
   7   9   1   42.89    2.93 
   7   9   1   37.67    2.14 
  -8  -9  -1   18.53    1.87 
   8   9   1   24.85    2.92 
   8   9   1   14.56    1.68 
  -9  -9  -1    0.44    1.06 
   9   9   1    1.80    1.60 
   9   9   1    0.95    0.94 
 -10  -9  -1    1.29    1.19 
  10   9   1   -3.22    1.58 
  11 -10  -1   64.49    3.31 
 -11  10   1   74.67    4.23 
  10 -10  -1   33.89    2.45 
  10 -10  -1   36.17    2.98 
 -10  10   1   36.89    3.29 
   9 -10  -1   12.43    1.49 
   9 -10  -1   19.31    2.41 
  -9  10   1   11.06    1.82 
   8 -10  -1   -0.77    0.85 
   8 -10  -1   -0.78    1.08 
  -8  10   1    0.81    1.23 
  -8  10   1    3.93    2.19 
   7 -10  -1    1.53    1.14 
   7 -10  -1    2.68    0.91 
  -7  10   1    2.10    1.23 
   6 -10  -1   15.04    1.64 
   6 -10  -1   15.95    1.47 
  -6  10   1   12.98    1.43 
   5 -10  -1   17.25    1.92 
   5 -10  -1   14.36    1.40 
  -5  10   1   13.83    1.44 
  -5  10   1   14.65    1.18 
  -5  10   1   14.93    1.88 
  -5  10   1   15.05    1.06 
   4 -10  -1    6.02    0.82 
   4 -10  -1    7.54    1.21 
  -4  10   1    5.75    0.78 
  -4  10   1    7.14    1.20 
  -4  10   1    6.38    0.97 
  -4  10   1    8.50    1.95 
   3 -10  -1    1.28    0.91 
   3 -10  -1   -0.28    0.55 
  -3  10   1   -0.20    0.84 
  -3  10   1    0.04    0.82 
  -3  10   1   -0.40    0.63 
  -3  10   1    0.33    0.65 
   2 -10  -1    4.13    0.96 
   2 -10  -1    5.67    0.69 
  -2  10   1    4.71    0.99 
  -2  10   1    4.63    0.86 
  -2  10   1    4.79    0.86 
   1 -10  -1   37.64    2.05 
   1 -10  -1   37.77    1.80 
   1 -10  -1   39.25    1.49 
  -1  10   1   38.72    1.92 
  -1  10   1   36.91    1.82 
  -1  10   1   38.89    1.99 
   0 -10  -1   87.31    3.08 
   0 -10  -1   87.86    2.93 
   0 -10  -1   92.35    2.54 
   0  10   1   88.65    3.03 
   0  10   1   90.37    2.99 
   0  10   1   89.11    3.15 
   0  10   1   88.28    2.53 
  -1 -10  -1  165.29    4.74 
  -1 -10  -1  169.97    4.19 
  -1 -10  -1  162.55    4.67 
   1  10   1  161.20    4.86 
   1  10   1  165.51    4.96 
  -2 -10  -1  158.31    4.41 
  -2 -10  -1  154.41    4.42 
   2  10   1  144.89    5.34 
  -3 -10  -1  155.92    4.33 
  -3 -10  -1  154.00    4.51 
   3  10   1  149.76    4.30 
   3  10   1  162.19    5.03 
  -4 -10  -1   66.59    2.54 
   4  10   1   61.16    2.45 
   4  10   1   66.41    3.15 
  -5 -10  -1    5.88    1.94 
   5  10   1    5.27    0.84 
   5  10   1    6.66    1.34 
  -6 -10  -1   17.44    1.78 
   6  10   1   23.31    2.66 
   6  10   1   21.57    1.60 
  -7 -10  -1    2.19    1.04 
   7  10   1   -0.01    1.48 
   7  10   1    1.41    0.87 
  -8 -10  -1    0.80    1.10 
   8  10   1   -1.41    1.51 
   8  10   1    0.17    0.93 
  -9 -10  -1    3.58    1.29 
   9  10   1    2.12    1.98 
  10 -11  -1    0.90    1.19 
 -10  11   1    2.20    1.75 
   9 -11  -1   12.99    1.85 
   9 -11  -1   11.01    1.49 
  -9  11   1    6.57    1.87 
   8 -11  -1   21.94    2.58 
   8 -11  -1   19.76    2.02 
  -8  11   1   25.21    2.73 
   7 -11  -1   21.03    2.38 
   7 -11  -1   21.52    1.89 
  -7  11   1   19.79    2.51 
   6 -11  -1   11.39    1.58 
   6 -11  -1   11.08    1.18 
  -6  11   1   10.80    1.42 
  -6  11   1   11.02    1.02 
  -6  11   1   11.95    1.53 
  -6  11   1   11.86    1.15 
   5 -11  -1    0.30    0.71 
   5 -11  -1    1.38    1.12 
  -5  11   1    1.05    1.10 
  -5  11   1   -0.23    0.66 
  -5  11   1    0.37    1.08 
  -5  11   1    0.00    0.99 
   4 -11  -1    5.24    1.24 
   4 -11  -1    7.22    0.88 
  -4  11   1    5.88    0.87 
  -4  11   1    4.72    0.87 
  -4  11   1    5.98    1.24 
  -4  11   1    7.29    1.35 
   3 -11  -1   46.40    2.50 
   3 -11  -1   39.53    1.79 
  -3  11   1   39.17    2.33 
  -3  11   1   42.82    2.39 
  -3  11   1   41.92    2.41 
  -3  11   1   42.51    2.05 
   2 -11  -1  152.35    4.16 
   2 -11  -1  155.30    4.86 
  -2  11   1  149.70    4.40 
  -2  11   1  158.47    4.57 
  -2  11   1  147.24    4.63 
   1 -11  -1  150.54    4.43 
   1 -11  -1  150.25    4.76 
  -1  11   1  152.40    4.61 
  -1  11   1  149.02    4.08 
  -1  11   1  154.91    4.59 
  -1  11   1  148.86    4.46 
   0 -11  -1   92.67    3.25 
   0 -11  -1   87.95    2.57 
   0 -11  -1   84.69    3.01 
   0  11   1   88.13    2.49 
   0  11   1   86.45    3.14 
   0  11   1   93.77    3.33 
   0  11   1   88.55    2.55 
  -1 -11  -1  147.57    3.81 
  -1 -11  -1  147.62    4.49 
  -1 -11  -1  148.47    4.40 
   1  11   1  147.92    4.62 
   1  11   1  150.58    4.74 
  -2 -11  -1   21.77    1.65 
  -2 -11  -1   22.33    1.66 
   2  11   1   24.11    2.17 
   2  11   1   18.95    1.97 
  -3 -11  -1   16.04    1.51 
  -3 -11  -1   20.34    2.22 
   3  11   1   17.33    1.37 
   3  11   1   21.46    2.23 
  -4 -11  -1    0.04    0.87 
   4  11   1    0.26    0.73 
   4  11   1    1.04    1.19 
  -5 -11  -1   14.50    1.47 
   5  11   1   14.02    1.51 
   5  11   1   16.59    1.91 
  -6 -11  -1    5.77    1.24 
   6  11   1    5.45    1.58 
   6  11   1    6.37    0.98 
  -7 -11  -1   15.50    1.67 
   7  11   1   12.53    1.24 
   7  11   1   12.35    2.00 
  -8 -11  -1    5.82    1.35 
   9 -12  -1    3.70    1.63 
   9 -12  -1    1.20    1.17 
  -9  12   1   -0.19    1.66 
   8 -12  -1   -0.99    0.97 
   8 -12  -1   -0.87    1.36 
  -8  12   1    2.98    1.63 
   7 -12  -1    1.20    0.94 
   7 -12  -1    1.51    1.38 
  -7  12   1    1.07    1.46 
   6 -12  -1   23.52    2.59 
   6 -12  -1   24.14    1.81 
  -6  12   1   24.81    1.53 
  -6  12   1   24.24    1.43 
  -6  12   1   26.31    2.58 
   5 -12  -1   66.70    3.33 
   5 -12  -1   66.51    2.54 
  -5  12   1   62.81    2.42 
  -5  12   1   66.79    3.27 
  -5  12   1   63.19    2.30 
   4 -12  -1  139.59    4.85 
   4 -12  -1  134.57    4.04 
  -4  12   1  134.52    4.63 
  -4  12   1  142.42    4.76 
  -4  12   1  135.00    4.01 
  -4  12   1  136.22    4.12 
   3 -12  -1  140.88    3.99 
   3 -12  -1  136.14    4.80 
  -3  12   1  140.38    4.70 
  -3  12   1  138.18    4.61 
  -3  12   1  138.91    4.16 
  -3  12   1  142.36    4.31 
   2 -12  -1  136.90    3.86 
   2 -12  -1  132.05    4.59 
  -2  12   1  139.28    4.33 
  -2  12   1  141.40    4.46 
  -2  12   1  136.03    4.45 
  -2  12   1  128.10    4.10 
   1 -12  -1  132.62    3.68 
   1 -12  -1  137.64    4.50 
  -1  12   1  131.83    3.70 
  -1  12   1  129.69    4.15 
   0 -12  -1   37.45    1.52 
   0 -12  -1   38.46    2.28 
   0 -12  -1   36.72    2.09 
   0  12   1   35.80    2.45 
   0  12   1   34.59    2.22 
  -1 -12  -1   34.82    2.14 
  -1 -12  -1   34.87    2.05 
   1  12   1   29.71    2.25 
   1  12   1   34.25    2.50 
  -2 -12  -1    1.21    0.92 
  -2 -12  -1    0.45    0.94 
   2  12   1    1.61    1.18 
   2  12   1    0.30    1.15 
  -3 -12  -1    1.26    0.89 
   3  12   1   -1.87    1.51 
   3  12   1   -0.44    0.81 
   3  12   1   -0.28    1.24 
  -4 -12  -1    2.34    1.02 
   4  12   1    2.53    0.90 
   4  12   1    3.04    1.39 
  -5 -12  -1    2.74    1.13 
   5  12   1   -1.21    1.57 
   5  12   1    2.93    0.89 
  -6 -12  -1    0.02    1.02 
   6  12   1   -1.46    1.57 
  -8  13   1   19.77    2.78 
   7 -13  -1   73.69    3.93 
   7 -13  -1   81.47    3.17 
  -7  13   1   69.35    3.92 
   6 -13  -1   91.87    4.18 
   6 -13  -1   91.44    3.32 
  -6  13   1   90.18    2.94 
  -6  13   1   92.90    4.09 
   5 -13  -1   69.51    3.67 
   5 -13  -1   66.90    2.66 
  -5  13   1   68.80    2.68 
  -5  13   1   62.93    3.51 
  -5  13   1   65.09    2.54 
   4 -13  -1   93.77    4.09 
   4 -13  -1   93.51    3.10 
  -4  13   1   92.92    3.97 
  -4  13   1   92.09    3.14 
  -4  13   1   93.55    3.35 
   3 -13  -1   40.78    1.89 
   3 -13  -1   42.65    2.93 
  -3  13   1   42.08    2.23 
  -3  13   1   40.87    2.40 
  -3  13   1   45.45    2.86 
   2 -13  -1   20.14    2.40 
   2 -13  -1   21.16    1.46 
  -2  13   1   22.76    2.26 
  -2  13   1   22.21    1.97 
  -2  13   1   23.90    2.15 
  -2  13   1   21.02    1.55 
   1 -13  -1    1.32    1.22 
   1 -13  -1    1.53    0.76 
  -1  13   1    0.96    1.05 
  -1  13   1    2.15    1.15 
  -1  13   1    1.64    0.68 
  -1  13   1    1.60    1.11 
   0 -13  -1    9.04    0.99 
   0 -13  -1    7.80    1.20 
   0 -13  -1    9.98    1.45 
   0  13   1    7.85    1.48 
   0  13   1    5.78    1.34 
  -1 -13  -1    3.47    1.24 
  -1 -13  -1    3.73    1.09 
   1  13   1    2.25    1.22 
   1  13   1    2.39    1.37 
  -2 -13  -1    9.81    1.34 
  -2 -13  -1    9.61    1.42 
   2  13   1    6.20    1.55 
  -3 -13  -1    0.90    1.06 
   3  13   1    3.77    0.96 
   3  13   1    0.32    1.53 
  -4 -13  -1    0.03    1.00 
   4  13   1   -0.65    1.54 
   4  13   1    1.07    0.98 
  -5 -13  -1    9.80    1.47 
   5  13   1    9.04    2.01 
   6 -14  -1   42.52    4.93 
  -6  14   1   36.96    3.34 
   5 -14  -1   17.42    2.15 
   5 -14  -1   17.66    1.73 
  -5  14   1   14.37    1.90 
  -5  14   1   19.07    2.24 
  -5  14   1   12.82    1.96 
   4 -14  -1    7.85    1.80 
   4 -14  -1    3.81    0.94 
  -4  14   1    5.32    1.12 
  -4  14   1    4.12    1.85 
  -4  14   1    3.78    2.12 
  -4  14   1    6.65    1.68 
   3 -14  -1    1.73    1.58 
   3 -14  -1    0.00    0.81 
  -3  14   1   -1.96    1.16 
  -3  14   1    2.87    1.17 
  -3  14   1    1.00    0.90 
  -3  14   1    0.53    1.46 
  -3  14   1    0.53    1.29 
   2 -14  -1    7.83    1.70 
   2 -14  -1    4.25    0.90 
  -2  14   1    6.35    1.52 
  -2  14   1    3.73    1.32 
  -2  14   1    5.80    1.37 
  -2  14   1    3.98    0.88 
   1 -14  -1   26.22    2.83 
   1 -14  -1   34.86    1.95 
  -1  14   1   29.15    2.33 
  -1  14   1   29.58    2.60 
  -1  14   1   28.34    2.72 
   0 -14  -1    9.10    1.71 
   0  14   1   11.38    1.67 
  -1 -14  -1    3.53    1.41 
  -1 -14  -1    4.32    1.24 
   1  14   1    3.21    1.58 
  -2 -14  -1    1.96    1.20 
   2  14   1    1.57    1.12 
   2  14   1    1.83    1.62 
   1  13  -2   44.64    3.63 
  -1 -13   2   45.35    2.60 
  -1 -13   2   51.43    3.15 
   0  13  -2   56.02    3.62 
   0 -13   2   61.75    3.49 
  -1  13  -2    6.52    1.74 
   1 -13   2    7.38    1.73 
  -2  13  -2    2.40    1.45 
   2 -13   2    4.45    1.64 
  -3  13  -2    0.81    1.17 
  -3  13  -2   -1.59    1.37 
   3 -13   2    2.92    1.62 
   3 -13   2    2.52    1.94 
  -4  13  -2   13.57    1.74 
  -4  13  -2   14.70    1.61 
   4 -13   2   22.82    2.98 
   4 -13   2   11.33    1.84 
   4 -13   2   16.40    1.52 
  -5  13  -2   11.09    1.59 
  -5  13  -2   10.58    1.88 
   5 -13   2    8.76    1.92 
   5 -13   2    9.93    1.16 
  -6  13  -2    9.06    1.42 
  -6  13  -2    4.97    2.22 
  -6  13  -2    7.09    1.82 
   6 -13   2    7.69    1.82 
   6 -13   2    7.94    1.14 
   3  12  -2   62.62    4.03 
   3  12  -2   64.87    3.43 
  -3 -12   2   66.26    2.91 
  -3 -12   2   60.53    2.87 
   2  12  -2   70.32    2.94 
   2  12  -2   70.28    4.03 
  -2 -12   2   66.02    3.00 
  -2 -12   2   71.23    3.16 
   1  12  -2   16.63    1.95 
   1  12  -2   14.86    1.93 
  -1 -12   2   18.30    1.87 
  -1 -12   2   16.31    1.76 
   0  12  -2   12.62    1.77 
   0 -12   2   15.71    1.83 
   0 -12   2   13.37    1.71 
  -1  12  -2   -2.43    1.18 
   1 -12   2    1.74    1.29 
   1 -12   2    1.56    1.37 
  -2  12  -2    2.15    1.27 
  -2  12  -2    0.62    1.15 
   2 -12   2    0.27    1.41 
   2 -12   2   -0.62    1.27 
  -3  12  -2   -0.60    1.16 
  -3  12  -2    1.24    1.06 
  -3  12  -2   -0.47    0.71 
   3 -12   2    0.91    1.30 
   3 -12   2    3.31    0.76 
   3 -12   2    0.62    1.33 
  -4  12  -2    1.94    0.99 
  -4  12  -2    1.28    1.19 
  -4  12  -2   -0.64    0.84 
   4 -12   2    0.09    1.39 
   4 -12   2    0.32    0.74 
  -5  12  -2    0.16    0.87 
  -5  12  -2   -1.83    1.04 
  -5  12  -2    1.11    1.01 
   5 -12   2   -1.74    1.31 
   5 -12   2   -1.24    1.40 
   5 -12   2    0.47    0.74 
  -6  12  -2    9.41    1.35 
  -6  12  -2   11.66    1.81 
   6 -12   2   14.86    2.03 
   6 -12   2   14.36    1.59 
   6 -12   2   11.25    1.60 
  -7  12  -2   61.81    2.83 
  -7  12  -2   64.20    3.14 
  -7  12  -2   75.48    4.06 
   7 -12   2   67.17    3.81 
   7 -12   2   63.54    2.76 
   7 -12   2   73.15    3.39 
  -8  12  -2   80.90    4.26 
   8 -12   2   89.14    3.40 
   8 -12   2   86.59    4.22 
   5  11  -2   52.62    2.79 
   5  11  -2   50.36    3.87 
  -5 -11   2   55.20    2.72 
   4  11  -2   13.51    2.08 
   4  11  -2   15.73    2.07 
  -4 -11   2   18.54    1.70 
  -4 -11   2   14.56    1.49 
   3  11  -2    5.95    1.58 
   3  11  -2    5.62    1.19 
  -3 -11   2    6.47    1.18 
  -3 -11   2    8.88    1.24 
   2  11  -2    2.44    0.98 
   2  11  -2    0.84    1.34 
  -2 -11   2    1.67    0.99 
  -2 -11   2    0.82    1.02 
   1  11  -2   26.09    2.64 
   1  11  -2   25.08    1.93 
  -1 -11   2   23.68    2.63 
  -1 -11   2   24.39    1.89 
  -1 -11   2   22.60    2.72 
   0  11  -2   13.62    1.61 
   0 -11   2   11.65    1.28 
   0 -11   2   12.94    1.47 
   0 -11   2   10.16    1.48 
  -1  11  -2    3.08    1.18 
   1 -11   2    3.74    1.16 
   1 -11   2   -0.02    1.46 
  -2  11  -2    4.04    1.19 
  -2  11  -2    4.03    0.70 
   2 -11   2    6.15    0.74 
   2 -11   2    4.71    1.21 
  -3  11  -2   -0.80    1.01 
  -3  11  -2    0.71    0.70 
  -3  11  -2   -0.25    0.89 
   3 -11   2   -1.51    1.05 
   3 -11   2    1.43    0.64 
   3 -11   2   -1.02    1.11 
  -4  11  -2   15.59    1.56 
  -4  11  -2   16.76    1.87 
  -4  11  -2   16.14    1.54 
   4 -11   2   15.23    1.56 
   4 -11   2   20.28    2.25 
   4 -11   2   17.84    1.30 
  -5  11  -2   59.55    2.67 
  -5  11  -2   57.80    2.51 
  -5  11  -2   58.62    2.22 
   5 -11   2   63.04    3.23 
   5 -11   2   59.25    2.88 
   5 -11   2   59.23    2.29 
  -6  11  -2  131.82    4.10 
  -6  11  -2  129.39    4.78 
  -6  11  -2  128.93    4.21 
   6 -11   2  135.15    4.06 
   6 -11   2  133.96    4.86 
   6 -11   2  128.14    4.37 
  -7  11  -2   79.14    3.37 
  -7  11  -2   86.18    4.07 
  -7  11  -2   84.77    3.05 
   7 -11   2   89.29    3.23 
   7 -11   2   84.53    3.35 
   7 -11   2   85.47    3.91 
  -8  11  -2   70.82    3.30 
  -8  11  -2   80.41    3.98 
   8 -11   2   71.97    3.06 
   8 -11   2   77.62    3.79 
   8 -11   2   72.36    2.99 
  -9  11  -2  104.58    4.53 
   9 -11   2   97.54    3.81 
   9 -11   2   98.81    4.40 
  10 -11   2   48.94    2.92 
   6  10  -2   14.90    1.50 
   6  10  -2   14.95    2.18 
  -6 -10   2   14.59    1.64 
   5  10  -2    4.50    1.16 
   5  10  -2    1.43    1.64 
  -5 -10   2    4.45    1.14 
  -5 -10   2    5.53    0.83 
   4  10  -2    1.76    1.37 
   4  10  -2    0.90    0.97 
  -4 -10   2   -0.46    0.95 
  -4 -10   2    0.73    0.84 
   3  10  -2    3.63    0.96 
   3  10  -2    4.79    1.43 
  -3 -10   2    4.10    0.95 
  -3 -10   2    4.91    1.63 
   2  10  -2   13.17    1.58 
   2  10  -2   14.40    1.57 
  -2 -10   2   14.74    1.66 
  -2 -10   2   17.10    1.51 
  -2 -10   2   11.13    1.51 
   1  10  -2   12.06    1.51 
  -1 -10   2   12.32    1.35 
  -1 -10   2   11.82    1.43 
   0  10  -2    5.47    1.19 
   0 -10   2    5.89    1.13 
   0 -10   2    6.48    0.96 
  -1  10  -2    0.28    0.96 
   1 -10   2    2.79    0.54 
   1 -10   2    1.87    1.12 
   1 -10   2    2.42    1.19 
  -2  10  -2   24.83    2.37 
  -2  10  -2   26.10    1.30 
   2 -10   2   28.78    2.13 
   2 -10   2   26.47    1.26 
   2 -10   2   27.90    2.23 
  -3  10  -2   67.24    2.75 
  -3  10  -2   62.97    2.23 
   3 -10   2   62.23    2.10 
   3 -10   2   66.44    3.00 
   3 -10   2   65.58    2.87 
  -4  10  -2  139.71    3.98 
  -4  10  -2  130.28    3.92 
  -4  10  -2  138.74    4.28 
   4 -10   2  134.31    3.88 
   4 -10   2  138.89    4.66 
   4 -10   2  142.60    4.41 
  -5  10  -2  181.17    5.12 
  -5  10  -2  182.25    5.18 
  -5  10  -2  176.09    4.85 
   5 -10   2  185.89    5.05 
   5 -10   2  187.55    5.39 
   5 -10   2  180.40    5.67 
  -6  10  -2  124.16    3.43 
  -6  10  -2  126.20    4.04 
  -6  10  -2  131.55    4.52 
  -6  10  -2  124.61    3.84 
   6 -10   2  127.82    3.92 
   6 -10   2  125.36    4.07 
   6 -10   2  126.47    4.51 
  -7  10  -2   61.47    2.40 
  -7  10  -2   62.03    2.84 
  -7  10  -2   64.68    3.35 
   7 -10   2   59.28    3.14 
   7 -10   2   59.24    2.59 
  -8  10  -2   33.37    2.93 
  -8  10  -2   29.86    2.40 
   8 -10   2   33.53    2.14 
   8 -10   2   36.79    2.74 
   8 -10   2   33.13    2.11 
  -9  10  -2   18.57    2.01 
   9 -10   2   19.98    1.78 
   9 -10   2   16.92    1.97 
   9 -10   2   19.92    2.57 
 -10  10  -2    1.09    1.63 
  10 -10   2    1.75    1.53 
  10 -10   2   -0.04    1.08 
 -11  10  -2    3.59    2.79 
  11 -10   2    6.96    1.51 
  11 -10   2    4.41    1.67 
   8   9  -2    0.34    1.44 
  -8  -9   2    2.85    1.29 
   7   9  -2    1.93    1.17 
   7   9  -2    1.49    1.67 
  -7  -9   2    1.62    1.17 
   6   9  -2    0.01    1.04 
   6   9  -2    2.36    1.47 
  -6  -9   2    1.05    1.03 
   5   9  -2   10.67    1.71 
   5   9  -2    8.99    1.17 
  -5  -9   2    8.99    1.53 
  -5  -9   2    9.10    1.09 
   4   9  -2   16.48    1.83 
   4   9  -2   22.27    1.70 
  -4  -9   2   20.06    1.39 
  -4  -9   2   21.27    1.63 
   3   9  -2    4.01    1.26 
   3   9  -2    5.36    0.92 
  -3  -9   2    2.40    1.08 
  -3  -9   2    4.43    0.89 
  -3  -9   2    3.56    0.89 
   2   9  -2    0.50    0.73 
   2   9  -2    0.29    1.03 
  -2  -9   2    0.92    0.73 
  -2  -9   2    0.50    0.75 
   1   9  -2   21.06    2.02 
  -1  -9   2   18.59    2.07 
  -1  -9   2   19.58    1.60 
  -1  -9   2   17.58    1.41 
   0   9  -2   52.27    2.94 
   0  -9   2   54.18    2.13 
   0  -9   2   50.96    2.57 
   0  -9   2   53.45    2.35 
  -1   9  -2   89.95    3.31 
   1  -9   2   87.62    2.91 
   1  -9   2   90.50    3.21 
   1  -9   2   89.88    2.46 
   1  -9   2   92.68    3.33 
  -2   9  -2  127.68    3.45 
  -2   9  -2  127.38    4.04 
   2  -9   2  126.07    3.38 
   2  -9   2  125.32    4.09 
   2  -9   2  128.96    4.08 
  -3   9  -2  137.26    3.86 
  -3   9  -2  139.62    4.24 
   3  -9   2  144.07    4.36 
   3  -9   2  139.84    4.48 
  -4   9  -2  178.08    5.40 
  -4   9  -2  194.94    5.33 
  -4   9  -2  184.88    5.02 
   4  -9   2  192.72    5.05 
   4  -9   2  193.56    5.43 
   4  -9   2  191.78    5.72 
  -5   9  -2   74.08    2.68 
  -5   9  -2   76.16    2.70 
  -5   9  -2   73.10    2.30 
   5  -9   2   77.29    3.16 
   5  -9   2   71.67    3.86 
   5  -9   2   75.23    2.54 
  -6   9  -2   26.15    1.63 
  -6   9  -2   26.63    1.15 
  -6   9  -2   29.25    1.87 
   6  -9   2   27.17    2.12 
   6  -9   2   26.40    1.69 
   6  -9   2   29.25    1.86 
  -7   9  -2    5.81    1.10 
  -7   9  -2    5.81    1.33 
   7  -9   2    5.92    0.98 
   7  -9   2    7.57    1.07 
   7  -9   2    7.01    1.28 
  -8   9  -2   -1.28    1.17 
  -8   9  -2   -1.18    0.98 
   8  -9   2    1.75    0.85 
   8  -9   2   -0.24    1.11 
   8  -9   2    0.79    0.93 
  -9   9  -2    2.48    1.41 
  -9   9  -2   -0.06    1.09 
   9  -9   2    2.33    1.05 
   9  -9   2    4.35    1.36 
 -10   9  -2    7.29    1.72 
  10  -9   2    9.09    1.65 
  10  -9   2    7.22    1.31 
  10  -9   2    6.75    0.89 
 -11   9  -2   -0.37    1.61 
  11  -9   2    0.65    1.12 
  11  -9   2    0.39    1.49 
  12  -9   2    2.07    1.59 
  12  -9   2    5.33    1.63 
   9   8  -2    3.22    1.89 
   9   8  -2   -0.06    1.54 
  -9  -8   2    4.33    1.41 
   8   8  -2    5.34    1.36 
   8   8  -2    5.28    1.86 
  -8  -8   2    7.34    1.31 
   7   8  -2   11.00    1.35 
   7   8  -2   10.88    1.74 
  -7  -8   2   15.08    1.80 
   6   8  -2   37.98    2.98 
   6   8  -2   39.36    2.14 
  -6  -8   2   38.05    2.44 
   5   8  -2   10.03    1.53 
   5   8  -2    8.76    1.05 
  -5  -8   2    8.33    0.98 
  -5  -8   2    8.05    1.11 
   4   8  -2    0.45    0.71 
   4   8  -2    0.67    1.01 
  -4  -8   2    0.50    0.59 
  -4  -8   2    1.27    0.80 
   3   8  -2   15.31    2.03 
   3   8  -2   14.07    1.32 
  -3  -8   2   12.54    1.20 
  -3  -8   2   10.89    1.09 
   2   8  -2   74.30    2.50 
  -2  -8   2   72.89    2.54 
  -2  -8   2   76.47    3.09 
  -2  -8   2   71.00    2.49 
   1   8  -2   93.87    3.38 
  -1  -8   2   88.14    2.84 
  -1  -8   2   91.21    2.99 
  -1  -8   2   90.83    3.31 
   0   8  -2  133.02    4.16 
   0  -8   2  129.23    3.96 
   0  -8   2  134.18    4.16 
   0  -8   2  129.95    3.76 
  -1   8  -2  167.42    4.82 
  -1   8  -2  162.58    4.14 
   1  -8   2  161.74    4.48 
   1  -8   2  166.88    4.81 
   1  -8   2  160.42    4.74 
   1  -8   2  161.99    4.10 
  -2   8  -2  104.14    3.37 
  -2   8  -2  103.11    2.88 
   2  -8   2  105.14    3.40 
   2  -8   2  103.10    2.82 
   2  -8   2  102.01    3.44 
  -3   8  -2   45.02    1.77 
  -3   8  -2   47.98    2.07 
   3  -8   2   46.75    2.22 
   3  -8   2   46.29    2.29 
   3  -8   2   47.79    1.68 
  -4   8  -2    4.81    0.76 
  -4   8  -2    5.02    0.85 
   4  -8   2    5.71    0.87 
   4  -8   2    5.23    0.99 
   4  -8   2    3.95    0.71 
  -5   8  -2   20.25    1.52 
  -5   8  -2   21.76    1.07 
  -5   8  -2   23.19    1.53 
   5  -8   2   20.60    1.38 
   5  -8   2   22.12    1.55 
   5  -8   2   20.68    1.87 
  -6   8  -2    9.68    1.04 
  -6   8  -2   13.77    1.32 
   6  -8   2   12.33    1.39 
   6  -8   2   10.79    1.05 
   6  -8   2   10.04    1.05 
  -7   8  -2   22.38    2.19 
  -7   8  -2   16.89    1.71 
   7  -8   2   21.09    1.89 
   7  -8   2   20.94    1.61 
   7  -8   2   20.29    1.55 
  -8   8  -2    3.38    1.03 
  -8   8  -2    4.39    1.26 
   8  -8   2    3.86    1.31 
   8  -8   2    3.19    1.10 
   8  -8   2    4.03    0.97 
  -9   8  -2    7.75    1.30 
  -9   8  -2    9.18    1.52 
   9  -8   2    7.99    1.39 
   9  -8   2    7.20    0.93 
   9  -8   2    8.14    1.16 
 -10   8  -2    2.20    1.44 
 -10   8  -2   -0.58    1.41 
  10  -8   2    0.58    1.15 
  10  -8   2   -0.56    0.77 
  10  -8   2   -0.48    0.94 
 -11   8  -2   12.74    1.86 
  11  -8   2   13.09    1.54 
  11  -8   2   13.42    1.75 
 -12   8  -2   44.57    3.56 
  12  -8   2   44.00    3.14 
  12  -8   2   38.50    2.64 
   9   7  -2    1.52    1.28 
   9   7  -2    2.21    1.57 
  -9  -7   2    2.16    1.12 
   8   7  -2   -0.02    1.14 
   8   7  -2    3.86    1.56 
  -8  -7   2    3.09    1.09 
   7   7  -2    3.69    1.34 
   7   7  -2    5.46    1.06 
  -7  -7   2    4.72    1.08 
   6   7  -2    3.82    1.25 
   6   7  -2    2.01    0.86 
  -6  -7   2    2.71    0.89 
   5   7  -2   15.41    1.44 
   5   7  -2   11.01    1.52 
  -5  -7   2   11.74    1.12 
  -5  -7   2   13.81    0.94 
   4   7  -2   85.08    2.78 
   4   7  -2   87.50    3.42 
  -4  -7   2   84.41    2.79 
  -4  -7   2   84.24    2.54 
   3   7  -2  192.22    5.15 
   3   7  -2  193.19    5.67 
  -3  -7   2  192.82    5.08 
  -3  -7   2  197.69    5.72 
  -3  -7   2  187.05    5.18 
   2   7  -2  156.44    4.69 
   2   7  -2  172.85    4.99 
  -2  -7   2  164.43    4.49 
  -2  -7   2  162.94    4.50 
  -2  -7   2  168.76    4.95 
   1   7  -2  201.04    5.61 
  -1  -7   2  199.40    5.59 
  -1  -7   2  197.81    5.19 
  -1  -7   2  190.98    5.28 
   0   7  -2  163.53    4.73 
   0  -7   2  164.67    4.40 
   0  -7   2  164.86    4.72 
   0  -7   2  160.24    4.56 
  -1   7  -2   67.09    2.46 
  -1   7  -2   64.61    1.85 
   1  -7   2   64.93    2.37 
   1  -7   2   62.59    1.80 
   1  -7   2   65.18    2.14 
   1  -7   2   62.90    2.44 
  -2   7  -2    1.64    0.65 
  -2   7  -2    1.76    0.45 
   2  -7   2    1.41    0.70 
   2  -7   2    2.47    0.69 
   2  -7   2    2.27    0.44 
  -3   7  -2    0.23    0.49 
  -3   7  -2    0.66    0.60 
   3  -7   2    0.70    0.65 
   3  -7   2   -0.51    0.43 
   3  -7   2    0.35    0.56 
  -4   7  -2   18.68    1.24 
  -4   7  -2   19.61    1.35 
   4  -7   2   20.48    1.37 
   4  -7   2   17.81    1.38 
   4  -7   2   18.40    1.51 
  -5   7  -2    4.97    0.72 
  -5   7  -2    6.86    0.68 
  -5   7  -2    5.46    1.10 
   5  -7   2    5.66    0.77 
   5  -7   2    8.32    1.48 
   5  -7   2    5.42    0.92 
  -6   7  -2   15.48    1.22 
  -6   7  -2   15.16    1.43 
   6  -7   2   12.69    1.31 
   6  -7   2   15.85    1.30 
   6  -7   2   15.71    1.62 
  -7   7  -2   42.75    3.95 
  -7   7  -2   48.28    2.21 
   7  -7   2   42.75    3.41 
   7  -7   2   53.56    1.97 
   7  -7   2   47.65    2.11 
  -8   7  -2   40.95    2.49 
  -8   7  -2   39.60    2.22 
   8  -7   2   40.03    2.07 
   8  -7   2   42.64    2.30 
   8  -7   2   40.85    1.81 
  -9   7  -2   11.73    1.47 
  -9   7  -2   11.47    1.33 
   9  -7   2   12.37    1.31 
   9  -7   2   13.29    1.57 
   9  -7   2   12.33    1.45 
 -10   7  -2   29.92    2.36 
 -10   7  -2   31.12    2.60 
  10  -7   2   32.96    2.36 
  10  -7   2   24.32    1.65 
  10  -7   2   33.30    2.06 
 -11   7  -2  100.60    4.09 
  11  -7   2   99.90    3.60 
  11  -7   2  102.30    3.89 
  11  -7   2   79.10    2.92 
 -12   7  -2   90.09    4.29 
  12  -7   2   82.92    3.80 
  12  -7   2   82.39    3.46 
 -13   7  -2   56.39    3.84 
  13  -7   2   53.83    2.99 
  13  -7   2   54.20    3.43 
  10   6  -2    6.49    1.85 
  10   6  -2    4.33    1.42 
 -10  -6   2    2.84    1.23 
   9   6  -2    2.40    1.23 
   9   6  -2    3.90    1.61 
  -9  -6   2    3.23    1.07 
   8   6  -2    8.93    1.20 
   8   6  -2    6.30    1.46 
  -8  -6   2    8.57    1.50 
   7   6  -2   44.73    2.25 
   7   6  -2   48.10    2.91 
  -7  -6   2   45.43    2.10 
   6   6  -2   77.16    3.34 
   6   6  -2   75.92    2.73 
  -6  -6   2   77.21    2.67 
   5   6  -2  106.16    3.22 
   5   6  -2  104.77    4.95 
  -5  -6   2  104.21    2.80 
  -5  -6   2  101.26    3.76 
  -5  -6   2  100.78    3.16 
   4   6  -2  160.57    4.89 
  -4  -6   2  159.85    4.38 
  -4  -6   2  154.53    4.12 
  -4  -6   2  159.95    4.83 
   3   6  -2  104.92    3.03 
   3   6  -2  101.74    3.48 
  -3  -6   2  105.44    3.47 
  -3  -6   2   98.47    2.90 
  -3  -6   2  102.31    3.02 
   2   6  -2   12.31    1.01 
   2   6  -2   12.68    1.42 
  -2  -6   2   12.35    1.40 
  -2  -6   2   10.91    1.00 
  -2  -6   2   12.53    1.05 
   1   6  -2   23.01    1.55 
  -1  -6   2   19.35    1.83 
  -1  -6   2   23.77    1.17 
  -1  -6   2   23.63    1.27 
   0   6  -2    2.13    0.63 
   0  -6   2    1.47    0.51 
   0  -6   2    1.11    0.60 
   0  -6   2    1.14    0.55 
  -1   6  -2    0.70    0.57 
  -1   6  -2    0.82    0.32 
   1  -6   2    0.11    0.52 
   1  -6   2    0.84    0.32 
   1  -6   2   -0.57    0.52 
   1  -6   2    0.27    0.46 
  -2   6  -2   61.53    1.85 
  -2   6  -2   57.64    2.12 
   2  -6   2   61.85    2.19 
   2  -6   2   61.61    1.80 
   2  -6   2   62.27    2.17 
  -3   6  -2    3.81    0.55 
  -3   6  -2    3.57    0.62 
   3  -6   2    4.54    0.77 
   3  -6   2    3.61    0.55 
   3  -6   2    3.98    0.63 
  -4   6  -2   21.40    1.22 
  -4   6  -2   22.64    1.27 
   4  -6   2   23.85    1.20 
   4  -6   2   23.40    1.27 
   4  -6   2   22.46    1.45 
  -5   6  -2    1.61    0.33 
  -5   6  -2    1.40    0.60 
  -5   6  -2    1.73    0.51 
   5  -6   2    0.85    0.56 
   5  -6   2    1.54    0.54 
   5  -6   2    0.48    0.64 
  -6   6  -2   70.81    2.65 
  -6   6  -2   66.86    2.53 
  -6   6  -2   66.61    2.43 
   6  -6   2   64.03    2.33 
   6  -6   2   68.03    2.24 
   6  -6   2   68.17    2.57 
  -7   6  -2  102.87    3.40 
  -7   6  -2  102.17    3.32 
  -7   6  -2  101.09    3.56 
   7  -6   2  105.13    3.03 
   7  -6   2  100.93    3.44 
   7  -6   2   99.80    3.23 
  -8   6  -2  111.84    3.69 
  -8   6  -2  106.71    4.49 
  -8   6  -2  116.39    3.76 
   8  -6   2  117.81    3.31 
   8  -6   2  112.99    3.60 
   8  -6   2  113.76    3.78 
  -9   6  -2   71.33    3.07 
  -9   6  -2   71.19    2.90 
   9  -6   2   68.82    2.76 
   9  -6   2   70.76    2.95 
   9  -6   2   71.89    2.37 
 -10   6  -2  111.49    3.97 
  10  -6   2  106.03    3.64 
  10  -6   2  103.85    3.19 
  10  -6   2  108.32    3.86 
 -11   6  -2   82.55    3.65 
  11  -6   2   65.58    2.58 
  11  -6   2   83.86    3.13 
  11  -6   2   80.70    3.33 
 -12   6  -2   37.34    3.13 
  12  -6   2   35.20    2.24 
  12  -6   2   38.06    2.66 
  12  -6   2   29.62    1.78 
 -13   6  -2    2.48    1.79 
  13  -6   2    4.83    1.27 
  13  -6   2    4.26    1.52 
  11   5  -2   -0.87    1.45 
  11   5  -2    2.21    1.74 
  10   5  -2   11.28    1.93 
  10   5  -2   10.64    1.51 
 -10  -5   2   10.12    1.06 
   9   5  -2   46.88    3.10 
   9   5  -2   42.17    2.54 
  -9  -5   2   48.54    1.94 
  -9  -5   2   43.45    1.85 
   8   5  -2   71.41    2.83 
   8   5  -2   71.47    3.40 
   7   5  -2   87.46    3.59 
   7   5  -2   89.51    3.07 
  -7  -5   2   86.09    2.93 
   6   5  -2  126.07    4.88 
   6   5  -2  135.57    3.86 
  -6  -5   2  129.80    3.81 
   5   5  -2   75.98    3.03 
   5   5  -2   74.06    2.48 
  -5  -5   2   72.62    2.09 
  -5  -5   2   77.69    2.46 
  -5  -5   2   72.84    2.93 
   4   5  -2   27.74    1.86 
   4   5  -2   29.76    1.44 
  -4  -5   2   28.87    1.38 
  -4  -5   2   29.19    1.17 
  -4  -5   2   29.97    1.87 
   3   5  -2    0.67    0.48 
   3   5  -2    0.92    0.64 
  -3  -5   2    0.86    0.66 
  -3  -5   2    0.82    0.52 
  -3  -5   2    0.86    0.44 
   2   5  -2    9.18    1.20 
   2   5  -2   10.13    0.90 
  -2  -5   2    8.61    0.85 
  -2  -5   2    8.58    0.85 
  -2  -5   2    8.80    1.19 
   1   5  -2   18.69    1.35 
  -1  -5   2   17.12    1.30 
  -1  -5   2   18.69    1.08 
  -1  -5   2   18.38    0.97 
   0   5  -2   83.99    2.68 
   0  -5   2   85.67    2.54 
   0  -5   2   83.69    2.39 
   0  -5   2   82.44    2.65 
  -1   5  -2   23.43    1.34 
  -1   5  -2   23.28    0.90 
   1  -5   2   24.65    1.07 
   1  -5   2   23.09    1.29 
   1  -5   2   24.38    1.23 
   1  -5   2   23.84    0.87 
  -2   5  -2    6.79    0.69 
  -2   5  -2    7.44    0.97 
   2  -5   2    6.79    0.77 
   2  -5   2    7.54    0.68 
   2  -5   2    5.18    0.65 
  -3   5  -2   28.65    1.32 
  -3   5  -2   28.87    1.21 
   3  -5   2   29.23    1.17 
   3  -5   2   27.88    1.30 
   3  -5   2   28.17    1.40 
  -4   5  -2   25.31    1.19 
  -4   5  -2   22.93    1.42 
   4  -5   2   24.59    1.20 
   4  -5   2   27.15    1.21 
   4  -5   2   23.59    1.39 
  -5   5  -2  144.97    4.04 
  -5   5  -2  142.84    3.91 
  -5   5  -2  141.20    3.73 
   5  -5   2  128.34    4.07 
   5  -5   2  142.38    3.78 
   5  -5   2  142.75    4.05 
  -6   5  -2  244.36    6.65 
  -6   5  -2  249.53    6.65 
   6  -5   2  249.13    6.62 
   6  -5   2  247.25    6.45 
   6  -5   2  255.25    6.29 
  -7   5  -2  242.96    6.46 
  -7   5  -2  233.07    6.52 
   7  -5   2  248.76    6.10 
   7  -5   2  234.40    6.36 
   7  -5   2  238.76    6.48 
  -8   5  -2  200.51    5.64 
  -8   5  -2  199.10    5.72 
  -8   5  -2  202.98    5.65 
   8  -5   2  208.52    5.26 
   8  -5   2  202.03    5.68 
   8  -5   2  199.36    5.56 
  -9   5  -2  125.51    4.97 
  -9   5  -2  138.42    4.31 
   9  -5   2  136.95    4.30 
   9  -5   2  144.00    3.82 
   9  -5   2  136.53    4.16 
 -10   5  -2   45.09    2.62 
  10  -5   2   45.79    2.25 
  10  -5   2   47.84    1.89 
 -11   5  -2    9.41    1.52 
  11  -5   2    9.93    1.35 
  11  -5   2    9.67    1.32 
  11  -5   2    8.68    1.22 
 -12   5  -2   -2.34    1.32 
  12  -5   2   -0.85    1.08 
  12  -5   2   -0.95    0.86 
 -13   5  -2    1.93    1.68 
  13  -5   2    4.52    1.15 
  13  -5   2    4.54    1.38 
  13  -5   2    5.29    0.90 
 -14   5  -2   -3.49    1.71 
  14  -5   2   -1.28    2.04 
  11   4  -2   27.69    2.77 
  11   4  -2   38.69    3.36 
 -11  -4   2   40.95    2.65 
  10   4  -2   54.91    2.10 
  10   4  -2   52.76    2.86 
  10   4  -2   53.27    3.27 
 -10  -4   2   55.39    2.68 
   9   4  -2  104.78    4.09 
   9   4  -2   97.41    3.01 
   9   4  -2  101.18    3.58 
  -9  -4   2  104.41    3.13 
   8   4  -2  102.54    2.94 
   8   4  -2  104.80    3.49 
   8   4  -2  106.11    3.96 
  -8  -4   2  103.44    3.06 
  -8  -4   2  105.61    3.38 
   7   4  -2   26.32    1.22 
   7   4  -2   28.17    2.20 
   7   4  -2   26.52    1.73 
  -7  -4   2   28.05    1.30 
  -7  -4   2   27.51    1.65 
   6   4  -2   35.04    2.15 
   6   4  -2   32.56    1.21 
   6   4  -2   32.01    1.96 
  -6  -4   2   32.10    1.30 
  -6  -4   2   35.59    1.64 
   5   4  -2    5.96    0.97 
   5   4  -2    7.14    0.81 
  -5  -4   2    7.27    0.97 
   4   4  -2    1.99    0.54 
   4   4  -2    2.40    0.76 
  -4  -4   2    1.41    0.82 
  -4  -4   2    2.42    0.54 
   3   4  -2   19.47    1.63 
   3   4  -2   19.52    1.41 
  -3  -4   2   20.97    1.04 
   2   4  -2   76.04    2.56 
   2   4  -2   77.47    2.26 
  -2  -4   2   78.29    2.24 
  -2  -4   2   76.45    2.53 
   1   4  -2   22.16    1.32 
  -1  -4   2   22.49    1.32 
  -1  -4   2   23.95    1.08 
   0   4  -2   20.34    1.20 
   0   4  -2   20.43    0.74 
   0  -4   2   20.69    1.21 
   0  -4   2   21.48    1.07 
   0  -4   2   21.05    0.94 
  -1   4  -2    3.14    0.35 
  -1   4  -2    3.06    0.55 
   1  -4   2    2.73    0.55 
   1  -4   2    2.75    0.55 
   1  -4   2    3.35    0.46 
   1  -4   2    3.49    0.37 
  -2   4  -2   55.83    1.68 
  -2   4  -2   54.90    1.85 
   2  -4   2   57.54    1.90 
   2  -4   2   56.27    1.85 
   2  -4   2   57.81    1.66 
  -3   4  -2  273.26    6.84 
  -3   4  -2  271.09    6.81 
   3  -4   2  281.46    6.99 
   3  -4   2  281.13    6.79 
   3  -4   2  272.31    6.85 
  -4   4  -2  219.99    5.56 
  -4   4  -2  219.28    5.66 
   4  -4   2  220.50    5.77 
   4  -4   2  222.24    5.59 
   4  -4   2  229.57    5.64 
  -5   4  -2  269.33    6.83 
   5  -4   2  264.09    6.59 
   5  -4   2  262.86    6.85 
   5  -4   2  266.28    6.71 
  -6   4  -2  126.14    3.79 
  -6   4  -2  127.98    3.71 
   6  -4   2  125.66    3.71 
   6  -4   2  129.89    3.62 
   6  -4   2  131.09    3.44 
  -7   4  -2   78.27    3.05 
  -7   4  -2   80.86    2.80 
   7  -4   2   82.56    2.76 
   7  -4   2   85.18    2.42 
   7  -4   2   81.54    2.64 
  -8   4  -2   45.21    2.02 
  -8   4  -2   46.36    2.17 
   8  -4   2   45.16    2.04 
   8  -4   2   47.42    1.69 
   8  -4   2   49.26    2.00 
  -9   4  -2    4.99    1.00 
   9  -4   2    3.78    0.93 
   9  -4   2    4.65    0.67 
   9  -4   2    4.24    0.85 
  10  -4   2    4.23    0.73 
  10  -4   2    4.02    0.97 
  10  -4   2    2.98    0.92 
 -11   4  -2    6.26    1.28 
  11  -4   2    7.06    1.10 
  11  -4   2    5.62    0.93 
  11  -4   2    7.92    1.21 
 -12   4  -2    1.96    1.41 
  12  -4   2    4.94    1.17 
  12  -4   2    4.76    1.08 
  12  -4   2    3.90    0.87 
 -13   4  -2    5.95    1.65 
  13  -4   2    4.89    1.14 
  13  -4   2    7.15    1.06 
  13  -4   2    6.79    1.00 
 -14   4  -2   -1.65    1.72 
  14  -4   2    0.25    1.02 
  12   3  -2   43.34    3.65 
  12   3  -2   41.58    3.18 
  12   3  -2   49.07    2.33 
 -12  -3   2   49.58    3.06 
  11   3  -2   48.26    3.02 
  11   3  -2   52.08    2.32 
  11   3  -2   51.27    3.29 
 -11  -3   2   53.15    2.77 
 -11  -3   2   51.30    2.49 
  10   3  -2   52.16    2.75 
  10   3  -2   57.37    2.43 
  10   3  -2   59.11    3.17 
 -10  -3   2   56.37    2.64 
 -10  -3   2   54.64    2.35 
   9   3  -2   24.62    1.99 
   9   3  -2   28.65    2.41 
   9   3  -2   29.08    1.57 
  -9  -3   2   31.93    1.98 
  -9  -3   2   31.51    1.68 
   8   3  -2    6.70    0.78 
   8   3  -2    6.22    1.20 
   8   3  -2    5.49    1.03 
  -8  -3   2    6.17    0.95 
   7   3  -2    5.82    0.89 
   7   3  -2    6.64    0.67 
   7   3  -2    3.88    1.02 
  -7  -3   2    6.57    0.88 
   6   3  -2    0.50    0.78 
   6   3  -2    0.57    0.46 
   6   3  -2    1.00    0.63 
  -6  -3   2    0.22    0.61 
   5   3  -2   13.79    0.80 
   5   3  -2   13.61    1.11 
   5   3  -2   13.60    1.43 
  -5  -3   2   15.58    1.09 
  -5  -3   2   13.34    1.34 
   4   3  -2    8.84    1.07 
   4   3  -2    8.68    1.17 
   4   3  -2    7.51    0.54 
  -4  -3   2    8.88    0.87 
  -4  -3   2    6.25    0.76 
  -4  -3   2    7.94    0.65 
   3   3  -2    4.29    0.71 
   3   3  -2    4.25    0.55 
  -3  -3   2    4.19    0.52 
  -3  -3   2    4.25    0.81 
   2   3  -2    2.60    0.47 
   2   3  -2    3.42    0.62 
  -2  -3   2    3.45    0.46 
  -2  -3   2    3.32    0.59 
   1   3  -2   80.56    2.27 
   1   3  -2   82.84    2.49 
  -1  -3   2   84.04    2.23 
  -1  -3   2   81.28    2.48 
   0   3  -2   95.58    2.76 
   0   3  -2   96.20    2.45 
   0  -3   2   95.78    2.76 
   0  -3   2   99.57    2.54 
   0  -3   2  100.83    2.44 
  -1   3  -2  184.91    4.76 
  -1   3  -2  185.54    4.55 
   1  -3   2  192.01    4.60 
   1  -3   2  192.97    4.74 
   1  -3   2  178.29    4.74 
  -2   3  -2  478.88   11.45 
  -2   3  -2  473.00   11.35 
   2  -3   2  478.17   11.45 
   2  -3   2  475.56   11.51 
  -3   3  -2  321.56    7.84 
  -3   3  -2  325.36    7.83 
   3  -3   2  319.68    7.94 
   3  -3   2  320.90    7.84 
  -4   3  -2  202.80    5.03 
  -4   3  -2  201.49    5.15 
   4  -3   2  199.10    5.04 
   4  -3   2  203.07    5.21 
  -5   3  -2   67.85    2.23 
   5  -3   2   70.19    2.25 
   5  -3   2   70.58    2.03 
  -6   3  -2    6.17    0.72 
  -6   3  -2    5.44    0.75 
   6  -3   2    5.63    0.75 
   6  -3   2    7.63    0.92 
   6  -3   2    4.67    0.69 
  -7   3  -2    2.49    0.63 
  -7   3  -2    1.97    0.67 
   7  -3   2    1.58    0.46 
   7  -3   2    1.30    0.58 
   7  -3   2    2.18    0.61 
  -8   3  -2    2.13    0.76 
  -8   3  -2    2.87    0.74 
  -8   3  -2    4.38    0.75 
   8  -3   2    3.22    0.56 
   8  -3   2    2.38    0.70 
   8  -3   2    3.21    0.73 
  -9   3  -2   16.62    1.70 
  -9   3  -2   14.16    1.59 
   9  -3   2   16.37    1.45 
   9  -3   2   16.01    1.38 
   9  -3   2   15.93    1.17 
 -10   3  -2    6.02    1.04 
 -10   3  -2    5.05    1.11 
  10  -3   2    5.99    0.98 
  10  -3   2    7.00    0.99 
 -11   3  -2    4.81    1.26 
 -11   3  -2    0.15    1.27 
  11  -3   2    4.51    1.00 
  11  -3   2    4.31    0.99 
  11  -3   2    3.77    0.78 
 -12   3  -2    3.19    1.14 
 -12   3  -2    2.80    1.33 
  12  -3   2    4.66    1.07 
  12  -3   2    4.11    0.97 
  12  -3   2    4.74    0.88 
 -13   3  -2   15.01    1.87 
  13  -3   2   16.94    1.73 
  13  -3   2   16.53    1.55 
  13  -3   2   17.86    1.98 
 -14   3  -2   20.93    2.26 
  14  -3   2   22.29    2.12 
  14  -3   2   20.78    2.17 
  12   2  -2   41.49    2.27 
  12   2  -2   33.07    2.96 
  12   2  -2   36.74    3.27 
 -12  -2   2   43.11    2.82 
  11   2  -2   20.58    2.62 
  11   2  -2   23.39    1.77 
  11   2  -2   18.76    2.35 
 -11  -2   2   22.22    2.23 
 -11  -2   2   21.64    2.02 
  10   2  -2    6.60    1.31 
  10   2  -2    7.14    0.96 
  10   2  -2    3.81    1.16 
 -10  -2   2    5.54    1.13 
   9   2  -2    0.32    0.97 
   9   2  -2    0.27    0.70 
   9   2  -2   -0.45    0.86 
  -9  -2   2   -0.47    0.85 
   8   2  -2    9.63    1.14 
   8   2  -2    9.82    1.21 
   8   2  -2    8.29    1.08 
  -8  -2   2    8.77    1.01 
   7   2  -2    4.63    0.95 
   7   2  -2    4.38    0.66 
   7   2  -2    3.80    1.50 
  -7  -2   2    4.84    0.82 
  -7  -2   2    5.23    0.68 
   6   2  -2    1.55    0.59 
   6   2  -2    1.05    0.47 
   6   2  -2    1.01    0.70 
  -6  -2   2    0.60    0.59 
  -6  -2   2    0.49    0.36 
   5   2  -2    3.95    0.63 
   5   2  -2    4.82    0.50 
   5   2  -2    4.47    0.75 
  -5  -2   2    3.84    0.71 
  -5  -2   2    4.40    0.63 
   4   2  -2   39.49    1.22 
   4   2  -2   40.82    1.72 
   4   2  -2   38.65    1.49 
  -4  -2   2   36.86    1.85 
  -4  -2   2   40.79    1.48 
   3   2  -2  148.30    4.09 
   3   2  -2  152.15    3.92 
   3   2  -2  148.76    3.65 
  -3  -2   2  150.80    3.89 
  -3  -2   2  148.77    4.06 
   2   2  -2  250.65    6.14 
   2   2  -2  248.47    6.31 
  -2  -2   2  252.49    5.99 
  -2  -2   2  249.13    6.30 
  -2  -2   2  248.00    6.12 
   1   2  -2  257.89    6.37 
   1   2  -2  255.80    6.07 
   1   2  -2  256.96    6.22 
  -1  -2   2  262.14    6.25 
  -1  -2   2  243.68    6.09 
   0   2  -2   37.13    1.08 
   0  -2   2   38.60    1.11 
   0  -2   2   37.71    1.05 
  -1   2  -2  417.72   10.15 
  -1   2  -2  421.70   10.02 
   1  -2   2  422.70   10.16 
   1  -2   2  429.51   10.02 
  -2   2  -2  282.22    6.79 
  -2   2  -2  280.23    6.84 
   2  -2   2  283.19    6.87 
   2  -2   2  278.89    6.83 
  -3   2  -2   32.95    1.12 
  -3   2  -2   31.80    1.16 
   3  -2   2   32.47    1.22 
   3  -2   2   32.85    1.12 
  -4   2  -2   20.22    1.01 
   4  -2   2   20.88    0.90 
   4  -2   2   20.80    1.00 
  -5   2  -2   51.65    1.83 
   5  -2   2   51.70    1.61 
   5  -2   2   52.50    1.76 
  -6   2  -2    4.59    0.66 
  -6   2  -2    4.98    0.62 
  -6   2  -2    4.46    0.63 
   6  -2   2    4.97    0.63 
  -7   2  -2   14.84    1.21 
  -7   2  -2   13.02    1.19 
   7  -2   2   15.38    1.08 
   7  -2   2   14.37    1.10 
  -8   2  -2   31.27    1.67 
  -8   2  -2   28.68    1.65 
   8  -2   2   29.03    1.74 
   8  -2   2   31.90    1.52 
  -9   2  -2    0.32    0.72 
  -9   2  -2   -0.54    0.77 
   9  -2   2    0.06    0.65 
   9  -2   2    0.00    0.63 
 -10   2  -2    5.95    1.06 
 -10   2  -2    6.09    1.11 
  10  -2   2    7.95    1.00 
  10  -2   2    8.14    0.99 
  10  -2   2    8.33    0.75 
 -11   2  -2   53.23    2.75 
  11  -2   2   57.37    2.41 
  11  -2   2   55.07    2.30 
  11  -2   2   53.81    1.74 
 -12   2  -2   56.58    2.89 
 -12   2  -2   55.05    2.84 
  12  -2   2   59.96    2.57 
  12  -2   2   57.87    2.54 
 -13   2  -2   59.41    3.18 
  13  -2   2   53.97    2.76 
  13  -2   2   57.31    2.66 
 -14   2  -2   79.66    3.97 
  14  -2   2   81.01    3.41 
  14  -2   2   80.02    3.29 
  12   1  -2   -3.08    1.35 
  12   1  -2    0.96    0.99 
  12   1  -2    1.28    1.39 
 -12  -1   2   -1.63    1.30 
 -12  -1   2    1.43    1.19 
  11   1  -2    1.61    0.93 
  11   1  -2    0.67    1.18 
  11   1  -2    0.72    1.17 
 -11  -1   2    2.89    1.19 
  10   1  -2   -0.39    0.99 
  10   1  -2    1.55    0.80 
  10   1  -2    2.08    1.07 
 -10  -1   2    1.72    0.55 
 -10  -1   2    0.66    1.00 
   9   1  -2    8.06    1.13 
   9   1  -2    7.01    1.13 
  -9  -1   2    7.16    0.87 
  -9  -1   2    6.37    1.09 
   8   1  -2    0.51    0.83 
   8   1  -2    1.29    0.80 
   8   1  -2    1.07    0.66 
  -8  -1   2    1.39    0.81 
  -8  -1   2    0.77    0.48 
   7   1  -2    0.45    0.68 
   7   1  -2    0.32    0.56 
   7   1  -2   -0.08    0.87 
  -7  -1   2    0.73    0.43 
  -7  -1   2    0.96    0.67 
   6   1  -2   10.13    1.21 
   6   1  -2   10.56    0.90 
   6   1  -2   11.18    1.13 
  -6  -1   2    9.59    0.74 
  -6  -1   2   11.17    1.15 
   5   1  -2   51.75    1.62 
   5   1  -2   49.60    1.92 
  -5  -1   2   50.70    1.82 
   4   1  -2  304.62    7.69 
   4   1  -2  308.87    7.40 
   4   1  -2  311.73    7.61 
  -4  -1   2  310.68    7.58 
  -4  -1   2  296.22    7.65 
   3   1  -2  442.47   10.68 
   3   1  -2  458.62   10.51 
   3   1  -2  436.63   10.77 
  -3  -1   2  435.09   10.75 
  -3  -1   2  442.42   10.66 
   2   1  -2  282.13    6.44 
   2   1  -2  268.84    6.69 
   2   1  -2  269.80    6.60 
  -2  -1   2  265.30    6.51 
  -2  -1   2  268.98    6.58 
  -2  -1   2  268.15    6.68 
   1   1  -2  217.05    5.28 
  -1  -1   2  215.90    5.36 
  -1  -1   2  216.75    5.20 
  -1  -1   2  215.16    5.27 
   0   1  -2    6.46    0.54 
   0   1  -2    6.50    0.76 
   0   1  -2    5.80    0.40 
   0   1  -2    5.35    0.57 
   0  -1   2    6.52    0.41 
   0  -1   2    7.43    0.73 
   0  -1   2    6.26    0.53 
  -1   1  -2   97.51    2.28 
  -1   1  -2   91.60    2.44 
  -1   1  -2   89.00    2.33 
   1  -1   2   91.42    2.34 
   1  -1   2   90.56    2.43 
  -2   1  -2   18.35    0.81 
  -2   1  -2   17.73    0.84 
   2  -1   2   18.29    0.81 
   2  -1   2   17.74    0.83 
  -3   1  -2  169.93    4.20 
  -3   1  -2  160.30    4.01 
   3  -1   2  169.93    4.19 
   3  -1   2  169.20    4.15 
  -4   1  -2   52.43    1.66 
   4  -1   2   52.79    1.37 
   4  -1   2   54.63    1.63 
  -5   1  -2   37.81    1.39 
  -5   1  -2   34.41    1.39 
   5  -1   2   34.76    1.29 
   5  -1   2   34.62    1.02 
  -6   1  -2   76.13    3.11 
  -6   1  -2   76.16    2.30 
   6  -1   2   73.62    2.23 
   6  -1   2   71.95    1.97 
  -7   1  -2    4.60    0.69 
  -7   1  -2    3.91    0.66 
   7  -1   2    4.01    0.55 
   7  -1   2    3.83    0.59 
  -8   1  -2    6.09    0.84 
  -8   1  -2    5.95    0.93 
   8  -1   2    8.10    0.70 
   8  -1   2    7.28    0.78 
   8  -1   2    8.34    0.99 
  -9   1  -2   64.61    2.47 
  -9   1  -2   64.63    2.44 
   9  -1   2   62.79    2.19 
   9  -1   2   61.51    1.94 
   9  -1   2   62.61    2.29 
 -10   1  -2   91.24    3.16 
 -10   1  -2   87.39    3.10 
  10  -1   2   89.24    2.83 
  10  -1   2   86.29    2.59 
  10  -1   2   87.17    2.95 
 -11   1  -2  176.95    5.10 
 -11   1  -2  175.45    5.57 
  11  -1   2  167.03    4.92 
  11  -1   2  163.84    4.52 
 -12   1  -2   78.58    3.19 
  12  -1   2   74.99    2.90 
  12  -1   2   73.51    2.90 
  12  -1   2   75.32    3.02 
 -13   1  -2   48.89    3.01 
  13  -1   2   51.10    2.08 
  13  -1   2   51.72    2.51 
  13  -1   2   53.08    2.76 
 -14   1  -2   32.02    3.04 
  14  -1   2   39.39    2.71 
  14  -1   2   32.17    2.29 
  13   0  -2    2.17    1.54 
  13   0  -2    0.64    1.05 
 -13   0   2    1.49    1.58 
  12   0  -2    3.56    1.07 
  12   0  -2    1.54    1.33 
  12   0  -2    3.51    1.37 
 -12   0   2    2.54    1.41 
  11   0  -2    4.63    1.31 
  11   0  -2    7.46    1.29 
  11   0  -2    9.01    1.11 
 -11   0   2    7.92    1.37 
 -11   0   2    7.40    1.31 
  10   0  -2    0.27    0.98 
  10   0  -2    0.93    0.81 
  10   0  -2   -0.16    0.95 
 -10   0   2    1.02    0.72 
 -10   0   2    0.43    0.99 
   9   0  -2    2.79    0.93 
   9   0  -2    3.40    0.82 
   9   0  -2    3.92    0.97 
  -9   0   2    4.09    0.98 
  -9   0   2    4.64    0.69 
   8   0  -2   23.42    1.66 
   8   0  -2   19.40    1.39 
   8   0  -2   21.78    1.64 
  -8   0   2   20.13    1.18 
  -8   0   2   22.83    1.73 
   7   0  -2   34.88    2.03 
   7   0  -2   37.15    1.58 
   7   0  -2   38.48    1.79 
  -7   0   2   38.46    1.83 
  -7   0   2   38.23    1.43 
   6   0  -2  162.10    4.36 
   6   0  -2  157.29    4.13 
   6   0  -2  156.97    4.30 
  -6   0   2  154.49    4.06 
  -6   0   2  152.52    4.29 
   5   0  -2  101.31    3.30 
   5   0  -2  107.39    3.04 
   5   0  -2  110.96    2.89 
  -5   0   2  103.90    3.04 
  -5   0   2  104.29    2.83 
   4   0  -2  382.34    9.31 
   4   0  -2  396.36    9.18 
   4   0  -2  382.97    9.34 
  -4   0   2  377.09    9.30 
  -4   0   2  365.67    9.27 
   3   0  -2   87.31    2.44 
   3   0  -2   89.94    2.30 
   3   0  -2   87.68    2.45 
  -3   0   2   83.92    2.41 
  -3   0   2   87.30    2.44 
   2   0  -2    1.16    0.27 
   2   0  -2    1.11    0.35 
   2   0  -2    1.51    0.38 
  -2   0   2    0.97    0.34 
  -2   0   2    1.04    0.36 
   1   0  -2  297.54    7.06 
   1   0  -2  291.21    7.07 
   1   0  -2  307.60    6.96 
  -1   0   2  285.70    7.04 
  -1   0   2  291.62    7.02 
  -1   0   2  285.94    7.06 
   0   0  -2   19.14    0.77 
   0   0  -2   19.95    0.61 
   0   0  -2   17.61    0.71 
   0   0  -2   18.07    0.69 
   0   0   2   18.38    0.73 
   0   0   2   19.01    0.77 
  -1   0  -2  180.55    4.43 
  -1   0  -2  182.35    4.43 
   1   0   2  187.56    4.41 
   1   0   2  180.10    4.43 
  -2   0  -2    0.99    0.31 
  -2   0  -2    0.48    0.27 
   2   0   2    0.78    0.30 
   2   0   2    0.28    0.27 
  -3   0  -2    2.55    0.30 
  -3   0  -2    2.50    0.37 
   3   0   2    2.41    0.29 
   3   0   2    1.88    0.34 
  -4   0  -2    0.71    0.33 
  -4   0  -2    1.01    0.35 
   4   0   2    0.38    0.31 
   4   0   2    0.85    0.27 
  -5   0  -2   74.37    2.20 
  -5   0  -2   72.14    2.11 
   5   0   2   73.52    2.00 
   5   0   2   73.30    2.05 
  -6   0  -2   67.20    2.08 
  -6   0  -2   66.25    2.14 
   6   0   2   65.48    1.95 
   6   0   2   67.51    1.92 
  -7   0  -2  131.58    3.68 
  -7   0  -2  130.72    3.60 
   7   0   2  128.00    3.46 
  -8   0  -2  107.42    3.26 
  -8   0  -2  107.48    3.18 
   8   0   2  106.12    2.99 
  -9   0  -2  161.12    4.52 
  -9   0  -2  166.57    4.63 
   9   0   2  156.74    4.53 
   9   0   2  161.81    4.31 
 -10   0  -2  124.42    3.85 
 -10   0  -2  128.16    3.96 
  10   0   2  123.82    3.76 
 -11   0  -2  127.30    3.93 
 -11   0  -2  122.12    3.98 
  11   0   2  121.37    3.93 
  11   0   2  115.37    3.53 
  11   0   2  120.32    3.77 
 -12   0  -2   23.04    2.51 
  12   0   2   27.76    2.22 
  12   0   2   25.25    1.86 
  12   0   2   27.14    1.66 
 -13   0  -2    4.08    1.22 
 -13   0  -2    5.14    1.37 
  13   0   2    4.02    1.53 
  13   0   2    5.72    1.12 
  13   0   2    4.59    1.06 
 -14   0  -2   -2.98    1.43 
  14   0   2    0.26    1.31 
  14   0   2    0.32    0.99 
  13  -1  -2    2.69    1.09 
  13  -1  -2    3.01    1.96 
 -13   1   2    2.86    1.63 
  12  -1  -2    0.48    0.94 
  12  -1  -2   -0.07    1.30 
  12  -1  -2   -0.43    1.14 
 -12   1   2    0.78    1.33 
  11  -1  -2    7.23    1.15 
  11  -1  -2    6.54    1.29 
  11  -1  -2    5.32    1.05 
 -11   1   2    6.54    0.94 
 -11   1   2    5.32    1.26 
  10  -1  -2   66.42    2.65 
  10  -1  -2   58.04    2.81 
  10  -1  -2   60.28    2.48 
 -10   1   2   63.04    2.84 
 -10   1   2   60.82    2.22 
   9  -1  -2   87.75    2.99 
   9  -1  -2   89.96    3.17 
   9  -1  -2   83.38    2.90 
  -9   1   2   88.18    3.22 
  -9   1   2   85.61    2.73 
   8  -1  -2  114.74    3.66 
   8  -1  -2  118.79    3.55 
   8  -1  -2  117.79    3.49 
  -8   1   2  118.86    3.68 
  -8   1   2  109.83    3.35 
   7  -1  -2   98.64    4.36 
   7  -1  -2  117.34    3.33 
   7  -1  -2  119.88    3.36 
  -7   1   2  117.97    3.26 
  -7   1   2  120.09    3.53 
   6  -1  -2  145.69    4.13 
   6  -1  -2  147.08    3.96 
   6  -1  -2  148.80    3.98 
  -6   1   2  149.01    4.13 
  -6   1   2  146.98    3.93 
   5  -1  -2   41.75    1.50 
   5  -1  -2   43.15    1.50 
  -5   1   2   40.38    1.45 
  -5   1   2   42.83    1.68 
   4  -1  -2   15.50    0.89 
   4  -1  -2   15.62    1.04 
   4  -1  -2   16.21    0.88 
  -4   1   2   15.45    1.05 
  -4   1   2   15.53    0.87 
   3  -1  -2    8.57    0.64 
   3  -1  -2    9.13    0.79 
   3  -1  -2    9.39    0.64 
  -3   1   2    8.61    0.60 
  -3   1   2    8.93    0.79 
   2  -1  -2   72.06    1.88 
   2  -1  -2   68.43    1.86 
   2  -1  -2   71.57    2.01 
  -2   1   2   68.29    1.98 
  -2   1   2   68.37    1.85 
   1  -1  -2  198.56    4.85 
   1  -1  -2  192.05    4.75 
   1  -1  -2  205.27    4.77 
  -1   1   2  194.65    4.75 
   0  -1  -2   52.85    1.43 
   0  -1  -2   49.41    1.35 
   0   1   2   50.86    1.34 
   0   1   2   53.54    1.23 
   0   1   2   46.92    1.34 
  -1  -1  -2   34.59    1.05 
  -1  -1  -2   28.66    0.91 
   1   1   2   24.58    0.90 
   1   1   2   29.42    0.79 
   1   1   2   34.32    0.93 
  -2  -1  -2    1.99    0.33 
   2   1   2    1.62    0.32 
   2   1   2    2.58    0.32 
  -3  -1  -2    0.73    0.26 
  -3  -1  -2    0.30    0.30 
   3   1   2    0.83    0.32 
   3   1   2    0.64    0.31 
  -4  -1  -2  196.60    4.87 
  -4  -1  -2  196.95    4.78 
   4   1   2  194.57    4.74 
   4   1   2  193.99    4.84 
  -5  -1  -2  318.84    7.70 
  -5  -1  -2  310.68    7.60 
   5   1   2  313.46    7.52 
   5   1   2  311.02    7.62 
  -6  -1  -2  229.34    5.70 
  -6  -1  -2  230.76    5.81 
   6   1   2  224.45    5.73 
   6   1   2  227.47    5.58 
  -7  -1  -2  168.17    4.44 
  -7  -1  -2  164.59    4.32 
   7   1   2  162.15    4.15 
   7   1   2  162.06    4.36 
  -8  -1  -2  117.00    3.43 
  -8  -1  -2  119.50    3.31 
   8   1   2  111.53    3.33 
   8   1   2  113.16    3.06 
  -9  -1  -2   54.57    2.09 
  -9  -1  -2   51.62    2.18 
   9   1   2   55.31    2.28 
   9   1   2   50.76    2.11 
 -10  -1  -2    5.42    0.95 
 -10  -1  -2    5.34    0.93 
  10   1   2    5.82    1.06 
  10   1   2    6.19    1.00 
  10   1   2    4.92    0.86 
 -11  -1  -2    0.89    0.91 
 -11  -1  -2    1.56    0.95 
  11   1   2    0.88    0.93 
  11   1   2    0.86    0.78 
 -12  -1  -2    4.53    1.14 
  12   1   2    3.74    0.97 
  12   1   2    3.94    1.01 
 -13  -1  -2    5.38    1.34 
 -13  -1  -2    9.99    1.41 
  13   1   2    9.27    1.47 
  13   1   2    7.06    1.16 
  13   1   2    9.58    1.29 
 -14  -1  -2    6.36    1.54 
  14   1   2    7.77    1.22 
  14   1   2    7.68    1.67 
  13  -2  -2    9.16    1.33 
  13  -2  -2    7.41    1.32 
 -13   2   2    9.09    1.82 
  12  -2  -2   32.96    2.28 
  12  -2  -2   35.28    2.22 
  12  -2  -2   43.39    3.57 
 -12   2   2   31.62    2.10 
 -12   2   2   33.88    2.86 
  11  -2  -2   91.06    3.12 
  11  -2  -2   78.87    3.55 
  11  -2  -2   81.38    3.15 
 -11   2   2   85.40    2.95 
 -11   2   2   91.28    3.64 
  10  -2  -2   96.95    3.20 
  10  -2  -2   97.53    3.61 
  10  -2  -2   99.01    3.32 
 -10   2   2   98.05    3.63 
   9  -2  -2  123.36    4.02 
   9  -2  -2  120.11    3.64 
   9  -2  -2  122.34    3.76 
  -9   2   2  123.70    3.66 
  -9   2   2  127.22    4.03 
   8  -2  -2  198.77    5.25 
   8  -2  -2  188.87    5.36 
   8  -2  -2  201.85    5.61 
  -8   2   2  202.41    5.32 
  -8   2   2  203.39    5.59 
   7  -2  -2  124.44    3.51 
   7  -2  -2  132.66    4.14 
   7  -2  -2  127.47    3.66 
  -7   2   2  131.19    3.86 
   6  -2  -2   22.31    1.22 
   6  -2  -2   20.68    1.35 
   6  -2  -2   20.48    1.06 
  -6   2   2   24.59    1.45 
  -6   2   2   23.89    1.19 
   5  -2  -2    0.40    0.37 
   5  -2  -2    0.81    0.61 
   5  -2  -2    0.42    0.44 
  -5   2   2    0.53    0.55 
  -5   2   2    0.07    0.43 
   4  -2  -2    1.53    0.52 
   4  -2  -2    1.26    0.44 
   4  -2  -2    1.92    0.34 
  -4   2   2    0.91    0.54 
  -4   2   2    1.53    0.46 
   3  -2  -2    8.22    0.49 
   3  -2  -2    8.75    0.81 
   3  -2  -2    8.71    0.68 
  -3   2   2    8.39    0.70 
  -3   2   2    8.14    0.82 
   2  -2  -2    0.66    0.38 
   2  -2  -2    0.47    0.30 
   2  -2  -2    0.56    0.18 
  -2   2   2    0.28    0.40 
   1  -2  -2    2.17    0.35 
   1  -2  -2    2.27    0.38 
   1  -2  -2    2.55    0.43 
  -1   2   2    1.81    0.39 
  -1   2   2    3.04    0.36 
   0  -2  -2   13.22    0.66 
   0  -2  -2   14.85    0.69 
   0  -2  -2   13.74    0.71 
   0  -2  -2   15.39    0.55 
   0  -2  -2   14.70    0.62 
   0   2   2   14.28    0.70 
   0   2   2   15.91    0.67 
   0   2   2   14.19    0.66 
   0   2   2   14.30    0.55 
  -1  -2  -2   27.75    0.81 
  -1  -2  -2   25.68    0.74 
  -1  -2  -2   27.53    0.82 
  -1  -2  -2   24.92    0.91 
  -1  -2  -2   23.79    0.90 
   1   2   2   24.38    0.90 
   1   2   2   25.37    0.90 
   1   2   2   27.34    0.74 
  -2  -2  -2  171.76    4.30 
  -2  -2  -2  169.81    4.23 
   2   2   2  179.52    4.22 
   2   2   2  170.94    4.30 
  -3  -2  -2  347.10    8.33 
   3   2   2  353.78    8.43 
   3   2   2  345.29    8.32 
  -4  -2  -2  356.08    8.40 
  -4  -2  -2  352.07    8.28 
   4   2   2  339.33    8.28 
   4   2   2  346.39    8.38 
  -5  -2  -2  438.46   10.26 
  -5  -2  -2  417.26   10.12 
   5   2   2  417.53   10.13 
  -6  -2  -2  201.11    5.00 
  -6  -2  -2  204.45    5.13 
   6   2   2  195.83    4.81 
   6   2   2  197.51    5.01 
  -7  -2  -2   51.60    2.14 
  -7  -2  -2   52.34    1.74 
   7   2   2   51.12    1.71 
  -8  -2  -2    9.83    1.16 
  -8  -2  -2    8.95    1.05 
   8   2   2    9.75    1.02 
  -9  -2  -2    0.44    0.66 
   9   2   2    1.46    0.65 
   9   2   2    1.17    0.65 
   9   2   2    0.96    0.79 
 -10  -2  -2    1.32    0.78 
 -10  -2  -2    1.53    0.82 
  10   2   2    1.32    0.78 
  10   2   2    0.00    0.66 
  10   2   2   -0.31    0.87 
 -11  -2  -2   14.92    1.78 
 -11  -2  -2   13.56    1.65 
  11   2   2   14.65    1.70 
  11   2   2   11.82    1.41 
  11   2   2   10.58    1.37 
 -12  -2  -2   31.33    2.33 
 -12  -2  -2   30.05    2.14 
  12   2   2   33.47    2.56 
  12   2   2   29.73    2.16 
  12   2   2   32.83    1.94 
  12   2   2   32.37    2.08 
 -13  -2  -2    1.20    1.26 
 -13  -2  -2    2.82    1.22 
  13   2   2    5.95    1.41 
  13   2   2    0.87    1.21 
  13   2   2    3.73    1.05 
 -14  -2  -2    3.04    1.43 
  14   2   2    4.60    1.69 
  14   2   2    5.72    1.16 
  13  -3  -2   53.08    2.78 
 -13   3   2   51.42    3.62 
  12  -3  -2   74.05    2.71 
  12  -3  -2   65.06    2.93 
 -12   3   2   66.72    2.92 
 -12   3   2   65.96    3.55 
  11  -3  -2   66.51    2.49 
  11  -3  -2   70.42    3.37 
  11  -3  -2   59.52    2.75 
 -11   3   2   64.44    3.24 
 -11   3   2   68.78    2.67 
  10  -3  -2   49.82    2.35 
  10  -3  -2   51.73    2.76 
  10  -3  -2   51.46    2.06 
 -10   3   2   55.54    2.28 
 -10   3   2   51.27    2.72 
   9  -3  -2   38.73    1.68 
   9  -3  -2   41.44    2.28 
   9  -3  -2   39.42    2.00 
  -9   3   2   37.88    3.37 
  -9   3   2   39.84    1.99 
   8  -3  -2    5.54    1.00 
   8  -3  -2    5.83    0.85 
   8  -3  -2    4.89    0.63 
  -8   3   2    8.72    1.22 
  -8   3   2    4.66    1.01 
   7  -3  -2   -0.51    0.40 
   7  -3  -2    0.27    0.57 
   7  -3  -2   -0.01    0.61 
  -7   3   2   -0.10    0.56 
  -7   3   2   -0.51    0.72 
   6  -3  -2    2.16    0.64 
   6  -3  -2    1.73    0.57 
   6  -3  -2    2.02    0.37 
  -6   3   2    2.07    0.72 
  -6   3   2    1.69    0.61 
   5  -3  -2    9.04    0.90 
   5  -3  -2    8.89    1.06 
  -5   3   2    9.52    1.12 
  -5   3   2    8.43    0.91 
   4  -3  -2    1.05    0.46 
   4  -3  -2    1.88    0.54 
  -4   3   2    1.32    0.49 
  -4   3   2    1.43    0.58 
   3  -3  -2   10.74    0.88 
   3  -3  -2   11.08    0.63 
   3  -3  -2   10.38    0.75 
  -3   3   2   10.28    0.82 
  -3   3   2   11.91    0.94 
   2  -3  -2   44.45    1.29 
   2  -3  -2   45.20    1.49 
   2  -3  -2   44.03    1.37 
  -2   3   2   44.61    1.50 
   1  -3  -2  429.75    9.84 
   1  -3  -2  421.15    9.89 
   1  -3  -2  408.20    9.82 
  -1   3   2  403.47    9.81 
  -1   3   2  402.54    9.93 
  -1   3   2  410.73    9.89 
   0  -3  -2  342.97    7.98 
   0  -3  -2  354.90    8.00 
   0  -3  -2  339.21    8.02 
   0  -3  -2  324.84    8.04 
   0   3   2  327.65    8.04 
   0   3   2  332.41    8.08 
   0   3   2  322.45    8.04 
   0   3   2  337.74    8.01 
  -1  -3  -2  308.47    6.94 
  -1  -3  -2  295.15    6.98 
  -1  -3  -2  298.87    7.00 
  -1  -3  -2  288.66    7.06 
   1   3   2  273.85    6.92 
   1   3   2  290.62    7.00 
   1   3   2  287.90    6.98 
   1   3   2  284.31    7.05 
  -2  -3  -2  415.27    9.42 
  -2  -3  -2  388.22    9.45 
  -2  -3  -2  412.90    9.49 
   2   3   2  391.21    9.44 
   2   3   2  380.41    9.58 
  -3  -3  -2  179.93    4.43 
   3   3   2  181.44    4.41 
  -4  -3  -2   51.09    1.34 
  -4  -3  -2   49.73    1.47 
   4   3   2   48.95    1.36 
   4   3   2   48.70    1.45 
  -5  -3  -2   81.58    2.25 
  -5  -3  -2   80.94    2.12 
   5   3   2   77.45    2.14 
  -6  -3  -2    7.21    0.82 
  -6  -3  -2    7.46    0.71 
   6   3   2    7.98    0.72 
  -7  -3  -2    0.34    0.44 
  -7  -3  -2    0.82    0.51 
   7   3   2   -0.76    0.58 
   7   3   2    0.49    0.43 
  -8  -3  -2   18.64    1.15 
  -8  -3  -2   14.63    1.23 
   8   3   2   17.92    1.59 
   8   3   2   16.05    1.10 
  -9  -3  -2   12.35    1.38 
  -9  -3  -2   15.81    1.26 
   9   3   2   16.17    1.79 
   9   3   2   15.20    1.48 
 -10  -3  -2   10.81    1.02 
 -10  -3  -2    9.80    1.08 
  10   3   2    9.57    1.25 
  10   3   2   10.69    0.99 
  10   3   2   10.61    1.40 
 -11  -3  -2    0.73    0.87 
 -11  -3  -2    0.56    0.94 
  11   3   2   -0.52    0.72 
  11   3   2    0.63    0.89 
  11   3   2   -1.17    1.01 
 -12  -3  -2   15.22    2.01 
 -12  -3  -2   19.12    1.90 
  12   3   2   17.86    2.00 
  12   3   2   20.39    1.74 
  12   3   2   16.24    1.72 
  13   3   2   12.30    1.33 
  13   3   2   13.49    1.80 
  13  -4  -2   66.55    3.14 
 -13   4   2   67.79    3.87 
  12  -4  -2   28.49    2.19 
 -12   4   2   30.92    2.96 
 -12   4   2   32.98    2.50 
  11  -4  -2    6.87    1.17 
  11  -4  -2    8.27    1.41 
 -11   4   2    8.12    1.20 
 -11   4   2    8.53    1.60 
  10  -4  -2    0.87    0.89 
  10  -4  -2    1.44    1.06 
 -10   4   2    2.26    0.94 
 -10   4   2    1.78    1.21 
   9  -4  -2    2.85    0.99 
   9  -4  -2    1.92    0.84 
   9  -4  -2    2.43    0.54 
  -9   4   2    0.26    1.00 
  -9   4   2    2.76    0.89 
   8  -4  -2    2.36    0.79 
   8  -4  -2    2.18    0.93 
  -8   4   2    1.15    0.76 
  -8   4   2    2.15    0.98 
   7  -4  -2   16.55    1.31 
   7  -4  -2   19.29    1.59 
  -7   4   2   19.70    1.63 
  -7   4   2   18.61    1.39 
   6  -4  -2    4.12    0.66 
   6  -4  -2    4.96    0.97 
  -6   4   2    4.14    0.79 
  -6   4   2    4.40    0.68 
   5  -4  -2    6.94    0.63 
   5  -4  -2    6.47    0.70 
   5  -4  -2    6.27    0.75 
  -5   4   2    6.60    0.76 
  -5   4   2    6.12    0.77 
   4  -4  -2   47.09    1.64 
   4  -4  -2   44.61    1.37 
   4  -4  -2   46.20    2.51 
  -4   4   2   48.38    1.83 
  -4   4   2   44.60    1.71 
   3  -4  -2  111.30    3.21 
   3  -4  -2  119.54    3.08 
   3  -4  -2  110.80    2.90 
   3  -4  -2  112.29    3.21 
  -3   4   2  113.33    3.19 
  -3   4   2  114.62    3.20 
   2  -4  -2  370.11    9.14 
   2  -4  -2  370.52    9.10 
   2  -4  -2  363.43    8.92 
   2  -4  -2  389.05    9.00 
  -2   4   2  380.74    8.92 
  -2   4   2  368.58    9.08 
  -2   4   2  365.53    9.12 
   1  -4  -2  282.07    6.84 
   1  -4  -2  289.80    6.84 
   1  -4  -2  278.28    6.97 
  -1   4   2  281.66    6.76 
  -1   4   2  275.87    6.96 
  -1   4   2  281.19    6.83 
  -1   4   2  284.33    6.90 
   0  -4  -2  452.44   10.28 
   0  -4  -2  437.57   10.30 
   0  -4  -2  419.90   10.35 
   0   4   2  422.28   10.35 
   0   4   2  431.37   10.33 
   0   4   2  436.07   10.33 
   0   4   2  432.36   10.31 
   0   4   2  421.61   10.39 
  -1  -4  -2  361.43    8.43 
  -1  -4  -2  362.19    8.34 
   1   4   2  346.67    8.36 
   1   4   2  335.26    8.42 
   1   4   2  347.02    8.52 
   1   4   2  346.81    8.50 
  -2  -4  -2   92.23    2.38 
  -2  -4  -2   94.44    2.37 
  -2  -4  -2   95.44    2.50 
   2   4   2   91.03    2.42 
   2   4   2   92.50    2.39 
   2   4   2   93.75    2.62 
  -3  -4  -2    0.64    0.29 
   3   4   2    0.13    0.20 
   3   4   2    0.72    0.25 
   3   4   2    0.12    0.23 
   3   4   2    0.20    0.40 
  -4  -4  -2    6.10    0.62 
   4   4   2    6.16    0.52 
   4   4   2    4.64    0.69 
   4   4   2    6.05    0.57 
  -5  -4  -2   50.90    1.56 
  -5  -4  -2   52.54    1.45 
   5   4   2   51.16    1.50 
   5   4   2   49.61    2.01 
  -6  -4  -2   39.36    1.27 
  -6  -4  -2   39.77    1.40 
   6   4   2   37.02    1.31 
   6   4   2   37.58    1.82 
  -7  -4  -2    3.72    0.59 
  -7  -4  -2    3.48    0.51 
   7   4   2    2.51    0.50 
   7   4   2    3.27    0.79 
  -8  -4  -2   43.79    1.60 
  -8  -4  -2   42.47    2.55 
   8   4   2   43.36    2.26 
   8   4   2   42.51    1.62 
  -9  -4  -2    4.61    0.87 
  -9  -4  -2    6.16    0.77 
   9   4   2    5.27    1.06 
   9   4   2    6.32    0.80 
 -10  -4  -2   17.15    1.42 
 -10  -4  -2   13.73    1.62 
  10   4   2   14.98    1.41 
  10   4   2   19.68    2.13 
 -11  -4  -2   24.83    2.03 
 -11  -4  -2   28.21    1.76 
  11   4   2   29.79    2.48 
  11   4   2   28.52    1.67 
 -12  -4  -2   61.92    2.95 
 -12  -4  -2   63.16    2.62 
  12   4   2   67.13    3.56 
  12   4   2   67.21    2.87 
  12   4   2   68.72    2.59 
 -13  -4  -2   74.84    3.05 
  13   4   2   73.22    3.44 
  13   4   2   82.24    4.17 
  13   4   2   76.88    2.96 
  13   4   2   74.78    3.19 
  13  -5  -2    5.38    1.36 
 -13   5   2    5.07    1.86 
 -13   5   2    8.64    1.66 
  12  -5  -2    0.83    1.03 
 -12   5   2    1.63    1.30 
 -12   5   2    0.79    1.61 
  11  -5  -2    0.77    0.97 
 -11   5   2   -1.16    1.35 
 -11   5   2    0.16    1.35 
  10  -5  -2    4.26    1.22 
  10  -5  -2    4.71    0.66 
  10  -5  -2    4.39    1.01 
 -10   5   2    5.65    1.11 
 -10   5   2    4.98    1.31 
   9  -5  -2    5.00    0.64 
   9  -5  -2    4.68    1.00 
   9  -5  -2    3.88    1.09 
  -9   5   2    6.23    1.23 
  -9   5   2    6.52    1.02 
   8  -5  -2    6.83    0.75 
   8  -5  -2    6.94    1.01 
   8  -5  -2    7.00    1.05 
  -8   5   2    6.99    1.11 
  -8   5   2    7.63    1.05 
   7  -5  -2    7.04    0.91 
   7  -5  -2    9.41    1.09 
   7  -5  -2    7.67    0.71 
  -7   5   2    7.66    1.02 
  -7   5   2    8.22    0.96 
   6  -5  -2   81.03    2.25 
   6  -5  -2   82.92    2.87 
   6  -5  -2   83.98    2.72 
  -6   5   2   82.52    2.86 
  -6   5   2   87.13    2.89 
   5  -5  -2  290.32    7.65 
   5  -5  -2  301.79    7.67 
   5  -5  -2  291.55    7.16 
   5  -5  -2  302.21    7.51 
  -5   5   2  298.91    7.65 
  -5   5   2  293.98    7.60 
   4  -5  -2  364.59    9.10 
   4  -5  -2  359.20    8.68 
   4  -5  -2  357.83    9.06 
   4  -5  -2  355.61    9.12 
  -4   5   2  364.40    9.07 
  -4   5   2  365.87    9.06 
   3  -5  -2  548.68   13.30 
   3  -5  -2  561.02   13.64 
   3  -5  -2  586.29   13.46 
  -3   5   2  549.60   13.56 
  -3   5   2  571.90   13.30 
  -3   5   2  539.13   13.87 
   2  -5  -2  409.38    9.94 
   2  -5  -2  428.22   10.00 
   2  -5  -2  400.55   10.17 
  -2   5   2  422.84   10.11 
  -2   5   2  414.52    9.92 
  -2   5   2  411.54    9.82 
  -2   5   2  409.89   10.17 
   1  -5  -2  108.20    2.75 
   1  -5  -2   99.97    2.91 
  -1   5   2  104.93    2.87 
  -1   5   2  100.77    2.75 
  -1   5   2  102.27    2.70 
  -1   5   2  101.49    2.90 
   0  -5  -2  532.14   12.34 
   0  -5  -2  528.00   12.12 
   0  -5  -2  503.43   12.28 
   0   5   2  506.37   12.15 
   0   5   2  496.32   12.23 
   0   5   2  502.05   12.21 
   0   5   2  497.47   12.27 
  -1  -5  -2   95.87    2.44 
  -1  -5  -2   93.66    2.58 
   1   5   2   96.51    2.69 
   1   5   2   92.35    2.57 
   1   5   2   92.85    2.45 
   1   5   2   92.06    2.64 
  -2  -5  -2    2.30    0.31 
  -2  -5  -2    2.01    0.44 
   2   5   2    3.62    0.57 
   2   5   2    2.62    0.33 
   2   5   2    2.24    0.39 
  -3  -5  -2  130.83    3.46 
  -3  -5  -2  131.85    3.25 
   3   5   2  131.42    3.73 
   3   5   2  130.02    3.23 
   3   5   2  126.37    3.26 
   3   5   2  130.90    3.22 
  -4  -5  -2   20.72    1.05 
  -4  -5  -2   20.91    0.85 
   4   5   2   20.01    0.80 
   4   5   2   20.29    1.37 
   4   5   2   20.51    0.78 
  -5  -5  -2    0.52    0.35 
   5   5   2    0.19    0.31 
   5   5   2    0.06    0.58 
  -6  -5  -2    4.54    0.52 
   6   5   2    4.22    0.82 
   6   5   2    3.98    0.49 
  -7  -5  -2    0.25    0.48 
   7   5   2   -0.39    0.73 
   7   5   2    1.09    0.48 
  -8  -5  -2   10.45    1.16 
  -8  -5  -2   11.86    1.01 
   8   5   2   11.27    1.07 
   8   5   2   10.55    1.23 
  -9  -5  -2  100.72    3.23 
  -9  -5  -2  107.19    3.06 
   9   5   2  108.85    3.90 
   9   5   2  105.41    3.10 
 -10  -5  -2   94.71    2.95 
 -10  -5  -2   86.31    3.15 
  10   5   2   99.75    2.96 
  10   5   2   98.13    3.04 
  10   5   2  100.17    3.84 
 -11  -5  -2   52.78    2.18 
 -11  -5  -2   46.77    2.49 
  11   5   2   55.74    2.19 
  11   5   2   55.95    3.24 
 -12  -5  -2   39.95    2.60 
 -12  -5  -2   43.24    2.20 
  12   5   2   45.74    2.19 
  12   5   2   45.01    2.33 
  12   5   2   50.26    3.34 
 -13  -5  -2   52.88    2.47 
  13   5   2   48.66    3.81 
  13   5   2   52.85    2.46 
  12  -6  -2   10.88    1.48 
 -12   6   2   13.35    1.69 
 -12   6   2    9.08    1.97 
  11  -6  -2    5.57    1.21 
 -11   6   2    6.64    1.59 
 -11   6   2    4.37    1.26 
  10  -6  -2   -0.28    0.87 
 -10   6   2    1.40    1.26 
   9  -6  -2    0.94    0.87 
  -9   6   2    1.89    0.99 
  -9   6   2    2.74    1.18 
   8  -6  -2   28.23    1.84 
  -8   6   2   31.39    1.93 
  -8   6   2   31.86    2.23 
   7  -6  -2   97.69    3.20 
  -7   6   2   98.88    3.30 
  -7   6   2   98.69    3.44 
   6  -6  -2  127.74    3.38 
   6  -6  -2  133.13    3.88 
   6  -6  -2  135.25    4.06 
  -6   6   2  136.95    4.09 
  -6   6   2  133.41    4.01 
   5  -6  -2  332.06    8.41 
   5  -6  -2  315.26    7.82 
   5  -6  -2  328.45    8.18 
  -5   6   2  319.68    8.33 
   4  -6  -2  163.78    4.20 
   4  -6  -2  170.62    4.46 
   4  -6  -2  163.80    4.65 
  -4   6   2  165.70    4.62 
  -4   6   2  169.18    4.62 
   3  -6  -2   32.39    1.56 
   3  -6  -2   33.18    1.33 
  -3   6   2   34.80    1.56 
  -3   6   2   31.99    1.04 
  -3   6   2   31.92    1.51 
  -3   6   2   33.86    1.16 
   2  -6  -2   79.56    2.60 
   2  -6  -2   82.71    2.35 
  -2   6   2   81.64    2.23 
  -2   6   2   85.42    2.55 
  -2   6   2   81.63    2.85 
  -2   6   2   80.82    2.30 
   1  -6  -2    5.82    0.69 
   1  -6  -2    5.80    0.72 
   1  -6  -2    6.24    0.74 
  -1   6   2    7.66    0.74 
  -1   6   2    6.29    0.69 
  -1   6   2    6.34    0.72 
  -1   6   2    4.83    0.61 
   0  -6  -2    9.71    0.80 
   0  -6  -2    9.60    0.91 
   0  -6  -2   10.37    0.70 
   0   6   2    9.52    0.82 
   0   6   2   12.02    0.91 
   0   6   2    8.96    0.87 
   0   6   2   10.93    0.76 
  -1  -6  -2   69.06    2.06 
  -1  -6  -2   70.36    1.90 
  -1  -6  -2   69.73    2.10 
   1   6   2   68.94    2.17 
   1   6   2   67.60    2.20 
   1   6   2   66.38    2.06 
   1   6   2   66.45    1.91 
  -2  -6  -2   27.40    0.95 
  -2  -6  -2   27.27    1.19 
  -2  -6  -2   27.30    1.11 
   2   6   2   26.03    1.07 
   2   6   2   27.55    0.94 
   2   6   2   27.08    1.39 
  -3  -6  -2   95.91    2.73 
   3   6   2   93.59    2.51 
   3   6   2   94.35    2.99 
  -4  -6  -2    0.77    0.49 
   4   6   2    1.61    0.35 
   4   6   2    0.76    0.61 
  -5  -6  -2   15.33    1.10 
   5   6   2   16.27    0.84 
   5   6   2   15.18    1.47 
  -6  -6  -2   12.55    0.87 
  -6  -6  -2   13.97    1.17 
   6   6   2   14.07    1.61 
   6   6   2   15.40    0.92 
  -7  -6  -2   61.34    1.92 
   7   6   2   54.86    2.67 
   7   6   2   56.87    1.89 
  -8  -6  -2  134.24    3.61 
   8   6   2  122.87    3.54 
   8   6   2  128.87    4.38 
  -9  -6  -2  114.45    3.53 
   9   6   2  117.81    4.27 
 -10  -6  -2   67.33    2.61 
  10   6   2   73.84    3.56 
  10   6   2   76.09    2.45 
  10   6   2   74.62    2.51 
  11   6   2   14.08    1.73 
  11   6   2   12.77    1.81 
  12   6   2    1.84    1.61 
  12  -7  -2   -0.68    1.06 
 -12   7   2    0.72    1.80 
  11  -7  -2   16.49    2.02 
 -11   7   2   20.77    2.36 
 -11   7   2   18.72    2.04 
  10  -7  -2   73.79    3.11 
 -10   7   2   78.90    3.63 
   9  -7  -2   61.62    2.66 
  -9   7   2   61.30    3.09 
   8  -7  -2   47.68    2.28 
  -8   7   2   50.96    2.41 
  -8   7   2   48.20    2.63 
   7  -7  -2  200.38    5.73 
   7  -7  -2  193.51    5.50 
  -7   7   2  194.64    7.32 
  -7   7   2  199.49    5.64 
   6  -7  -2  105.07    3.32 
   6  -7  -2  106.34    3.54 
  -6   7   2  105.99    3.54 
  -6   7   2  106.20    3.48 
   5  -7  -2   66.76    3.13 
   5  -7  -2   60.61    2.45 
  -5   7   2   63.31    2.45 
  -5   7   2   62.61    2.43 
   4  -7  -2    3.23    0.76 
   4  -7  -2    3.34    0.60 
  -4   7   2    2.28    0.65 
  -4   7   2    3.73    0.49 
  -4   7   2    2.35    0.71 
   3  -7  -2    9.16    0.94 
   3  -7  -2    9.86    1.16 
  -3   7   2   10.81    0.72 
  -3   7   2   10.42    1.18 
  -3   7   2    9.57    1.11 
  -3   7   2   10.26    0.76 
   2  -7  -2   29.79    1.54 
   2  -7  -2   30.69    1.24 
  -2   7   2   30.34    1.22 
  -2   7   2   30.41    1.52 
  -2   7   2   30.03    1.18 
  -2   7   2   30.38    1.49 
   1  -7  -2   72.11    2.41 
   1  -7  -2   71.53    2.19 
   1  -7  -2   73.83    2.11 
  -1   7   2   70.52    2.19 
  -1   7   2   73.55    2.33 
  -1   7   2   70.94    2.35 
  -1   7   2   72.22    2.20 
   0  -7  -2   28.94    1.08 
   0  -7  -2   28.74    1.23 
   0  -7  -2   27.06    1.34 
   0   7   2   25.60    1.31 
   0   7   2   24.45    1.26 
   0   7   2   29.28    1.13 
   0   7   2   26.89    1.31 
  -1  -7  -2    1.25    0.50 
  -1  -7  -2    1.31    0.39 
  -1  -7  -2    1.24    0.49 
   1   7   2    1.46    0.37 
   1   7   2    1.81    0.47 
   1   7   2    1.16    0.56 
   1   7   2    0.74    0.52 
  -2  -7  -2   -0.27    0.46 
  -2  -7  -2    0.07    0.43 
  -2  -7  -2   -0.20    0.34 
   2   7   2    0.20    0.28 
   2   7   2    0.13    0.39 
   2   7   2    0.38    0.55 
  -3  -7  -2   20.78    1.16 
   3   7   2   20.82    0.97 
   3   7   2   21.44    1.49 
  -4  -7  -2  114.77    3.32 
   4   7   2  116.68    3.67 
   4   7   2  113.37    3.01 
  -5  -7  -2  108.30    3.31 
   5   7   2  115.53    3.01 
   5   7   2  114.24    3.73 
  -6  -7  -2  133.83    3.93 
   6   7   2  137.34    3.60 
   6   7   2  136.04    4.39 
  -7  -7  -2  103.50    3.35 
   7   7   2  107.89    3.89 
   7   7   2  106.47    3.00 
  -8  -7  -2   99.93    3.41 
   8   7   2  110.55    4.07 
   8   7   2  104.15    3.04 
   9   7   2   30.52    1.45 
   9   7   2   27.10    2.65 
   9   7   2   27.80    1.59 
 -10  -7  -2    3.66    0.90 
  10   7   2    3.94    1.51 
  10   7   2    6.14    0.92 
  10   7   2    2.39    0.87 
 -11  -7  -2   -0.82    1.07 
  11   7   2    0.25    1.50 
  11   7   2    0.33    0.78 
  12   7   2    0.63    1.70 
  12  -8  -2   70.41    3.39 
 -12   8   2   69.25    4.01 
  11  -8  -2   96.99    3.88 
 -11   8   2  111.08    4.55 
  10  -8  -2   87.73    3.47 
 -10   8   2   89.01    3.63 
 -10   8   2   89.98    3.95 
   9  -8  -2  151.38    4.84 
  -9   8   2  158.58    5.20 
   8  -8  -2  159.57    4.91 
  -8   8   2  165.97    5.21 
   7  -8  -2   53.33    2.56 
   7  -8  -2   47.12    2.26 
  -7   8   2   50.94    2.61 
  -7   8   2   49.34    2.44 
   6  -8  -2    5.51    0.86 
   6  -8  -2    4.97    1.03 
  -6   8   2    5.17    1.06 
  -6   8   2    5.55    1.01 
   5  -8  -2    0.01    0.60 
   5  -8  -2   -0.30    0.72 
  -5   8   2   -0.93    0.73 
  -5   8   2    0.62    0.70 
   4  -8  -2    6.32    0.92 
   4  -8  -2    6.99    0.78 
  -4   8   2    6.42    0.87 
  -4   8   2    9.41    0.73 
  -4   8   2    7.70    0.77 
  -4   8   2    7.23    0.95 
   3  -8  -2    1.44    0.68 
   3  -8  -2    1.96    0.53 
  -3   8   2    1.99    0.71 
  -3   8   2    1.93    0.50 
  -3   8   2    0.95    0.44 
  -3   8   2    2.03    0.72 
   2  -8  -2   14.68    1.12 
   2  -8  -2   14.86    1.32 
  -2   8   2   14.39    1.32 
  -2   8   2   13.74    1.91 
  -2   8   2   14.06    0.97 
  -2   8   2   15.37    1.02 
   1  -8  -2    6.68    0.73 
   1  -8  -2    7.68    0.89 
   1  -8  -2    7.04    0.79 
  -1   8   2    7.31    0.91 
  -1   8   2    7.82    1.02 
  -1   8   2    7.40    0.83 
  -1   8   2    8.13    0.95 
   0  -8  -2   21.06    1.00 
   0  -8  -2   19.61    1.16 
   0  -8  -2   21.12    1.32 
   0   8   2   21.99    1.04 
   0   8   2   20.43    1.21 
   0   8   2   19.91    1.30 
   0   8   2   20.81    1.24 
  -1  -8  -2   86.34    2.65 
  -1  -8  -2   86.67    2.71 
  -1  -8  -2   88.74    2.40 
   1   8   2   88.60    2.80 
   1   8   2   85.71    2.40 
   1   8   2   88.39    2.87 
   1   8   2   89.76    2.91 
  -2  -8  -2  154.37    4.24 
  -2  -8  -2  156.42    3.90 
  -2  -8  -2  152.76    4.19 
   2   8   2  151.39    4.14 
   2   8   2  155.33    4.73 
   2   8   2  159.80    4.51 
  -3  -8  -2  349.09    8.80 
   3   8   2  345.13    8.55 
   3   8   2  354.36    9.11 
  -4  -8  -2  270.23    7.06 
   4   8   2  275.79    6.73 
   4   8   2  272.32    7.42 
  -5  -8  -2  142.46    4.17 
   5   8   2  145.83    4.64 
   5   8   2  146.26    3.81 
  -6  -8  -2   87.03    2.93 
   6   8   2   88.51    3.50 
   6   8   2   87.17    2.56 
  -7  -8  -2   20.47    1.57 
   7   8   2   17.53    2.25 
   7   8   2   22.70    1.27 
  -8  -8  -2    5.76    2.06 
   8   8   2    7.96    1.45 
   8   8   2    8.45    1.38 
   8   8   2   10.72    0.97 
  -9  -8  -2    1.89    0.95 
   9   8   2    0.65    0.75 
   9   8   2    1.15    1.32 
 -10  -8  -2    6.10    1.30 
  10   8   2    8.54    1.76 
  10   8   2    7.28    0.93 
 -11  -8  -2   11.98    1.58 
  11   8   2   11.43    2.00 
  11  -9  -2   47.85    2.78 
 -11   9   2   44.87    3.52 
  10  -9  -2   25.58    2.15 
 -10   9   2   19.55    2.09 
   9  -9  -2   13.07    1.43 
  -9   9   2   16.66    2.16 
  -9   9   2   14.89    1.81 
   8  -9  -2    4.62    1.06 
  -8   9   2    4.09    1.18 
  -8   9   2    5.19    1.33 
   7  -9  -2    3.15    1.10 
   7  -9  -2    1.50    0.82 
  -7   9   2   -0.03    1.07 
   6  -9  -2    9.06    1.05 
   6  -9  -2    9.70    1.32 
  -6   9   2   10.13    1.26 
   5  -9  -2   15.79    1.40 
  -5   9   2   18.62    1.74 
  -5   9   2   18.68    1.05 
   4  -9  -2    1.54    0.62 
   4  -9  -2    0.32    0.79 
  -4   9   2    1.49    0.81 
  -4   9   2    1.11    0.48 
  -4   9   2    0.46    0.53 
  -4   9   2   -0.02    0.79 
   3  -9  -2   -0.58    0.50 
   3  -9  -2    0.75    0.78 
  -3   9   2   -0.08    0.50 
  -3   9   2    0.02    0.73 
  -3   9   2   -0.30    0.74 
  -3   9   2    0.12    0.64 
   2  -9  -2    7.89    0.93 
   2  -9  -2    7.16    0.99 
  -2   9   2    7.89    1.04 
  -2   9   2    6.70    0.79 
  -2   9   2    6.96    0.95 
  -2   9   2    7.87    1.00 
   1  -9  -2   79.24    2.76 
   1  -9  -2   77.57    2.33 
   1  -9  -2   76.02    2.50 
  -1   9   2   76.08    2.52 
  -1   9   2   78.71    2.56 
  -1   9   2   77.47    2.66 
   0  -9  -2  192.32    5.16 
   0  -9  -2  193.46    5.31 
   0  -9  -2  199.54    4.91 
   0   9   2  181.05    5.54 
   0   9   2  197.06    5.29 
   0   9   2  195.94    4.96 
   0   9   2  187.85    5.22 
  -1  -9  -2  206.76    5.54 
  -1  -9  -2  209.58    5.14 
  -1  -9  -2  199.40    5.46 
   1   9   2  202.72    5.16 
   1   9   2  207.53    5.50 
   1   9   2  206.59    5.62 
   1   9   2  206.81    5.68 
  -2  -9  -2  166.53    4.61 
  -2  -9  -2  164.76    4.56 
  -2  -9  -2  170.92    4.20 
   2   9   2  169.25    4.84 
   2   9   2  163.94    4.49 
   2   9   2  165.36    4.89 
  -3  -9  -2  107.93    3.31 
   3   9   2  106.53    3.67 
  -4  -9  -2  145.91    4.28 
   4   9   2  149.13    4.76 
  -5  -9  -2   60.10    2.36 
   5   9   2   62.08    2.90 
  -6  -9  -2   -0.36    0.75 
   6   9   2    0.50    1.04 
   6   9   2   -0.14    0.92 
  -7  -9  -2    2.51    1.08 
   7   9   2    2.33    0.70 
   7   9   2    1.42    1.18 
  -8  -9  -2    1.84    0.93 
   8   9   2    0.36    0.73 
   8   9   2    2.14    1.39 
  -9  -9  -2    6.53    1.27 
   9   9   2    4.35    1.57 
   9   9   2    7.01    0.91 
 -10  -9  -2    3.71    1.24 
  10   9   2    4.68    1.76 
  11 -10  -2    3.14    1.56 
  10 -10  -2    1.52    1.15 
 -10  10   2    2.39    1.71 
   9 -10  -2    5.84    1.24 
  -9  10   2    6.21    1.70 
   8 -10  -2   21.83    1.97 
  -8  10   2   25.72    2.61 
  -8  10   2   25.95    3.17 
   7 -10  -2   17.66    1.78 
   7 -10  -2   19.87    2.15 
  -7  10   2   20.09    2.27 
   6 -10  -2    7.97    1.05 
   6 -10  -2    7.48    1.32 
  -6  10   2    8.41    1.34 
   5 -10  -2    3.07    1.02 
   5 -10  -2    4.81    0.82 
  -5  10   2    3.41    0.53 
  -5  10   2    3.41    1.10 
  -5  10   2    3.22    0.66 
   4 -10  -2   37.33    2.23 
   4 -10  -2   38.12    1.72 
  -4  10   2   36.52    2.12 
  -4  10   2   32.55    2.69 
  -4  10   2   36.94    1.54 
   3 -10  -2   91.68    3.38 
  -3  10   2   91.10    3.28 
  -3  10   2   97.51    3.36 
  -3  10   2   94.03    2.88 
  -3  10   2   94.49    2.87 
   2 -10  -2  162.66    4.40 
   2 -10  -2  163.79    4.91 
  -2  10   2  158.52    4.78 
  -2  10   2  168.01    4.56 
  -2  10   2  161.05    4.52 
  -2  10   2  165.44    4.84 
   1 -10  -2  141.92    4.32 
   1 -10  -2  138.88    4.05 
   1 -10  -2  142.00    3.86 
  -1  10   2  140.81    4.11 
  -1  10   2  139.42    3.87 
  -1  10   2  133.24    4.14 
  -1  10   2  145.02    4.23 
   0 -10  -2  227.05    6.12 
   0 -10  -2  229.10    6.28 
   0 -10  -2  231.42    5.80 
   0  10   2  229.27    6.21 
   0  10   2  227.97    6.21 
   0  10   2  233.56    6.26 
   0  10   2  228.61    5.83 
  -1 -10  -2   80.54    2.23 
  -1 -10  -2   76.39    2.68 
  -1 -10  -2   72.55    2.59 
   1  10   2   79.16    2.88 
   1  10   2   71.44    2.72 
   1  10   2   69.33    2.84 
   1  10   2   73.76    2.19 
  -2 -10  -2   38.72    1.82 
  -2 -10  -2   39.99    1.39 
  -2 -10  -2   38.28    1.81 
   2  10   2   41.23    2.10 
   2  10   2   41.07    2.25 
   2  10   2   38.37    1.72 
  -3 -10  -2   23.84    1.55 
   3  10   2   26.78    1.93 
  -4 -10  -2    4.82    0.96 
   4  10   2    4.28    1.16 
   4  10   2    4.01    0.67 
  -5 -10  -2   21.19    1.63 
   5  10   2   22.55    2.30 
   5  10   2   21.76    1.31 
  -6 -10  -2    3.54    0.97 
   6  10   2    2.20    1.27 
   6  10   2    3.44    0.73 
  -7 -10  -2    6.53    1.11 
   7  10   2    7.18    0.87 
   7  10   2    7.23    1.52 
  -8 -10  -2    1.05    1.00 
   8  10   2   -0.37    0.77 
   8  10   2    1.55    1.49 
  -9 -10  -2    0.48    1.04 
   9  10   2    0.60    1.60 
  10 -11  -2    8.36    1.53 
 -10  11   2   10.83    2.02 
   9 -11  -2    0.72    1.06 
  -9  11   2    1.21    1.66 
   8 -11  -2   -1.36    0.91 
  -8  11   2   -0.57    1.45 
   7 -11  -2    9.58    1.24 
   7 -11  -2    9.52    1.59 
  -7  11   2    9.41    1.58 
   6 -11  -2   57.80    2.92 
   6 -11  -2   46.79    2.29 
  -6  11   2   46.62    2.82 
   5 -11  -2  174.53    5.52 
   5 -11  -2  167.68    4.90 
  -5  11   2  175.10    5.34 
  -5  11   2  175.54    5.23 
  -5  11   2  171.45    5.38 
  -5  11   2  165.47    4.46 
   4 -11  -2  162.79    5.17 
   4 -11  -2  161.75    4.59 
  -4  11   2  163.90    4.44 
  -4  11   2  164.31    5.03 
  -4  11   2  159.42    5.08 
  -4  11   2  158.82    4.39 
   3 -11  -2  242.83    6.42 
   3 -11  -2  248.20    7.03 
  -3  11   2  248.06    6.96 
  -3  11   2  235.36    6.74 
  -3  11   2  251.79    7.04 
  -3  11   2  249.91    6.46 
   2 -11  -2  250.02    7.95 
   2 -11  -2  272.60    6.96 
  -2  11   2  280.42    7.18 
  -2  11   2  281.85    7.47 
  -2  11   2  271.40    7.13 
  -2  11   2  273.79    7.48 
   1 -11  -2  140.86    3.86 
   1 -11  -2  140.91    4.44 
   1 -11  -2  138.78    4.15 
  -1  11   2  138.30    4.35 
  -1  11   2  139.60    3.92 
  -1  11   2  146.25    4.35 
  -1  11   2  144.49    4.27 
  -1  11   2  136.45    4.17 
   0 -11  -2  104.21    3.41 
   0 -11  -2  108.88    3.62 
   0 -11  -2  104.49    3.18 
   0  11   2  109.40    3.62 
   0  11   2  109.44    3.51 
   0  11   2  108.17    3.52 
   0  11   2  108.73    3.07 
  -1 -11  -2   13.20    1.05 
  -1 -11  -2   14.98    1.58 
  -1 -11  -2   13.52    1.40 
   1  11   2   11.39    1.58 
   1  11   2   11.14    1.35 
   1  11   2   11.66    1.31 
  -2 -11  -2    0.78    0.54 
  -2 -11  -2    1.19    0.74 
   2  11   2    0.97    0.98 
   2  11   2    2.13    0.97 
  -3 -11  -2   -0.12    0.82 
   3  11   2    0.83    1.02 
   3  11   2    0.74    1.03 
  -4 -11  -2    5.08    1.02 
   4  11   2    4.15    1.28 
   4  11   2    6.49    1.35 
   4  11   2    4.82    1.37 
  -5 -11  -2    6.84    1.13 
   5  11   2    6.23    1.40 
   5  11   2    5.31    1.35 
  -6 -11  -2   -0.20    0.96 
   6  11   2   -0.31    1.32 
  -7 -11  -2   -1.39    1.02 
   7  11   2    0.17    1.45 
  -8 -11  -2   26.05    2.14 
   8  11   2   18.01    2.22 
   9 -12  -2   27.36    2.42 
  -9  12   2   25.02    3.29 
   8 -12  -2   29.40    2.23 
  -8  12   2   21.76    2.25 
   7 -12  -2   75.84    3.71 
   7 -12  -2   69.27    2.96 
  -7  12   2   69.31    3.60 
   6 -12  -2  108.48    3.68 
   6 -12  -2  108.10    4.33 
  -6  12   2  112.69    4.31 
   5 -12  -2  162.64    5.45 
   5 -12  -2  157.46    4.74 
  -5  12   2  188.65    6.67 
  -5  12   2  155.30    4.35 
  -5  12   2  156.65    5.22 
  -5  12   2  156.59    4.41 
   4 -12  -2   99.78    3.28 
   4 -12  -2  106.95    4.07 
  -4  12   2  107.44    3.99 
  -4  12   2  106.72    3.25 
  -4  12   2   97.43    4.02 
  -4  12   2  104.23    3.90 
   3 -12  -2   52.19    2.74 
   3 -12  -2   43.33    1.91 
  -3  12   2   46.19    2.66 
  -3  12   2   44.53    2.61 
  -3  12   2   46.26    2.14 
  -3  12   2   43.50    2.06 
   2 -12  -2   26.30    2.18 
   2 -12  -2   23.54    1.42 
  -2  12   2   23.26    1.51 
  -2  12   2   27.39    2.18 
  -2  12   2   22.97    2.07 
  -2  12   2   26.16    1.86 
  -2  12   2   24.19    1.68 
   1 -12  -2   13.20    1.22 
   1 -12  -2   20.09    1.99 
  -1  12   2   15.50    1.57 
  -1  12   2   16.28    1.28 
  -1  12   2   16.83    1.78 
  -1  12   2   14.42    1.63 
  -1  12   2   16.24    1.75 
   0 -12  -2    2.01    1.00 
   0 -12  -2    0.01    0.64 
   0  12   2    0.92    0.57 
   0  12   2    0.74    1.76 
   0  12   2   -0.61    0.90 
   0  12   2    1.00    0.92 
  -1 -12  -2    8.22    0.78 
  -1 -12  -2    5.46    1.07 
  -1 -12  -2    8.86    1.20 
   1  12   2    7.77    1.23 
   1  12   2    6.48    1.21 
  -2 -12  -2   17.52    1.69 
  -2 -12  -2   17.56    1.10 
   2  12   2   15.64    1.70 
   2  12   2   14.56    1.55 
  -3 -12  -2    0.06    0.82 
   3  12   2    0.13    1.20 
   3  12   2    1.32    1.16 
   3  12   2   -0.36    0.70 
  -4 -12  -2    1.78    0.92 
   4  12   2    1.55    0.77 
   4  12   2    3.42    1.34 
  -5 -12  -2    8.12    1.33 
   5  12   2    9.57    1.00 
   5  12   2    7.98    1.67 
  -6 -12  -2   20.74    1.96 
   6  12   2   20.75    1.63 
   6  12   2   19.47    2.25 
  -7 -12  -2   47.07    2.71 
   7  12   2   45.30    3.75 
   8 -13  -2   63.31    3.06 
  -8  13   2   63.72    4.20 
   7 -13  -2   90.51    3.52 
  -7  13   2   92.09    4.29 
   6 -13  -2   48.07    2.45 
   6 -13  -2   48.03    3.33 
  -6  13   2   52.59    3.30 
   5 -13  -2   21.42    1.71 
   5 -13  -2   20.24    2.62 
  -5  13   2   19.48    1.96 
  -5  13   2   21.22    2.55 
  -5  13   2   20.23    1.62 
   4 -13  -2    1.40    1.38 
   4 -13  -2    1.38    0.81 
  -4  13   2   -1.25    1.18 
  -4  13   2    3.00    0.98 
  -4  13   2    0.57    0.86 
   3 -13  -2    2.42    1.30 
   3 -13  -2    4.26    0.86 
  -3  13   2    4.49    1.33 
  -3  13   2    3.15    1.26 
  -3  13   2    4.86    1.06 
  -3  13   2    2.20    1.02 
  -3  13   2    4.97    0.92 
   2 -13  -2    9.26    1.51 
   2 -13  -2    9.05    0.97 
  -2  13   2   12.15    1.69 
  -2  13   2    7.17    1.33 
  -2  13   2    9.88    1.46 
  -2  13   2    7.86    1.23 
  -2  13   2    7.30    0.97 
   1 -13  -2   16.55    1.65 
   1 -13  -2   16.56    2.16 
  -1  13   2   17.27    2.04 
  -1  13   2   17.51    1.85 
  -1  13   2   17.08    2.04 
  -1  13   2   14.80    2.00 
  -1  13   2   16.60    1.37 
   0 -13  -2   28.37    1.98 
   0 -13  -2   27.45    2.28 
   0 -13  -2   28.32    1.54 
   0  13   2   31.02    2.18 
   0  13   2   29.56    2.37 
   0  13   2   29.75    1.50 
   0  13   2   28.09    2.17 
  -1 -13  -2    1.73    0.68 
  -1 -13  -2    1.13    0.93 
   1  13   2    3.52    1.28 
   1  13   2    3.06    1.18 
  -2 -13  -2    0.59    0.97 
   2  13   2   -0.24    1.47 
   2  13   2   -0.19    1.24 
  -3 -13  -2   19.90    1.89 
   3  13   2   18.59    1.61 
   3  13   2   16.31    1.83 
  -4 -13  -2   36.92    2.28 
   4  13   2   38.49    1.92 
   4  13   2   35.35    3.20 
  -5 -13  -2   42.14    2.47 
   5  13   2   46.44    3.55 
  -6 -13  -2   65.75    3.13 
   6  13   2   77.52    5.57 
   6 -14  -2    2.52    1.01 
  -6  14   2   -0.39    1.59 
   5 -14  -2    3.85    0.98 
   5 -14  -2    0.87    1.62 
  -5  14   2    2.78    1.04 
  -5  14   2    0.82    1.44 
   4 -14  -2   12.79    1.98 
   4 -14  -2   10.56    1.22 
  -4  14   2   13.86    1.34 
  -4  14   2   10.74    1.29 
  -4  14   2   11.05    1.77 
  -4  14   2   10.28    1.30 
   3 -14  -2    5.96    1.00 
   3 -14  -2    6.23    1.62 
  -3  14   2    7.19    1.07 
  -3  14   2    7.26    1.58 
  -3  14   2    9.02    1.29 
  -3  14   2    6.13    1.70 
   2 -14  -2    5.18    1.56 
   2 -14  -2    6.04    0.94 
  -2  14   2    5.90    1.00 
  -2  14   2    7.86    1.35 
  -2  14   2    7.15    1.46 
  -2  14   2    5.96    1.34 
   1 -14  -2    1.91    0.84 
  -1  14   2    3.10    1.27 
  -1  14   2    2.65    1.29 
  -1  14   2    1.17    1.21 
  -1  14   2    2.00    0.80 
  -1  14   2    1.78    0.88 
   0  14   2    3.00    1.25 
   0  14   2    3.25    1.26 
   0  14   2    2.58    1.36 
  -1 -14  -2   22.09    2.04 
   1  14   2   24.17    2.70 
  -2 -14  -2   81.29    3.26 
   2  14   2   73.80    3.92 
  -3 -14  -2   65.52    3.06 
   3  14   2   71.80    2.78 
   3  14   2   66.53    3.91 
   4  14   2   42.19    3.51 
   2 -15  -2    6.38    1.08 
  -2  15   2    8.23    1.53 
  -2  15   2    8.85    1.69 
  -2  15   2   11.58    1.62 
   1 -15  -2   36.78    2.21 
  -1  15   2   32.87    2.97 
  -1  15   2   44.31    3.06 
  -2  13  -3    1.32    1.63 
   2 -13   3    0.57    1.81 
  -3  13  -3   -0.08    1.57 
  -3  13  -3    4.09    1.51 
   3 -13   3    3.83    1.87 
   4 -13   3   -0.61    1.64 
   2  12  -3    1.06    1.79 
  -2 -12   3    0.48    1.38 
  -2 -12   3    0.70    1.14 
   1  12  -3    9.43    1.79 
  -1 -12   3   10.71    1.67 
  -1 -12   3   10.30    1.42 
   0  12  -3    0.11    1.45 
   0 -12   3    0.31    1.42 
  -1  12  -3   27.24    2.92 
   1 -12   3   25.67    2.68 
  -2  12  -3    0.01    1.36 
   2 -12   3    1.88    1.40 
  -3  12  -3    0.20    1.19 
  -3  12  -3    1.85    1.32 
   3 -12   3   -0.82    1.49 
   3 -12   3    2.86    1.49 
   3 -12   3    2.14    0.90 
  -4  12  -3    8.79    1.53 
  -4  12  -3   12.84    1.71 
  -4  12  -3    8.56    1.05 
   4 -12   3    9.72    1.69 
   4 -12   3   11.03    1.87 
   4 -12   3   12.64    1.36 
  -5  12  -3   22.73    1.95 
  -5  12  -3   27.57    2.54 
  -5  12  -3   27.13    1.83 
   5 -12   3   23.30    1.65 
   5 -12   3   21.85    2.89 
  -6  12  -3   55.38    2.99 
  -6  12  -3   52.36    2.70 
   6 -12   3   57.69    3.59 
   6 -12   3   53.62    2.38 
  -7  12  -3  113.52    4.15 
  -7  12  -3  117.54    4.96 
  -7  12  -3  116.21    4.04 
   7 -12   3  115.67    3.86 
   7 -12   3  120.16    4.89 
   4  11  -3    5.97    1.92 
  -4 -11   3    7.41    1.32 
  -4 -11   3    6.94    1.47 
   3  11  -3    7.03    1.43 
   3  11  -3    7.17    1.89 
  -3 -11   3    7.58    1.31 
  -3 -11   3    8.71    1.31 
   2  11  -3   18.80    2.17 
   2  11  -3   19.68    1.99 
  -2 -11   3   20.89    1.86 
   1  11  -3   23.70    2.89 
   1  11  -3   24.34    2.04 
  -1 -11   3   24.58    2.34 
  -1 -11   3   27.56    1.93 
   0  11  -3   -1.44    1.21 
   0 -11   3    0.35    1.16 
   0 -11   3    0.88    1.00 
  -1  11  -3   -0.37    1.22 
   1 -11   3   -1.12    1.10 
   1 -11   3    1.52    1.36 
  -2  11  -3   21.21    2.34 
   2 -11   3   18.18    2.48 
   2 -11   3   19.04    2.30 
  -3  11  -3   50.59    2.01 
  -3  11  -3   54.50    2.93 
   3 -11   3   54.03    3.09 
   3 -11   3   53.17    1.92 
  -4  11  -3   93.42    3.53 
  -4  11  -3   79.53    2.97 
  -4  11  -3   82.59    2.89 
   4 -11   3   87.54    3.84 
  -5  11  -3  131.79    4.34 
  -5  11  -3  128.38    4.01 
  -5  11  -3  121.72    3.82 
   5 -11   3  132.26    3.83 
   5 -11   3  128.90    4.81 
   5 -11   3  132.32    4.54 
  -6  11  -3  103.91    3.12 
  -6  11  -3  108.33    3.72 
   6 -11   3  104.13    4.03 
   6 -11   3  106.36    3.48 
   6 -11   3  105.70    4.31 
  -7  11  -3   32.24    2.97 
  -7  11  -3   28.20    2.49 
  -7  11  -3   30.90    2.20 
   7 -11   3   34.36    2.87 
   7 -11   3   30.42    2.62 
   7 -11   3   30.26    2.03 
  -8  11  -3   19.86    2.17 
  -8  11  -3   17.27    2.35 
   8 -11   3   16.75    1.97 
   8 -11   3   18.20    2.36 
   8 -11   3   22.13    2.83 
  -9  11  -3    9.64    1.92 
   9 -11   3   10.72    1.83 
   9 -11   3    8.36    1.41 
   5  10  -3    1.69    1.70 
   5  10  -3    4.07    1.26 
  -5 -10   3    1.10    1.03 
  -5 -10   3    2.56    1.14 
   4  10  -3   10.14    1.92 
   4  10  -3   11.83    1.35 
  -4 -10   3   11.83    1.33 
  -4 -10   3   11.41    1.59 
   3  10  -3    6.38    1.60 
   3  10  -3    4.82    1.05 
  -3 -10   3    3.45    1.02 
  -3 -10   3    2.83    1.05 
   2  10  -3    0.23    0.95 
   2  10  -3   -0.42    1.24 
  -2 -10   3    0.41    1.63 
  -2 -10   3   -0.49    0.97 
   1  10  -3   17.34    1.72 
   1  10  -3   14.08    1.68 
  -1 -10   3   18.67    1.88 
  -1 -10   3   15.40    1.56 
  -1 -10   3   14.06    1.65 
   0  10  -3   39.41    2.66 
   0 -10   3   36.68    1.95 
  -1  10  -3   72.87    3.22 
   1 -10   3   73.50    3.10 
  -2  10  -3  143.46    3.86 
  -2  10  -3  145.82    4.69 
   2 -10   3  140.97    4.71 
   2 -10   3  144.94    3.78 
  -3  10  -3  134.95    4.34 
  -3  10  -3  129.41    3.67 
   3 -10   3  123.07    3.70 
   3 -10   3  129.91    4.49 
   3 -10   3  133.13    4.44 
  -4  10  -3  160.38    4.50 
  -4  10  -3  152.85    5.45 
   4 -10   3  168.35    5.12 
   4 -10   3  161.37    5.23 
   4 -10   3  157.07    4.38 
  -5  10  -3   81.04    2.68 
  -5  10  -3   81.97    3.15 
  -5  10  -3   78.67    2.92 
   5 -10   3   86.13    3.34 
   5 -10   3   85.22    2.79 
   5 -10   3   84.32    3.57 
  -6  10  -3   20.41    1.88 
  -6  10  -3   20.49    1.91 
  -6  10  -3   20.05    1.30 
   6 -10   3   20.87    2.33 
   6 -10   3   21.33    2.11 
   6 -10   3   18.62    1.60 
  -7  10  -3    1.01    1.06 
  -7  10  -3    3.43    0.98 
  -7  10  -3    4.11    1.37 
   7 -10   3    3.97    1.27 
   7 -10   3    4.18    1.14 
   7 -10   3    3.66    0.95 
  -8  10  -3   -1.41    1.16 
  -8  10  -3   -1.88    1.43 
   8 -10   3   -0.10    0.93 
   8 -10   3    0.47    1.14 
   8 -10   3   -0.30    1.23 
  -9  10  -3   -0.79    1.59 
   9 -10   3    0.65    1.01 
   9 -10   3    0.15    1.40 
   9 -10   3   -0.41    1.07 
 -10  10  -3    9.34    1.86 
  10 -10   3    9.39    1.45 
   7   9  -3    0.82    2.13 
   7   9  -3    3.98    1.37 
  -7  -9   3    2.21    1.25 
   6   9  -3    2.38    1.69 
   6   9  -3    2.89    1.20 
  -6  -9   3    2.95    1.12 
   5   9  -3   -1.71    1.44 
   5   9  -3    0.05    1.02 
  -5  -9   3   -1.39    1.01 
  -5  -9   3    0.76    0.72 
   4   9  -3    0.33    1.33 
   4   9  -3   -0.24    0.93 
  -4  -9   3    1.09    0.84 
   3   9  -3   37.71    2.87 
   3   9  -3   34.84    2.03 
  -3  -9   3   32.80    2.69 
  -3  -9   3   35.23    1.90 
  -3  -9   3   33.52    1.88 
   2   9  -3   95.83    3.26 
   2   9  -3  102.38    4.00 
  -2  -9   3   98.16    3.19 
  -2  -9   3   95.40    3.31 
   1   9  -3  202.99    5.68 
   1   9  -3  215.08    6.28 
  -1  -9   3  205.00    5.84 
  -1  -9   3  203.38    5.63 
   0   9  -3  218.33    6.41 
   0  -9   3  238.30    7.76 
   0  -9   3  204.78    6.11 
   0  -9   3  213.10    5.86 
  -1   9  -3  175.40    5.39 
   1  -9   3  180.07    5.40 
   1  -9   3  174.35    5.26 
  -2   9  -3  135.76    3.70 
  -2   9  -3  140.81    4.44 
   2  -9   3  141.00    4.49 
   2  -9   3  136.88    3.63 
   2  -9   3  139.42    4.68 
  -3   9  -3   89.03    2.75 
  -3   9  -3   91.61    3.31 
   3  -9   3   91.82    3.44 
   3  -9   3   91.78    3.36 
   3  -9   3   88.24    2.83 
  -4   9  -3   59.08    2.54 
  -4   9  -3   53.51    2.42 
   4  -9   3   52.06    2.67 
   4  -9   3   57.83    2.56 
   4  -9   3   55.78    2.00 
  -5   9  -3    0.24    0.83 
  -5   9  -3   -0.27    0.73 
   5  -9   3   -0.77    0.87 
   5  -9   3    1.47    1.02 
   5  -9   3    0.26    0.68 
  -6   9  -3    0.06    0.84 
  -6   9  -3   -0.60    0.77 
  -6   9  -3    0.77    0.56 
   6  -9   3    0.31    1.02 
   6  -9   3    0.53    0.89 
   6  -9   3   -0.70    0.72 
  -7   9  -3   -0.29    0.97 
  -7   9  -3    0.15    0.81 
   7  -9   3   -0.31    1.05 
   7  -9   3    0.69    0.82 
   7  -9   3    0.99    0.92 
  -8   9  -3    0.08    1.02 
  -8   9  -3    2.73    1.33 
   8  -9   3   -1.40    1.61 
   8  -9   3    0.71    1.09 
   8  -9   3   -0.10    0.92 
  -9   9  -3    1.40    1.17 
  -9   9  -3    4.38    1.56 
   9  -9   3    2.75    1.13 
   9  -9   3    4.64    1.35 
   9  -9   3    2.73    1.06 
 -10   9  -3    4.19    1.74 
  10  -9   3    2.67    1.41 
  10  -9   3    1.69    1.05 
  10  -9   3    2.19    1.08 
 -11   9  -3   36.45    3.47 
  11  -9   3   36.08    2.55 
  11  -9   3   40.32    3.14 
   8   8  -3    1.04    1.45 
   8   8  -3    1.48    1.78 
  -8  -8   3    2.04    1.26 
   7   8  -3    0.55    1.61 
   7   8  -3   -1.62    1.19 
  -7  -8   3    0.20    1.05 
   6   8  -3    7.37    1.29 
   6   8  -3   10.94    1.87 
  -6  -8   3   11.54    1.40 
   5   8  -3   48.74    2.37 
   5   8  -3   45.66    3.22 
  -5  -8   3   45.37    2.21 
  -5  -8   3   47.69    1.82 
   4   8  -3   87.54    3.13 
   4   8  -3   95.58    3.97 
  -4  -8   3   93.78    2.89 
  -4  -8   3   86.66    3.05 
   3   8  -3  143.02    4.86 
   3   8  -3  137.96    4.16 
  -3  -8   3  146.78    4.11 
  -3  -8   3  135.29    4.09 
   2   8  -3  243.98    6.89 
   2   8  -3  235.57    6.30 
  -2  -8   3  233.94    6.33 
  -2  -8   3  230.68    6.23 
   1   8  -3  181.75    5.36 
   1   8  -3  169.36    4.77 
  -1  -8   3  162.09    4.87 
  -1  -8   3  170.21    4.73 
  -1  -8   3  172.87    5.25 
   0   8  -3  130.64    4.20 
   0  -8   3  118.68    3.90 
   0  -8   3  128.03    3.69 
   0  -8   3  128.49    4.16 
  -1   8  -3   52.68    1.71 
  -1   8  -3   56.51    2.52 
   1  -8   3   55.86    2.07 
   1  -8   3   54.32    2.40 
   1  -8   3   54.95    1.60 
   1  -8   3   55.70    2.47 
  -2   8  -3   22.95    1.81 
  -2   8  -3   19.42    1.12 
   2  -8   3   24.41    1.09 
   2  -8   3   19.61    1.73 
   2  -8   3   21.49    1.78 
  -3   8  -3    0.63    0.57 
  -3   8  -3    1.06    0.80 
   3  -8   3    0.31    0.76 
   3  -8   3    0.45    0.87 
   3  -8   3    1.46    0.54 
  -4   8  -3   15.63    1.31 
  -4   8  -3   15.58    1.61 
   4  -8   3   15.74    1.18 
   4  -8   3   14.81    1.68 
   4  -8   3   17.38    1.59 
  -5   8  -3   58.19    2.38 
  -5   8  -3   59.03    2.28 
   5  -8   3   60.36    2.73 
   5  -8   3   60.00    2.88 
   5  -8   3   58.25    2.19 
  -6   8  -3   13.21    1.53 
  -6   8  -3   12.07    0.87 
  -6   8  -3   15.02    1.49 
   6  -8   3   13.02    1.38 
   6  -8   3   13.61    1.78 
   6  -8   3   13.95    1.85 
  -7   8  -3    0.54    0.72 
  -7   8  -3    0.59    0.89 
   7  -8   3   -0.38    0.77 
   7  -8   3    0.84    0.97 
   7  -8   3    0.60    0.83 
  -8   8  -3   18.36    2.01 
  -8   8  -3   19.86    2.38 
   8  -8   3   17.12    2.01 
   8  -8   3   17.74    1.70 
   8  -8   3   20.17    1.74 
  -9   8  -3   24.08    2.58 
  -9   8  -3   17.73    2.22 
   9  -8   3   19.11    1.75 
   9  -8   3   20.22    2.19 
   9  -8   3   18.14    1.81 
 -10   8  -3   43.77    3.07 
 -10   8  -3   41.56    3.78 
  10  -8   3   40.22    2.33 
  10  -8   3   36.80    2.15 
  10  -8   3   42.02    2.78 
 -11   8  -3   83.40    3.95 
  11  -8   3   70.14    2.80 
  11  -8   3   81.72    3.70 
  11  -8   3   77.83    3.27 
 -12   8  -3  104.32    4.64 
  12  -8   3   97.88    3.88 
  12  -8   3   97.21    4.34 
   9   7  -3    2.62    1.79 
   9   7  -3   -2.98    1.43 
  -9  -7   3    0.42    1.20 
   8   7  -3    0.53    1.32 
   8   7  -3   -1.36    1.56 
  -8  -7   3   -0.40    1.01 
   7   7  -3   49.24    2.67 
   7   7  -3   53.19    3.53 
  -7  -7   3   55.16    2.94 
   6   7  -3   39.61    3.03 
   6   7  -3   35.37    2.17 
  -6  -7   3   37.84    2.00 
   5   7  -3   57.58    2.43 
   5   7  -3   55.72    3.21 
  -5  -7   3   56.73    2.29 
  -5  -7   3   54.56    1.92 
   4   7  -3  119.61    3.73 
   4   7  -3  126.37    4.39 
  -4  -7   3  119.39    3.67 
  -4  -7   3  124.07    3.49 
   3   7  -3   57.98    2.22 
   3   7  -3   58.14    2.84 
  -3  -7   3   54.86    2.14 
  -3  -7   3   55.20    2.09 
   2   7  -3   42.55    1.87 
   2   7  -3   46.15    2.64 
  -2  -7   3   43.18    2.37 
  -2  -7   3   41.66    1.87 
  -2  -7   3   43.73    1.80 
   1   7  -3   13.90    1.22 
   1   7  -3   11.19    1.24 
  -1  -7   3   11.99    1.30 
  -1  -7   3   12.32    1.12 
  -1  -7   3   10.52    1.16 
   0   7  -3    0.25    0.76 
   0  -7   3    0.58    0.69 
   0  -7   3    0.90    0.60 
   0  -7   3    0.75    0.73 
  -1   7  -3   24.48    1.02 
  -1   7  -3   26.33    1.75 
   1  -7   3   22.60    1.66 
   1  -7   3   24.41    1.31 
   1  -7   3   22.56    1.57 
   1  -7   3   22.56    0.92 
  -2   7  -3   34.33    1.87 
  -2   7  -3   34.51    1.34 
   2  -7   3   34.98    1.84 
   2  -7   3   36.80    1.87 
   2  -7   3   35.21    1.28 
  -3   7  -3   29.62    1.58 
  -3   7  -3   36.08    1.83 
   3  -7   3   33.76    1.36 
   3  -7   3   34.67    1.87 
   3  -7   3   32.67    2.03 
  -4   7  -3   20.11    1.50 
  -4   7  -3   18.33    1.27 
   4  -7   3   17.09    1.45 
   4  -7   3   20.59    1.50 
   4  -7   3   18.43    1.61 
  -5   7  -3    0.12    0.65 
   5  -7   3    0.27    0.67 
   5  -7   3    0.91    0.81 
   5  -7   3    0.13    0.62 
  -6   7  -3    4.48    0.87 
  -6   7  -3    3.03    0.76 
   6  -7   3    3.36    0.98 
   6  -7   3    3.15    0.75 
   6  -7   3    2.60    0.77 
  -7   7  -3    5.04    0.95 
   7  -7   3    8.01    1.12 
   7  -7   3    7.17    0.92 
   7  -7   3    6.83    1.01 
  -8   7  -3  170.92    5.37 
  -8   7  -3  168.54    5.08 
   8  -7   3  170.81    4.76 
   8  -7   3  159.46    4.90 
   8  -7   3  173.61    5.21 
  -9   7  -3   24.77    2.22 
  -9   7  -3   25.54    2.39 
   9  -7   3   25.29    2.06 
   9  -7   3   23.13    1.72 
   9  -7   3   25.04    1.87 
 -10   7  -3   62.91    3.22 
 -10   7  -3   60.13    3.05 
  10  -7   3   62.56    3.00 
  10  -7   3   61.49    2.71 
  10  -7   3   56.90    2.45 
 -11   7  -3   57.46    3.35 
  11  -7   3   57.47    3.08 
  11  -7   3   59.80    2.73 
  11  -7   3   47.15    2.37 
 -12   7  -3   13.55    1.99 
  12  -7   3   15.11    1.85 
  12  -7   3   15.41    1.61 
 -13   7  -3    7.42    1.99 
  13  -7   3    5.10    1.47 
  13  -7   3    6.41    1.67 
   9   6  -3   38.63    3.59 
   9   6  -3   31.51    2.77 
  -9  -6   3   34.79    2.24 
   8   6  -3   26.14    2.40 
   8   6  -3   32.00    3.01 
  -8  -6   3   26.32    2.01 
   7   6  -3  126.41    4.71 
   7   6  -3  122.89    4.06 
  -7  -6   3  119.09    3.83 
   6   6  -3   76.49    3.50 
   6   6  -3   71.94    2.81 
  -6  -6   3   72.42    2.63 
   5   6  -3   66.76    2.55 
   5   6  -3   71.93    3.23 
  -5  -6   3   68.84    3.12 
  -5  -6   3   66.61    2.11 
  -5  -6   3   66.26    2.44 
   4   6  -3   46.66    2.90 
   4   6  -3   44.70    1.98 
  -4  -6   3   44.37    1.86 
  -4  -6   3   43.06    2.44 
  -4  -6   3   43.69    1.71 
   3   6  -3    0.78    0.89 
   3   6  -3    0.79    0.64 
  -3  -6   3    0.85    0.64 
  -3  -6   3    0.04    0.58 
  -3  -6   3    0.87    0.79 
   2   6  -3    3.72    0.69 
   2   6  -3    4.26    0.91 
  -2  -6   3    3.97    0.85 
  -2  -6   3    4.83    0.76 
  -2  -6   3    3.92    0.69 
   1   6  -3   13.44    1.51 
  -1  -6   3   14.76    1.03 
  -1  -6   3   13.37    1.47 
  -1  -6   3   14.20    1.22 
   0   6  -3   28.70    1.73 
   0  -6   3   30.00    1.68 
   0  -6   3   28.38    1.52 
   0  -6   3   29.58    1.30 
  -1   6  -3   26.40    1.61 
  -1   6  -3   26.62    1.02 
   1  -6   3   27.57    0.95 
   1  -6   3   26.82    1.24 
   1  -6   3   25.06    1.55 
   1  -6   3   26.57    1.48 
  -2   6  -3    0.31    0.61 
  -2   6  -3    0.57    0.38 
   2  -6   3    0.29    0.40 
   2  -6   3    0.48    0.61 
   2  -6   3    0.37    0.61 
  -3   6  -3   73.29    2.25 
  -3   6  -3   73.94    2.53 
   3  -6   3   77.60    2.25 
   3  -6   3   75.44    2.61 
   3  -6   3   74.52    2.54 
  -4   6  -3   21.06    1.21 
  -4   6  -3   20.38    1.37 
   4  -6   3   20.70    1.33 
   4  -6   3   19.86    1.17 
   4  -6   3   21.34    1.46 
  -5   6  -3  115.99    3.39 
  -5   6  -3  114.36    3.35 
   5  -6   3  114.68    3.40 
   5  -6   3  117.25    3.64 
   5  -6   3  112.18    3.33 
  -6   6  -3  353.45    8.94 
  -6   6  -3  349.34    8.74 
   6  -6   3  358.74    8.91 
   6  -6   3  339.82    8.86 
   6  -6   3  350.88    9.11 
  -7   6  -3  291.34    7.61 
  -7   6  -3  288.15    7.77 
   7  -6   3  280.99    7.70 
   7  -6   3  298.91    7.72 
   7  -6   3  280.47    7.51 
  -8   6  -3  205.31    5.88 
  -8   6  -3  210.01    6.70 
   8  -6   3  205.69    5.79 
   8  -6   3  214.55    5.90 
  -9   6  -3   51.67    2.52 
  -9   6  -3   51.42    2.72 
   9  -6   3   48.36    2.05 
   9  -6   3   49.76    2.50 
   9  -6   3   48.00    2.31 
 -10   6  -3   62.50    3.01 
 -10   6  -3   68.09    3.21 
  10  -6   3   68.97    2.98 
  10  -6   3   66.80    2.45 
  10  -6   3   66.98    2.77 
 -11   6  -3   15.24    1.92 
 -11   6  -3   20.26    2.48 
  11  -6   3   19.55    1.86 
  11  -6   3   21.16    2.19 
  11  -6   3   13.89    1.67 
 -12   6  -3   -2.37    1.49 
  12  -6   3    0.53    0.94 
  12  -6   3    0.17    0.91 
  12  -6   3    1.26    1.26 
 -13   6  -3    6.82    1.85 
  13  -6   3    5.63    1.54 
  13  -6   3    3.46    1.21 
  10   5  -3   55.80    3.20 
  10   5  -3   57.04    3.84 
 -10  -5   3   51.95    2.71 
   9   5  -3   71.22    3.39 
   9   5  -3   83.58    3.99 
  -9  -5   3   81.46    3.12 
   8   5  -3   41.95    3.03 
   8   5  -3   41.90    2.44 
  -8  -5   3   39.78    2.08 
   7   5  -3   39.39    2.23 
   7   5  -3   41.30    2.77 
  -7  -5   3   40.12    1.96 
   6   5  -3   15.55    2.11 
   6   5  -3   15.60    1.57 
  -6  -5   3   15.94    1.35 
  -6  -5   3   15.51    0.95 
   5   5  -3    2.08    0.77 
   5   5  -3    1.91    1.15 
  -5  -5   3    2.30    0.98 
  -5  -5   3    1.82    0.72 
  -5  -5   3    2.78    0.55 
   4   5  -3   12.13    1.25 
   4   5  -3   13.83    1.74 
  -4  -5   3   11.22    1.10 
  -4  -5   3   10.23    1.13 
  -4  -5   3   10.71    0.96 
   3   5  -3   27.39    1.45 
   3   5  -3   27.78    1.87 
  -3  -5   3   26.01    1.27 
  -3  -5   3   26.86    1.32 
  -3  -5   3   28.35    1.78 
   2   5  -3   32.75    1.43 
   2   5  -3   31.99    1.81 
  -2  -5   3   31.63    1.33 
  -2  -5   3   28.03    1.68 
  -2  -5   3   30.12    1.37 
   1   5  -3   55.70    2.23 
   1   5  -3   55.95    1.89 
  -1  -5   3   54.41    1.92 
  -1  -5   3   57.01    1.80 
  -1  -5   3   54.81    2.22 
   0   5  -3   30.44    1.59 
   0  -5   3   28.27    1.39 
   0  -5   3   26.16    1.52 
   0  -5   3   27.74    1.18 
  -1   5  -3    3.14    0.65 
  -1   5  -3    2.95    0.39 
   1  -5   3    4.01    0.66 
   1  -5   3    2.57    0.62 
   1  -5   3    3.87    0.54 
   1  -5   3    3.85    0.39 
  -2   5  -3   60.74    2.16 
  -2   5  -3   61.15    1.84 
   2  -5   3   60.22    2.15 
   2  -5   3   64.94    2.21 
   2  -5   3   63.94    1.83 
  -3   5  -3  227.84    5.98 
  -3   5  -3  229.27    5.81 
   3  -5   3  230.41    5.78 
   3  -5   3  235.24    6.07 
  -4   5  -3  164.88    4.44 
   4  -5   3  161.39    4.45 
   4  -5   3  163.91    4.36 
   4  -5   3  170.90    4.62 
  -5   5  -3  267.77    6.85 
  -5   5  -3  267.84    6.77 
   5  -5   3  273.41    6.83 
   5  -5   3  260.51    6.82 
   5  -5   3  267.01    6.99 
   6  -5   3  196.43    5.12 
   6  -5   3  190.98    5.37 
   6  -5   3  194.50    5.19 
  -7   5  -3  142.09    4.19 
  -7   5  -3  144.07    4.34 
   7  -5   3  139.86    4.26 
   7  -5   3  147.80    3.99 
   7  -5   3  139.56    4.09 
  -8   5  -3   64.50    2.55 
  -8   5  -3   61.99    2.72 
   8  -5   3   61.05    2.39 
   8  -5   3   62.39    2.23 
   8  -5   3   60.32    2.53 
  -9   5  -3    2.04    0.94 
   9  -5   3    4.29    0.93 
   9  -5   3    1.70    0.92 
 -10   5  -3    0.90    1.41 
 -10   5  -3    0.28    1.01 
  10  -5   3    0.65    0.92 
  10  -5   3   -1.14    0.77 
  10  -5   3    0.84    0.72 
 -11   5  -3    2.94    1.32 
  11  -5   3    1.32    0.91 
  11  -5   3    2.98    0.85 
  11  -5   3    4.17    1.16 
 -12   5  -3    7.10    1.52 
  12  -5   3    8.32    1.40 
  12  -5   3    6.41    1.17 
  12  -5   3    7.23    1.06 
 -13   5  -3    8.16    1.80 
  13  -5   3    7.95    1.14 
  13  -5   3    6.19    1.22 
  13  -5   3   10.60    1.53 
 -14   5  -3    0.49    1.87 
  14  -5   3   -0.72    1.57 
  14  -5   3    0.23    1.48 
  11   4  -3   43.33    3.85 
 -11  -4   3   41.71    2.94 
  10   4  -3   53.20    3.14 
  10   4  -3   64.83    3.67 
 -10  -4   3   56.91    2.93 
 -10  -4   3   60.85    2.65 
   9   4  -3   40.20    2.97 
   9   4  -3   39.52    1.67 
   9   4  -3   32.06    2.51 
  -9  -4   3   37.82    2.33 
  -9  -4   3   40.99    2.08 
  -9  -4   3   37.51    1.84 
   8   4  -3    8.31    1.22 
   8   4  -3   11.30    1.10 
   8   4  -3    9.29    1.51 
  -8  -4   3   10.15    1.39 
  -8  -4   3    9.98    1.39 
  -8  -4   3    8.71    1.37 
   7   4  -3    1.37    0.56 
   7   4  -3    0.68    0.89 
   7   4  -3    0.36    0.98 
  -7  -4   3    0.73    0.62 
  -7  -4   3    0.31    0.78 
   6   4  -3    4.90    0.90 
   6   4  -3    4.76    1.06 
  -6  -4   3    4.37    0.60 
   5   4  -3   10.04    1.17 
   5   4  -3   12.42    1.30 
  -5  -4   3   13.23    1.64 
  -5  -4   3   10.71    1.10 
   4   4  -3   24.38    1.73 
   4   4  -3   22.16    1.35 
  -4  -4   3   21.28    1.66 
  -4  -4   3   21.17    1.17 
   3   4  -3    5.99    0.91 
   3   4  -3    6.23    0.68 
  -3  -4   3    7.33    0.81 
   2   4  -3    0.56    0.45 
   2   4  -3    0.84    0.62 
  -2  -4   3    1.43    0.59 
  -2  -4   3    0.38    0.43 
   1   4  -3   69.44    2.44 
   1   4  -3   70.68    2.16 
  -1  -4   3   71.98    2.06 
  -1  -4   3   69.56    2.41 
   0   4  -3  105.50    2.76 
   0   4  -3  109.96    3.24 
   0  -4   3  111.28    3.28 
   0  -4   3  105.28    3.32 
  -1   4  -3   57.65    1.67 
  -1   4  -3   58.19    2.04 
   1  -4   3   55.88    2.01 
   1  -4   3   61.83    1.98 
  -2   4  -3  386.17    9.67 
  -2   4  -3  389.70    9.45 
   2  -4   3  389.47    9.69 
   2  -4   3  404.75    9.71 
  -3   4  -3  366.22    9.07 
  -3   4  -3  372.12    8.97 
   3  -4   3  362.07    9.08 
   3  -4   3  370.95    9.18 
  -4   4  -3  227.59    5.79 
  -4   4  -3  225.24    5.78 
   4  -4   3  227.90    5.93 
   4  -4   3  229.14    5.82 
  -5   4  -3  133.76    3.61 
  -5   4  -3  132.88    3.72 
   5  -4   3  133.10    3.81 
   5  -4   3  134.76    3.64 
  -6   4  -3    8.26    1.11 
   6  -4   3    8.18    1.10 
   6  -4   3    6.63    0.90 
  -7   4  -3    5.22    0.89 
  -7   4  -3    4.82    0.80 
   7  -4   3    5.28    0.65 
   7  -4   3    6.76    0.83 
   7  -4   3    5.10    0.81 
  -8   4  -3    2.86    0.82 
  -8   4  -3    4.23    0.92 
   8  -4   3    3.76    0.80 
   8  -4   3    3.58    0.84 
   8  -4   3    3.23    0.66 
  -9   4  -3   18.91    1.83 
  -9   4  -3   17.09    1.71 
   9  -4   3   17.45    1.50 
   9  -4   3   15.95    1.61 
  10  -4   3    2.99    0.85 
  10  -4   3    2.63    0.93 
  10  -4   3    3.65    0.75 
 -11   4  -3   -2.06    1.12 
  11  -4   3   -0.61    0.81 
  11  -4   3    0.68    0.71 
 -12   4  -3    1.20    1.33 
  12  -4   3    0.51    1.07 
  12  -4   3    1.91    0.96 
  12  -4   3    2.29    0.88 
 -13   4  -3    6.55    1.68 
  13  -4   3    5.66    1.34 
  13  -4   3    3.88    1.59 
  13  -4   3    5.42    1.20 
 -14   4  -3   33.19    3.39 
  14  -4   3   34.12    2.25 
  14  -4   3   38.31    2.82 
  14  -4   3   30.69    2.35 
  11   3  -3   13.91    1.69 
  11   3  -3   11.74    1.92 
  11   3  -3   11.31    1.67 
 -11  -3   3   13.92    1.71 
 -11  -3   3   11.10    1.62 
  10   3  -3    5.22    1.51 
  10   3  -3    5.38    1.05 
  10   3  -3    4.83    1.39 
 -10  -3   3    7.30    1.30 
 -10  -3   3    6.47    1.05 
   9   3  -3    1.24    1.19 
   9   3  -3    2.23    0.78 
   9   3  -3    2.00    1.08 
  -9  -3   3    0.63    1.00 
   8   3  -3    4.40    1.19 
   8   3  -3    3.53    1.00 
   8   3  -3    4.00    0.72 
  -8  -3   3    3.67    0.98 
   7   3  -3    4.91    1.10 
   7   3  -3    5.22    0.94 
   7   3  -3    5.24    0.70 
  -7  -3   3    4.25    0.54 
  -7  -3   3    3.77    0.76 
  -7  -3   3    6.31    0.98 
   6   3  -3    8.02    0.99 
   6   3  -3    7.02    1.07 
   6   3  -3    8.44    0.89 
  -6  -3   3    7.77    1.02 
  -6  -3   3    7.47    1.07 
  -6  -3   3    8.14    0.91 
   5   3  -3    0.30    0.69 
   5   3  -3    0.05    0.61 
   5   3  -3    0.55    0.42 
  -5  -3   3    0.03    0.57 
  -5  -3   3    0.34    0.43 
  -5  -3   3   -0.25    0.68 
   4   3  -3    1.02    0.67 
   4   3  -3    1.47    0.55 
  -4  -3   3    0.37    0.52 
  -4  -3   3    2.37    0.68 
  -4  -3   3    1.46    0.41 
   3   3  -3   72.19    2.54 
   3   3  -3   72.86    2.28 
  -3  -3   3   73.22    2.01 
  -3  -3   3   76.14    2.15 
  -3  -3   3   70.88    2.49 
   2   3  -3  294.96    7.54 
   2   3  -3  286.70    7.34 
  -2  -3   3  303.77    7.35 
  -2  -3   3  295.48    7.05 
  -2  -3   3  290.56    7.51 
   1   3  -3  381.13    9.28 
   1   3  -3  369.60    9.05 
   1   3  -3  382.87    9.49 
  -1  -3   3  392.13    9.18 
  -1  -3   3  386.86    9.04 
  -1  -3   3  375.68    9.47 
   0   3  -3  232.69    5.77 
   0   3  -3  237.35    6.11 
   0  -3   3  245.16    5.82 
   0  -3   3  234.69    6.09 
   0  -3   3  240.67    5.74 
  -1   3  -3  290.99    7.12 
  -1   3  -3  290.61    7.38 
   1  -3   3  306.27    7.14 
   1  -3   3  285.82    7.36 
   1  -3   3  302.10    7.12 
  -2   3  -3  444.56   10.81 
  -2   3  -3  434.90   10.64 
   2  -3   3  442.76   10.81 
   2  -3   3  457.20   10.82 
  -3   3  -3  181.36    4.62 
  -3   3  -3  181.89    4.70 
   3  -3   3  179.34    4.69 
   3  -3   3  185.40    4.76 
  -4   3  -3   65.45    2.02 
  -4   3  -3   65.24    2.04 
   4  -3   3   64.45    2.13 
   4  -3   3   64.48    2.00 
  -5   3  -3    2.70    0.64 
   5  -3   3    1.53    0.54 
   5  -3   3    2.31    0.48 
  -6   3  -3    0.19    0.54 
   6  -3   3    0.36    0.51 
   6  -3   3    1.24    0.45 
  -7   3  -3    1.38    0.69 
  -7   3  -3    0.92    0.74 
   7  -3   3    0.13    0.55 
   7  -3   3    0.74    0.47 
  -8   3  -3    8.25    0.98 
  -8   3  -3    7.92    0.93 
   8  -3   3    9.14    0.97 
   8  -3   3   10.89    1.16 
  -9   3  -3    0.16    0.83 
  -9   3  -3   -1.36    0.70 
   9  -3   3   -0.31    0.71 
   9  -3   3    1.74    1.00 
   9  -3   3   -0.57    0.63 
 -10   3  -3   14.45    1.89 
  10  -3   3   16.21    1.53 
  10  -3   3   16.13    1.60 
  10  -3   3   15.76    1.34 
 -11   3  -3   36.85    2.49 
  11  -3   3   36.57    2.08 
  11  -3   3   35.32    1.80 
  11  -3   3   34.83    2.02 
 -12   3  -3  101.07    3.86 
 -12   3  -3  103.33    3.99 
  12  -3   3  106.39    3.62 
  12  -3   3   98.16    3.55 
 -13   3  -3   84.45    3.80 
  13  -3   3   84.90    3.08 
  13  -3   3   86.50    3.33 
  13  -3   3   80.06    3.24 
 -14   3  -3   53.81    3.62 
  14  -3   3   56.75    2.83 
  14  -3   3   57.98    2.84 
 -12  -2   3    5.22    1.59 
  11   2  -3    1.27    0.95 
  11   2  -3    2.35    1.48 
  11   2  -3    2.24    1.40 
 -11  -2   3    1.60    1.10 
 -11  -2   3    2.57    1.30 
  10   2  -3   14.31    1.65 
  10   2  -3   11.84    1.55 
  10   2  -3   14.04    1.53 
 -10  -2   3   16.92    2.06 
   9   2  -3   13.50    1.38 
   9   2  -3   12.50    1.42 
   9   2  -3   11.08    1.65 
  -9  -2   3   10.78    1.25 
   8   2  -3    7.12    0.84 
   8   2  -3    5.47    1.02 
   8   2  -3    6.23    1.14 
  -8  -2   3    8.26    0.88 
  -8  -2   3    6.56    1.08 
   7   2  -3   -0.07    0.82 
   7   2  -3   -0.49    0.74 
   7   2  -3   -0.32    0.56 
  -7  -2   3   -0.87    0.73 
  -7  -2   3   -0.24    0.46 
   6   2  -3   14.84    1.40 
   6   2  -3   15.81    1.01 
   6   2  -3   17.77    1.60 
  -6  -2   3   16.29    1.38 
   5   2  -3   33.49    1.23 
   5   2  -3   35.15    1.62 
   5   2  -3   34.44    1.78 
  -5  -2   3   35.66    1.59 
  -5  -2   3   34.61    1.76 
   4   2  -3   65.89    2.34 
   4   2  -3   62.80    2.14 
   4   2  -3   64.94    1.81 
  -4  -2   3   65.89    2.31 
  -4  -2   3   64.26    1.95 
  -4  -2   3   67.33    2.14 
   3   2  -3  435.92   10.60 
   3   2  -3  444.60   10.25 
   3   2  -3  436.18   10.72 
  -3  -2   3  436.40   10.37 
  -3  -2   3  443.76   10.52 
  -3  -2   3  397.85   11.38 
   2   2  -3  349.90    8.57 
   2   2  -3  347.32    8.28 
   2   2  -3  348.59    8.73 
  -2  -2   3  348.11    8.72 
  -2  -2   3  345.70    8.41 
  -2  -2   3  348.27    8.54 
  -2  -2   3  364.53    8.43 
   1   2  -3  162.62    4.15 
   1   2  -3  159.59    4.00 
   1   2  -3  167.35    4.33 
  -1  -2   3  162.13    4.30 
  -1  -2   3  159.64    4.13 
  -1  -2   3  163.25    4.01 
   0   2  -3   15.47    0.81 
   0   2  -3   15.47    0.73 
   0   2  -3   16.43    1.00 
   0  -2   3   17.08    0.68 
   0  -2   3   16.45    0.67 
   0  -2   3   15.85    0.96 
  -1   2  -3   63.74    1.98 
  -1   2  -3   65.41    1.82 
   1  -2   3   66.06    1.99 
   1  -2   3   67.27    1.78 
  -2   2  -3    6.10    0.73 
  -2   2  -3    5.61    0.57 
   2  -2   3    6.43    0.58 
   2  -2   3    5.67    0.72 
  -3   2  -3   38.52    1.32 
  -3   2  -3   39.23    1.36 
   3  -2   3   39.40    1.32 
   3  -2   3   39.01    1.36 
  -4   2  -3  133.31    3.56 
  -4   2  -3  133.82    3.28 
   4  -2   3  131.40    3.50 
   4  -2   3  135.96    3.60 
  -5   2  -3  100.78    2.88 
   5  -2   3   97.98    2.86 
   5  -2   3  100.63    2.77 
  -6   2  -3   15.20    1.16 
  -6   2  -3   17.13    1.17 
   6  -2   3   16.87    0.98 
   6  -2   3   16.30    1.08 
  -7   2  -3    2.40    0.64 
  -7   2  -3    2.01    0.64 
   7  -2   3    2.22    0.60 
   7  -2   3    2.41    0.51 
  -8   2  -3    1.36    0.71 
  -8   2  -3    1.71    0.74 
   8  -2   3    1.64    0.62 
  -9   2  -3   47.69    2.19 
  -9   2  -3   49.43    2.22 
   9  -2   3   49.01    2.04 
   9  -2   3   46.49    1.97 
 -10   2  -3  124.11    3.97 
 -10   2  -3  121.68    3.92 
  10  -2   3  116.88    3.71 
  10  -2   3  120.49    3.71 
 -11   2  -3  144.20    4.54 
  11  -2   3  145.18    4.30 
  11  -2   3  137.90    4.29 
 -12   2  -3   94.42    3.54 
 -12   2  -3   85.58    3.58 
  12  -2   3   92.36    3.22 
  12  -2   3   90.42    3.27 
 -13   2  -3   60.10    3.19 
  13  -2   3   65.90    2.73 
  13  -2   3   60.20    2.75 
 -14   2  -3   38.32    3.19 
  14  -2   3   39.63    2.44 
  14  -2   3   35.62    2.71 
  12   1  -3   12.23    1.86 
  12   1  -3   11.55    1.33 
 -12  -1   3   10.60    1.72 
 -12  -1   3    9.76    1.42 
  11   1  -3    0.83    1.32 
  11   1  -3    2.98    1.33 
  11   1  -3    3.41    1.01 
 -11  -1   3    3.64    1.30 
  10   1  -3    2.94    0.92 
  10   1  -3    0.99    1.19 
  10   1  -3   -0.66    1.97 
 -10  -1   3    1.31    1.06 
 -10  -1   3    1.22    0.64 
   9   1  -3    2.90    1.08 
   9   1  -3    2.34    0.89 
   9   1  -3    2.58    1.05 
  -9  -1   3    2.83    0.60 
  -9  -1   3    2.34    0.98 
   8   1  -3   29.77    1.98 
   8   1  -3   31.02    2.05 
   8   1  -3   29.72    1.59 
  -8  -1   3   31.05    1.94 
  -8  -1   3   30.55    1.36 
   7   1  -3   65.43    2.55 
   7   1  -3   69.62    2.65 
  -7  -1   3   70.73    2.54 
  -7  -1   3   63.79    2.08 
   6   1  -3  125.18    3.35 
   6   1  -3  119.70    3.71 
  -6  -1   3  122.61    3.61 
   5   1  -3  111.26    3.24 
   5   1  -3  109.82    2.94 
   5   1  -3  108.77    3.31 
  -5  -1   3  111.08    3.21 
  -5  -1   3  106.06    3.26 
   4   1  -3  273.04    6.63 
   4   1  -3  266.08    6.96 
   4   1  -3  277.70    7.14 
  -4  -1   3  275.41    6.86 
  -4  -1   3  269.10    6.94 
   3   1  -3  361.64    9.05 
   3   1  -3  371.07    8.97 
   3   1  -3  371.02    8.73 
  -3  -1   3  358.73    8.84 
  -3  -1   3  366.32    9.04 
  -3  -1   3  364.44    8.94 
   2   1  -3  132.78    3.18 
   2   1  -3  128.55    3.51 
   2   1  -3  126.54    3.39 
  -2  -1   3  126.40    3.48 
  -2  -1   3  128.92    3.38 
  -2  -1   3  127.39    3.29 
   1   1  -3   49.98    1.33 
   1   1  -3   49.73    1.53 
   1   1  -3   48.12    1.43 
   1   1  -3   50.52    1.67 
  -1  -1   3   48.98    1.63 
  -1  -1   3   49.39    1.51 
  -1  -1   3   47.89    1.46 
  -1  -1   3   51.98    1.35 
   0   1  -3   84.11    2.06 
   0   1  -3   82.86    2.34 
   0   1  -3   81.73    2.19 
   0   1  -3   81.69    2.22 
   0   1  -3   81.27    2.07 
   0  -1   3   84.29    2.06 
   0  -1   3   80.68    2.32 
   0  -1   3   84.06    2.19 
  -1   1  -3  132.43    3.36 
  -1   1  -3  135.03    3.22 
  -1   1  -3  130.64    3.45 
   1  -1   3  135.07    3.33 
   1  -1   3  131.43    3.45 
  -2   1  -3  125.62    3.33 
  -2   1  -3  128.35    3.27 
   2  -1   3  128.27    3.34 
   2  -1   3  132.35    3.27 
  -3   1  -3  104.44    2.62 
  -3   1  -3  102.78    2.77 
   3  -1   3  104.17    2.76 
   3  -1   3  105.21    2.77 
  -4   1  -3   15.94    0.64 
  -4   1  -3   15.19    0.89 
   4  -1   3   16.63    0.88 
   4  -1   3   16.94    0.86 
  -5   1  -3    6.68    0.88 
   5  -1   3    5.50    0.46 
   5  -1   3    5.08    0.60 
  -6   1  -3   64.11    2.17 
  -6   1  -3   65.33    2.16 
   6  -1   3   68.10    2.08 
   6  -1   3   66.58    1.76 
  -7   1  -3   91.90    2.76 
  -7   1  -3   90.38    2.82 
   7  -1   3   88.19    2.35 
   7  -1   3   91.10    2.68 
  -8   1  -3   97.26    3.05 
  -8   1  -3   92.72    2.93 
   8  -1   3   92.90    2.51 
   8  -1   3   95.21    2.84 
  -9   1  -3  104.41    3.34 
  -9   1  -3  105.07    3.24 
   9  -1   3   98.24    3.05 
   9  -1   3   97.71    2.72 
 -10   1  -3  143.41    4.28 
 -10   1  -3  142.61    4.33 
  10  -1   3  136.74    3.71 
  10  -1   3  145.38    4.18 
  10  -1   3  139.11    4.06 
 -11   1  -3  104.68    3.99 
 -11   1  -3  107.54    3.57 
  11  -1   3  100.27    2.86 
  11  -1   3   96.31    3.32 
  11  -1   3   97.49    3.20 
 -12   1  -3   12.51    2.25 
  12  -1   3   17.77    1.18 
  12  -1   3   16.45    1.65 
  12  -1   3   15.87    1.54 
 -13   1  -3    8.12    1.49 
 -13   1  -3    9.03    2.11 
  13  -1   3    6.77    1.15 
  13  -1   3    7.59    1.28 
  13  -1   3    8.45    0.95 
 -14   1  -3    0.49    1.53 
  14  -1   3    0.76    0.99 
  14  -1   3    0.96    1.29 
  12   0  -3    1.00    1.05 
  12   0  -3    1.23    1.42 
 -12   0   3    2.40    1.53 
  11   0  -3    4.90    1.08 
  11   0  -3    5.43    1.40 
 -11   0   3    6.18    1.39 
 -11   0   3    5.20    0.85 
  10   0  -3   36.53    2.49 
  10   0  -3   38.64    2.01 
  10   0  -3   39.94    2.48 
 -10   0   3   37.78    1.74 
 -10   0   3   39.01    2.43 
   9   0  -3   55.88    2.67 
   9   0  -3   58.88    2.62 
   9   0  -3   56.02    2.26 
  -9   0   3   59.54    2.71 
   8   0  -3  135.94    4.12 
   8   0  -3  132.95    3.84 
   8   0  -3  135.39    4.17 
  -8   0   3  133.63    3.72 
  -8   0   3  133.43    4.11 
   7   0  -3  161.42    4.59 
   7   0  -3  159.52    4.35 
   7   0  -3  161.53    4.65 
  -7   0   3  161.03    4.29 
  -7   0   3  160.81    4.60 
   6   0  -3  125.83    3.64 
   6   0  -3  124.35    3.42 
   6   0  -3  124.24    3.74 
  -6   0   3  123.94    3.65 
  -6   0   3  123.22    3.38 
   5   0  -3   51.20    1.90 
   5   0  -3   51.40    1.93 
   5   0  -3   53.00    1.70 
  -5   0   3   53.18    1.95 
  -5   0   3   50.26    1.85 
   4   0  -3   84.79    2.57 
   4   0  -3   89.81    2.39 
   4   0  -3   84.35    2.85 
  -4   0   3   85.15    2.56 
  -4   0   3   84.78    2.57 
   3   0  -3   65.13    1.82 
   3   0  -3   64.81    2.03 
   3   0  -3   64.61    2.03 
  -3   0   3   65.76    2.03 
  -3   0   3   62.13    1.99 
   2   0  -3    3.64    0.36 
   2   0  -3    3.14    0.45 
   2   0  -3    3.39    0.46 
  -2   0   3    3.34    0.48 
  -2   0   3    3.03    0.45 
  -2   0   3    3.21    0.42 
   1   0  -3   92.28    2.29 
   1   0  -3   92.04    2.39 
   1   0  -3   89.60    2.42 
   1   0  -3   89.24    2.45 
  -1   0   3   89.23    2.46 
  -1   0   3   89.77    2.41 
  -1   0   3   89.40    2.40 
   0   0  -3  258.66    6.23 
   0   0  -3  267.68    6.14 
   0   0  -3  253.76    6.27 
   0   0  -3  251.04    6.21 
   0   0   3  255.90    6.21 
   0   0   3  253.87    6.27 
   0   0   3  257.20    6.24 
  -1   0  -3    4.65    0.54 
  -1   0  -3    5.87    0.65 
  -1   0  -3    5.38    0.71 
   1   0   3    5.90    0.65 
   1   0   3    6.93    0.73 
  -2   0  -3   -0.08    0.34 
  -2   0  -3    0.44    0.31 
  -2   0  -3    0.32    0.31 
   2   0   3    0.49    0.32 
   2   0   3   -0.26    0.32 
  -3   0  -3   -0.04    0.30 
  -3   0  -3    0.13    0.26 
   3   0   3    0.19    0.30 
   3   0   3    0.20    0.27 
  -4   0  -3  145.66    3.62 
  -4   0  -3  146.53    3.78 
   4   0   3  145.98    3.61 
   4   0   3  146.23    3.76 
  -5   0  -3  296.03    7.34 
  -5   0  -3  304.87    7.42 
   5   0   3  296.31    7.20 
   5   0   3  299.68    7.31 
  -6   0  -3  288.50    7.13 
  -6   0  -3  289.16    7.54 
   6   0   3  286.75    7.09 
   6   0   3  288.43    7.00 
  -7   0  -3  241.09    6.13 
  -7   0  -3  244.28    6.26 
   7   0   3  243.92    6.07 
   7   0   3  236.74    5.97 
  -8   0  -3  111.53    3.80 
  -8   0  -3  120.18    3.35 
   8   0   3  113.75    3.10 
   8   0   3  113.72    3.19 
  -9   0  -3   57.48    2.16 
  -9   0  -3   52.93    2.23 
   9   0   3   52.41    1.80 
   9   0   3   52.14    1.89 
 -10   0  -3   32.85    1.93 
 -10   0  -3   30.51    1.83 
  10   0   3   30.40    1.67 
  10   0   3   29.53    1.50 
  10   0   3   31.43    1.42 
 -11   0  -3   11.69    1.23 
 -11   0  -3   12.01    1.29 
  11   0   3   12.38    1.47 
  11   0   3   10.91    1.26 
  11   0   3   10.53    1.21 
 -12   0  -3    2.96    1.12 
  12   0   3    4.16    0.84 
  12   0   3    2.73    0.91 
 -13   0  -3    3.14    1.25 
 -13   0  -3    3.24    1.21 
  13   0   3    2.01    0.95 
  13   0   3    1.83    0.96 
  13   0   3    3.28    1.36 
 -14   0  -3    3.86    1.49 
  14   0   3    4.73    1.14 
  14   0   3    5.71    1.48 
  12  -1  -3   29.27    2.15 
  12  -1  -3   30.76    2.64 
 -12   1   3   31.09    2.87 
  11  -1  -3   79.37    3.22 
  11  -1  -3   71.83    3.42 
  11  -1  -3   75.33    2.95 
 -11   1   3   71.85    3.78 
 -11   1   3   81.09    3.42 
  10  -1  -3  106.78    3.93 
  10  -1  -3  115.53    3.74 
  10  -1  -3  108.35    3.56 
 -10   1   3  110.29    3.38 
 -10   1   3  107.85    3.89 
   9  -1  -3  107.41    3.45 
   9  -1  -3  102.96    3.65 
   9  -1  -3  102.68    3.32 
  -9   1   3  104.28    3.18 
  -9   1   3  105.04    3.71 
   8  -1  -3  115.87    3.75 
   8  -1  -3  105.96    4.38 
   8  -1  -3  121.24    3.58 
  -8   1   3  117.48    3.73 
  -8   1   3  114.29    3.38 
   7  -1  -3   56.68    2.05 
   7  -1  -3   58.55    2.32 
   7  -1  -3   56.37    2.13 
  -7   1   3   54.06    1.99 
  -7   1   3   56.91    2.33 
   6  -1  -3   29.31    1.60 
   6  -1  -3   30.74    1.44 
  -6   1   3   28.94    1.65 
  -6   1   3   28.67    1.32 
   5  -1  -3    6.40    0.76 
   5  -1  -3    8.38    0.84 
   5  -1  -3    8.80    0.91 
  -5   1   3    6.80    0.78 
  -5   1   3    7.28    0.82 
   4  -1  -3   24.55    1.13 
   4  -1  -3   23.80    1.30 
   4  -1  -3   24.69    1.07 
  -4   1   3   23.00    1.31 
  -4   1   3   23.28    1.08 
   3  -1  -3   38.58    1.33 
   3  -1  -3   37.60    1.46 
   3  -1  -3   38.53    1.27 
  -3   1   3   37.01    1.31 
  -3   1   3   38.14    1.47 
   2  -1  -3  193.79    4.64 
   2  -1  -3  184.88    4.66 
   2  -1  -3  189.01    4.76 
  -2   1   3  186.18    4.66 
  -2   1   3  185.51    4.73 
   1  -1  -3  441.34   10.06 
   1  -1  -3  419.06   10.09 
  -1   1   3  423.75   10.10 
  -1   1   3  419.49   10.13 
  -1   1   3  413.69   10.14 
   0  -1  -3   41.94    1.33 
   0  -1  -3   46.04    1.35 
   0  -1  -3   44.65    1.25 
   0   1   3   42.73    1.40 
   0   1   3   44.05    1.35 
   0   1   3   43.12    1.32 
  -1  -1  -3  240.48    5.96 
  -1  -1  -3  260.81    5.99 
  -1  -1  -3  253.14    6.09 
  -1  -1  -3  242.77    6.04 
   1   1   3  250.31    6.05 
   1   1   3  245.85    5.96 
   1   1   3  252.96    6.08 
  -2  -1  -3   27.73    1.08 
  -2  -1  -3   29.29    1.01 
   2   1   3   30.95    1.06 
   2   1   3   29.22    1.02 
  -3  -1  -3  232.47    5.84 
  -3  -1  -3  239.91    5.82 
   3   1   3  241.70    5.85 
   3   1   3  243.21    5.81 
  -4  -1  -3  175.58    4.35 
  -4  -1  -3  168.18    4.21 
  -4  -1  -3  170.77    4.28 
   4   1   3  171.02    4.27 
   4   1   3  171.68    4.32 
  -5  -1  -3  428.67   10.30 
  -5  -1  -3  442.08   10.46 
   5   1   3  422.30   10.35 
   5   1   3  431.47   10.30 
  -6  -1  -3  363.25    8.76 
  -6  -1  -3  372.01    8.92 
   6   1   3  356.54    8.78 
   6   1   3  351.94    8.69 
  -7  -1  -3   91.51    2.70 
  -7  -1  -3   84.60    2.52 
   7   1   3   84.67    2.40 
   7   1   3   86.33    2.50 
  -8  -1  -3   25.88    1.47 
  -8  -1  -3   24.62    1.33 
   8   1   3   24.53    1.20 
   8   1   3   23.77    1.10 
  -9  -1  -3    1.95    0.77 
  -9  -1  -3    1.86    0.70 
   9   1   3    3.26    0.55 
   9   1   3    3.36    0.79 
 -10  -1  -3    3.67    0.91 
 -10  -1  -3    5.23    0.89 
  10   1   3    4.39    0.78 
  10   1   3    4.25    0.65 
 -11  -1  -3   16.01    1.69 
 -11  -1  -3   16.07    1.83 
  11   1   3   15.33    1.50 
  11   1   3   16.04    1.37 
 -12  -1  -3    6.94    1.18 
  12   1   3    7.74    1.05 
  12   1   3    6.64    1.05 
  12   1   3    7.06    1.50 
 -13  -1  -3   -1.93    1.16 
  13   1   3    1.20    1.02 
  13   1   3    0.32    0.92 
  13   1   3   -0.76    1.18 
 -14  -1  -3    1.26    1.37 
  14   1   3    3.18    1.25 
  14   1   3    2.78    1.05 
  14   1   3    4.08    1.48 
  12  -2  -3   71.93    3.00 
  12  -2  -3   70.39    3.07 
 -12   2   3   69.33    2.75 
 -12   2   3   69.18    3.62 
  11  -2  -3   60.65    3.16 
  11  -2  -3   62.17    2.72 
  11  -2  -3   63.53    2.77 
 -11   2   3   70.61    3.25 
 -11   2   3   60.69    2.54 
  10  -2  -3   29.75    2.37 
  10  -2  -3   32.00    2.00 
  10  -2  -3   30.19    1.89 
 -10   2   3   32.05    1.85 
 -10   2   3   34.70    2.48 
   9  -2  -3   12.32    1.46 
   9  -2  -3   12.64    1.35 
   9  -2  -3   10.53    1.44 
  -9   2   3   13.11    1.38 
  -9   2   3   11.60    1.34 
   8  -2  -3   17.04    1.67 
   8  -2  -3   15.92    1.35 
   8  -2  -3   12.36    1.35 
  -8   2   3   15.78    1.79 
  -8   2   3   16.30    1.39 
   7  -2  -3    4.17    0.84 
   7  -2  -3    2.92    0.63 
   7  -2  -3    2.83    0.71 
  -7   2   3    1.34    0.84 
  -7   2   3    3.11    0.71 
   6  -2  -3   30.78    1.32 
   6  -2  -3   31.41    1.91 
   6  -2  -3   30.42    1.44 
  -6   2   3   31.96    1.68 
  -6   2   3   29.38    1.60 
   5  -2  -3   41.64    1.75 
   5  -2  -3   42.73    1.57 
   5  -2  -3   42.52    1.46 
  -5   2   3   40.69    1.57 
   4  -2  -3   15.11    0.95 
   4  -2  -3   14.82    0.83 
   4  -2  -3   14.46    1.32 
  -4   2   3   15.42    1.13 
  -4   2   3   15.14    0.97 
  -4   2   3   12.84    0.77 
   3  -2  -3   23.20    0.99 
   3  -2  -3   23.61    0.89 
   3  -2  -3   23.10    1.17 
  -3   2   3   22.55    0.87 
  -3   2   3   22.60    1.15 
   2  -2  -3    2.26    0.30 
   2  -2  -3    2.85    0.39 
   2  -2  -3    2.91    0.48 
  -2   2   3    2.83    0.47 
  -2   2   3    3.34    0.45 
   1  -2  -3   19.46    0.72 
   1  -2  -3   20.28    0.80 
   1  -2  -3   20.13    0.93 
  -1   2   3   18.66    0.92 
  -1   2   3   19.78    0.91 
  -1   2   3   19.18    0.74 
   0  -2  -3  103.48    2.40 
   0  -2  -3   95.18    2.58 
   0  -2  -3   97.62    2.61 
   0  -2  -3   99.25    2.52 
   0  -2  -3  101.58    2.56 
   0   2   3   99.26    2.54 
   0   2   3   95.69    2.51 
   0   2   3   94.74    2.61 
   0   2   3   98.16    2.40 
  -1  -2  -3  136.30    3.18 
  -1  -2  -3  129.07    3.35 
  -1  -2  -3  122.95    3.31 
  -1  -2  -3  135.90    3.21 
  -1  -2  -3  133.57    3.26 
   1   2   3  132.47    3.20 
   1   2   3  128.34    3.31 
   1   2   3  128.12    3.35 
  -2  -2  -3  224.77    5.54 
  -2  -2  -3  225.44    5.33 
  -2  -2  -3  220.37    5.53 
  -2  -2  -3  235.43    5.47 
   2   2   3  225.93    5.53 
   2   2   3  222.54    5.53 
  -3  -2  -3  248.57    6.09 
  -3  -2  -3  247.32    6.06 
   3   2   3  247.57    6.09 
   3   2   3  249.38    6.05 
  -4  -2  -3   95.96    2.38 
  -4  -2  -3   96.65    2.57 
   4   2   3   95.04    2.56 
   4   2   3   94.61    2.60 
  -5  -2  -3   79.70    2.27 
  -5  -2  -3   79.25    2.08 
   5   2   3   75.68    2.26 
   5   2   3   76.98    2.23 
  -6  -2  -3    1.28    0.41 
  -6  -2  -3    0.83    0.46 
   6   2   3    0.88    0.47 
   6   2   3    1.07    0.29 
  -7  -2  -3    0.90    0.62 
  -7  -2  -3    1.33    0.47 
   7   2   3    0.91    0.52 
   7   2   3    0.69    0.32 
  -8  -2  -3   10.08    1.17 
  -8  -2  -3    8.97    1.00 
   8   2   3    9.36    1.03 
   8   2   3    9.35    0.72 
  -9  -2  -3   13.85    1.62 
  -9  -2  -3   15.47    1.25 
   9   2   3   16.21    0.87 
   9   2   3   15.36    1.26 
 -10  -2  -3    0.38    0.72 
 -10  -2  -3   -0.22    0.78 
  10   2   3    0.10    0.73 
 -11  -2  -3   10.27    1.08 
 -11  -2  -3    8.85    1.16 
  11   2   3    9.12    1.12 
  11   2   3    8.91    1.05 
  11   2   3   11.09    1.30 
 -12  -2  -3    4.19    1.01 
 -12  -2  -3    1.37    1.26 
  12   2   3   -0.09    1.05 
  12   2   3    1.42    1.00 
  12   2   3   -0.60    0.81 
 -13  -2  -3   17.29    2.03 
 -13  -2  -3   16.94    2.26 
  13   2   3   15.71    1.77 
  13   2   3   15.74    1.92 
  13   2   3   13.78    1.71 
 -14  -2  -3   37.86    2.62 
  14   2   3   34.85    2.23 
  14   2   3   44.62    2.56 
  14   2   3   33.63    3.22 
  12  -3  -3   32.29    2.27 
  12  -3  -3   32.94    2.09 
 -12   3   3   32.64    2.28 
 -12   3   3   26.06    3.03 
  11  -3  -3    4.20    1.06 
  11  -3  -3    2.96    1.25 
  11  -3  -3    5.07    0.98 
 -11   3   3    8.48    1.22 
 -11   3   3    6.33    1.46 
  10  -3  -3   -0.52    1.09 
  10  -3  -3    0.75    0.85 
  10  -3  -3    0.23    0.73 
 -10   3   3   -0.22    0.85 
 -10   3   3   -1.94    1.08 
   9  -3  -3    6.76    1.02 
   9  -3  -3    4.85    1.10 
   9  -3  -3    7.23    0.83 
  -9   3   3    6.73    1.02 
  -9   3   3    6.60    1.25 
   8  -3  -3   12.65    1.43 
   8  -3  -3   15.74    1.70 
   8  -3  -3   15.37    1.19 
  -8   3   3   15.16    1.76 
  -8   3   3   13.60    1.71 
   7  -3  -3    9.05    1.02 
   7  -3  -3    9.02    0.93 
  -7   3   3    9.18    1.17 
  -7   3   3    9.94    1.14 
   6  -3  -3    8.06    0.79 
   6  -3  -3    8.03    0.80 
  -6   3   3    7.40    0.92 
  -6   3   3    8.49    1.05 
   5  -3  -3    9.59    1.28 
   5  -3  -3   11.97    0.71 
   5  -3  -3   13.14    1.19 
  -5   3   3   10.06    1.39 
  -5   3   3   11.99    1.24 
   4  -3  -3   46.02    1.29 
   4  -3  -3   45.29    1.59 
  -4   3   3   44.42    1.78 
  -4   3   3   42.81    1.64 
   3  -3  -3  115.89    3.28 
   3  -3  -3  119.49    3.15 
  -3   3   3  117.91    3.25 
  -3   3   3  116.31    3.28 
   2  -3  -3  189.01    4.89 
   2  -3  -3  199.39    4.80 
   2  -3  -3  189.62    4.76 
  -2   3   3  188.54    4.88 
   1  -3  -3  378.69    8.81 
   1  -3  -3  354.38    8.79 
   1  -3  -3  367.80    8.87 
  -1   3   3  365.24    8.89 
  -1   3   3  369.19    8.87 
  -1   3   3  365.83    8.67 
   0  -3  -3  493.68   11.68 
   0  -3  -3  508.38   11.67 
   0  -3  -3  503.67   11.60 
   0  -3  -3  485.42   11.73 
   0  -3  -3  481.19   11.71 
   0   3   3  493.75   11.67 
   0   3   3  482.30   11.74 
   0   3   3  482.79   11.70 
  -1  -3  -3  409.51    9.91 
  -1  -3  -3  437.06    9.98 
  -1  -3  -3  414.96   10.03 
  -1  -3  -3  430.71    9.94 
  -1  -3  -3  413.69   10.06 
   1   3   3  421.83    9.91 
   1   3   3  410.51   10.05 
   1   3   3  415.43   10.05 
  -2  -3  -3  175.67    4.35 
  -2  -3  -3  169.81    4.40 
  -2  -3  -3  172.39    4.37 
  -2  -3  -3  182.16    4.29 
   2   3   3  172.42    4.34 
   2   3   3  173.15    4.40 
  -3  -3  -3   30.44    1.09 
   3   3   3   29.82    1.16 
   3   3   3   32.47    1.06 
  -4  -3  -3   12.07    0.75 
   4   3   3   10.27    0.81 
   4   3   3   11.27    0.71 
  -5  -3  -3    5.77    0.73 
   5   3   3    6.89    0.72 
   5   3   3    6.60    0.81 
   5   3   3    5.09    0.51 
  -6  -3  -3   20.64    0.85 
  -6  -3  -3   20.34    1.08 
   6   3   3   20.87    1.15 
   6   3   3   18.19    0.87 
  -7  -3  -3    2.46    0.60 
  -7  -3  -3    3.34    0.47 
   7   3   3    2.65    0.63 
   7   3   3    2.33    0.48 
  -8  -3  -3    4.25    0.59 
  -8  -3  -3    3.07    0.67 
   8   3   3    4.19    0.59 
   8   3   3    3.63    0.77 
  -9  -3  -3    2.63    0.65 
  -9  -3  -3    1.49    0.77 
   9   3   3    2.43    0.66 
 -10  -3  -3   12.05    1.58 
 -10  -3  -3   17.68    1.39 
  10   3   3   16.02    1.91 
  10   3   3   16.28    1.35 
  10   3   3   16.47    1.53 
 -11  -3  -3   60.73    2.71 
 -11  -3  -3   68.54    2.46 
  11   3   3   68.52    2.52 
  11   3   3   67.41    3.06 
  11   3   3   67.54    2.69 
 -12  -3  -3  100.17    3.26 
 -12  -3  -3   96.09    3.61 
  12   3   3   94.55    3.26 
  12   3   3   98.38    3.48 
  12   3   3  101.59    3.98 
 -13  -3  -3   43.50    2.38 
  13   3   3   44.49    2.26 
  13   3   3   46.76    3.16 
 -14  -3  -3   61.16    2.94 
 -14  -3  -3   56.44    3.41 
  14   3   3   60.87    3.06 
  14   3   3   69.36    3.85 
  14   3   3   64.36    2.77 
  12  -4  -3    1.04    1.01 
 -12   4   3    0.67    1.60 
  11  -4  -3    4.67    2.42 
  11  -4  -3    5.03    1.08 
 -11   4   3   -0.24    1.36 
 -11   4   3    3.76    1.18 
  10  -4  -3   11.05    1.46 
  10  -4  -3    8.42    1.19 
 -10   4   3    6.81    1.18 
 -10   4   3    7.91    1.46 
   9  -4  -3    5.56    1.01 
   9  -4  -3    6.65    1.19 
  -9   4   3    7.19    1.08 
  -9   4   3    7.07    1.25 
   8  -4  -3    4.53    0.97 
   8  -4  -3    4.01    0.88 
  -8   4   3    4.47    0.89 
  -8   4   3    5.71    1.11 
   7  -4  -3    0.51    0.73 
   7  -4  -3    0.22    0.63 
  -7   4   3    0.08    0.82 
   6  -4  -3   45.36    1.99 
   6  -4  -3   41.28    1.77 
  -6   4   3   43.77    2.00 
  -6   4   3   45.46    1.85 
   5  -4  -3  191.25    5.11 
   5  -4  -3  184.43    4.92 
  -5   4   3  186.07    5.02 
  -5   4   3  184.14    5.08 
   4  -4  -3  237.02    5.97 
   4  -4  -3  231.12    6.10 
   4  -4  -3  239.03    5.83 
  -4   4   3  231.85    6.11 
   3  -4  -3  485.46   11.65 
   3  -4  -3  503.73   11.77 
   3  -4  -3  484.99   11.87 
  -3   4   3  485.30   11.87 
  -3   4   3  476.70   11.87 
   2  -4  -3  266.75    6.76 
   2  -4  -3  280.46    6.68 
   2  -4  -3  265.85    6.61 
  -2   4   3  271.47    6.80 
  -2   4   3  271.11    6.78 
   1  -4  -3  116.37    2.97 
   1  -4  -3  111.24    3.02 
   1  -4  -3  111.23    2.96 
  -1   4   3  113.06    2.95 
  -1   4   3  114.22    3.03 
   0  -4  -3  133.31    3.31 
   0  -4  -3  131.30    3.37 
   0  -4  -3  128.62    3.41 
   0  -4  -3  133.70    3.35 
   0   4   3  132.91    3.37 
   0   4   3  132.00    3.42 
   0   4   3  128.49    3.39 
   0   4   3  131.78    3.46 
  -1  -4  -3   49.12    1.56 
  -1  -4  -3   50.70    1.44 
  -1  -4  -3   49.28    1.49 
  -1  -4  -3   50.06    1.41 
   1   4   3   47.15    1.38 
   1   4   3   46.41    1.53 
   1   4   3   47.18    1.49 
  -2  -4  -3    0.45    0.29 
  -2  -4  -3    0.41    0.33 
  -2  -4  -3    0.21    0.30 
   2   4   3   -0.17    0.36 
   2   4   3    0.49    0.31 
  -3  -4  -3   20.83    0.90 
  -3  -4  -3   19.13    0.87 
   3   4   3   18.52    1.00 
   3   4   3   20.43    0.83 
  -4  -4  -3   89.56    2.47 
   4   4   3   91.92    2.43 
   4   4   3   89.89    2.67 
  -5  -4  -3   80.79    2.26 
   5   4   3   78.02    2.21 
   5   4   3   78.09    3.10 
  -6  -4  -3    2.07    0.32 
  -6  -4  -3    2.26    0.47 
   6   4   3    1.73    0.62 
   6   4   3    1.91    0.34 
  -7  -4  -3    5.45    0.66 
  -7  -4  -3    5.53    0.67 
   7   4   3    5.22    0.67 
  -8  -4  -3    1.27    0.47 
  -8  -4  -3    0.49    0.60 
   8   4   3    0.93    0.44 
   8   4   3    0.10    0.73 
  -9  -4  -3  149.79    4.07 
  -9  -4  -3  155.29    4.39 
   9   4   3  153.19    4.13 
   9   4   3  156.45    4.80 
 -10  -4  -3   88.69    3.16 
 -10  -4  -3   95.61    2.84 
  10   4   3   95.09    4.16 
  10   4   3   93.86    3.31 
 -11  -4  -3   89.11    3.37 
 -11  -4  -3   96.28    3.01 
  11   4   3   98.70    3.50 
  11   4   3   97.62    3.12 
  11   4   3   99.13    3.16 
  11   4   3   98.10    3.83 
 -12  -4  -3   82.20    3.30 
 -12  -4  -3   84.19    2.87 
  12   4   3   80.41    2.91 
  12   4   3   85.50    3.77 
 -13  -4  -3   42.75    2.22 
  13   4   3   39.52    2.23 
  13   4   3   38.88    3.20 
  13   4   3   42.34    2.75 
  12  -5  -3    4.04    1.19 
  12  -5  -3    5.03    0.92 
 -12   5   3    3.40    1.73 
 -12   5   3    3.04    1.47 
  11  -5  -3    1.16    1.02 
  11  -5  -3    1.30    0.84 
 -11   5   3   -0.81    1.46 
  10  -5  -3   -0.22    0.85 
  10  -5  -3    0.54    0.73 
  10  -5  -3    0.81    1.18 
 -10   5   3   -0.14    1.01 
 -10   5   3    1.53    1.22 
   9  -5  -3    9.86    1.18 
   9  -5  -3   10.02    1.16 
   9  -5  -3   10.45    1.36 
  -9   5   3   13.01    1.69 
  -9   5   3    9.39    1.43 
   8  -5  -3   99.81    3.63 
   8  -5  -3  100.06    3.36 
   8  -5  -3   97.20    2.90 
  -8   5   3  103.78    3.96 
  -8   5   3  102.75    3.41 
   7  -5  -3   40.87    2.14 
   7  -5  -3   40.51    1.90 
   7  -5  -3   39.16    1.51 
  -7   5   3   40.09    1.95 
  -7   5   3   40.69    2.21 
   6  -5  -3  181.27    5.32 
   6  -5  -3  183.68    4.60 
   6  -5  -3  177.48    5.09 
  -6   5   3  183.06    5.11 
  -6   5   3  170.37    5.80 
   5  -5  -3  240.57    7.08 
   5  -5  -3  271.44    6.80 
   5  -5  -3  271.69    6.54 
  -5   5   3  271.62    6.97 
  -5   5   3  269.21    6.92 
   4  -5  -3  350.16    8.56 
   4  -5  -3  359.02    8.77 
   4  -5  -3  347.46    8.91 
  -4   5   3  354.85    8.90 
  -4   5   3  355.08    8.91 
   3  -5  -3  205.21    5.20 
   3  -5  -3  201.98    5.08 
  -3   5   3  203.02    5.35 
  -3   5   3  203.17    5.70 
   2  -5  -3    4.54    0.65 
   2  -5  -3    4.12    0.51 
   2  -5  -3    4.71    0.54 
  -2   5   3    4.91    0.66 
  -2   5   3    4.06    0.58 
  -2   5   3    5.10    0.66 
   1  -5  -3   -0.43    0.36 
   1  -5  -3   -0.19    0.36 
   1  -5  -3    0.13    0.36 
  -1   5   3   -0.20    0.33 
  -1   5   3    0.17    0.41 
  -1   5   3   -0.06    0.43 
  -1   5   3    0.31    0.28 
   0  -5  -3    0.07    0.33 
   0  -5  -3    0.71    0.36 
   0  -5  -3    0.57    0.42 
   0   5   3    0.17    0.34 
   0   5   3    0.37    0.36 
   0   5   3    0.19    0.37 
   0   5   3    0.04    0.35 
  -1  -5  -3   41.95    1.35 
  -1  -5  -3   39.78    1.25 
   1   5   3   36.56    1.36 
   1   5   3   39.41    1.41 
   1   5   3   39.53    1.26 
   1   5   3   39.19    1.31 
  -2  -5  -3   47.35    1.40 
  -2  -5  -3   49.52    1.45 
  -2  -5  -3   45.80    1.52 
   2   5   3   45.93    1.45 
   2   5   3   44.86    1.47 
   2   5   3   44.90    1.35 
   2   5   3   46.33    1.63 
  -3  -5  -3  166.42    4.20 
  -3  -5  -3  170.38    4.29 
   3   5   3  165.31    4.45 
   3   5   3  170.08    4.17 
   3   5   3  162.76    4.17 
  -4  -5  -3    5.80    0.59 
  -4  -5  -3    5.64    0.68 
   4   5   3    5.83    0.61 
   4   5   3    5.52    0.51 
   4   5   3    5.23    0.70 
  -5  -5  -3   20.40    0.99 
   5   5   3   19.84    0.90 
   5   5   3   19.32    1.26 
  -6  -5  -3   15.99    1.01 
   6   5   3   15.91    1.42 
   6   5   3   15.86    0.75 
  -7  -5  -3   66.27    2.08 
   7   5   3   62.83    2.61 
   7   5   3   61.84    1.84 
  -8  -5  -3   56.73    1.70 
   8   5   3   51.82    1.72 
   8   5   3   51.42    2.50 
  -9  -5  -3  237.15    6.06 
  -9  -5  -3  226.14    5.74 
   9   5   3  221.53    5.77 
 -10  -5  -3   60.44    3.86 
 -10  -5  -3   70.40    2.32 
  10   5   3   73.58    3.01 
  10   5   3   77.69    2.44 
  10   5   3   77.77    3.31 
 -11  -5  -3   25.83    1.58 
 -11  -5  -3   22.39    2.01 
  11   5   3   30.08    1.73 
  11   5   3   30.98    1.74 
  11   5   3   33.16    2.67 
 -12  -5  -3   11.46    1.48 
 -12  -5  -3    3.67    1.22 
  12   5   3    8.00    1.03 
  12   5   3    6.04    1.53 
  12   5   3    5.81    1.44 
  12   5   3    6.38    1.02 
 -13  -5  -3    3.57    0.96 
 -13  -5  -3    1.30    1.32 
  13   5   3    3.05    1.61 
  13   5   3    3.45    1.09 
  12  -6  -3   -0.03    1.08 
 -12   6   3    0.02    1.73 
 -12   6   3    0.42    1.44 
  11  -6  -3   15.85    1.95 
 -11   6   3   11.35    1.58 
 -11   6   3   14.93    1.85 
  10  -6  -3   50.32    2.87 
  10  -6  -3   52.04    2.53 
  10  -6  -3   46.68    1.74 
 -10   6   3   53.14    3.12 
   9  -6  -3   76.27    2.35 
   9  -6  -3   79.32    3.37 
   9  -6  -3   79.34    3.04 
  -9   6   3   83.48    3.41 
  -9   6   3   81.51    3.14 
   8  -6  -3  159.50    4.77 
   8  -6  -3  156.25    4.18 
  -8   6   3  164.91    5.04 
  -8   6   3  165.57    4.87 
   7  -6  -3   70.43    2.09 
   7  -6  -3   69.01    2.59 
  -7   6   3   69.99    2.86 
  -7   6   3   71.52    2.70 
   6  -6  -3  123.12    3.67 
   6  -6  -3  122.10    3.28 
   6  -6  -3  123.39    3.89 
  -6   6   3  123.06    3.80 
  -6   6   3  126.15    3.91 
   5  -6  -3  106.17    2.86 
   5  -6  -3  104.97    3.16 
   5  -6  -3  105.60    3.36 
  -5   6   3  105.63    3.38 
  -5   6   3  106.53    3.44 
   4  -6  -3    9.69    0.76 
   4  -6  -3   10.21    1.16 
   4  -6  -3   11.43    1.02 
  -4   6   3   11.39    1.25 
  -4   6   3    7.84    1.12 
   3  -6  -3    7.75    0.74 
  -3   6   3    8.07    0.74 
  -3   6   3    9.24    1.09 
  -3   6   3    8.02    1.00 
   2  -6  -3    1.94    0.47 
   2  -6  -3    1.97    0.48 
  -2   6   3    1.85    0.57 
  -2   6   3    1.83    0.54 
  -2   6   3    1.42    0.43 
  -2   6   3    2.21    0.33 
   1  -6  -3   20.76    0.99 
   1  -6  -3   20.10    0.98 
   1  -6  -3   20.00    1.02 
  -1   6   3   18.58    1.15 
  -1   6   3   21.03    0.93 
  -1   6   3   19.12    0.98 
  -1   6   3   18.75    1.09 
   0  -6  -3   33.27    1.26 
   0  -6  -3   35.36    1.23 
   0   6   3   35.30    1.33 
   0   6   3   33.80    1.29 
   0   6   3   33.86    1.29 
   0   6   3   31.63    1.38 
   0   6   3   32.72    1.31 
  -1  -6  -3   10.33    0.72 
  -1  -6  -3   11.06    0.81 
   1   6   3   10.58    0.87 
   1   6   3   11.11    0.96 
   1   6   3   10.90    0.77 
   1   6   3    9.32    0.87 
   1   6   3   10.08    0.80 
  -2  -6  -3    0.93    0.45 
  -2  -6  -3    1.10    0.35 
   2   6   3    1.24    0.42 
   2   6   3    0.24    0.36 
   2   6   3    0.35    0.49 
  -3  -6  -3   20.26    1.05 
  -3  -6  -3   21.37    0.89 
  -3  -6  -3   21.91    0.90 
   3   6   3   19.78    1.29 
   3   6   3   19.92    0.86 
   3   6   3   18.43    0.90 
   3   6   3   19.05    1.18 
  -4  -6  -3  315.80    7.87 
  -4  -6  -3  319.08    7.68 
   4   6   3  312.12    8.16 
   4   6   3  310.35    7.62 
   4   6   3  320.87    7.54 
   4   6   3  318.60    7.63 
   4   6   3  318.02    8.09 
  -5  -6  -3  181.34    4.70 
  -5  -6  -3  183.28    4.48 
   5   6   3  179.56    5.03 
   5   6   3  182.17    4.32 
   5   6   3  151.47    5.81 
   5   6   3  176.47    4.40 
  -6  -6  -3  196.60    4.99 
   6   6   3  192.94    4.83 
   6   6   3  199.53    5.63 
  -7  -6  -3  147.10    3.85 
   7   6   3  141.82    4.51 
   7   6   3  137.21    3.64 
  -8  -6  -3   92.52    2.74 
   8   6   3   81.38    4.40 
   8   6   3   84.64    2.47 
  -9  -6  -3  108.03    3.23 
   9   6   3  103.97    3.94 
   9   6   3   99.02    2.91 
 -10  -6  -3   13.37    1.64 
  10   6   3   12.79    1.61 
  10   6   3   14.45    1.22 
 -11  -6  -3   -1.67    0.96 
  11   6   3    0.46    1.22 
  11   6   3   -0.19    1.23 
  11   6   3    0.11    0.80 
  11   6   3   -0.38    0.78 
 -12  -6  -3    0.64    1.16 
  12   6   3    2.37    1.55 
  12   6   3    3.29    0.92 
  12   6   3    2.78    0.97 
  13   6   3    1.39    1.72 
  13   6   3    2.03    1.05 
  12  -7  -3   22.75    2.34 
 -12   7   3   26.71    3.14 
  11  -7  -3  112.71    4.08 
 -11   7   3  111.03    4.63 
 -11   7   3  113.01    4.20 
  10  -7  -3  133.35    4.46 
 -10   7   3  131.04    4.56 
 -10   7   3  142.75    4.86 
   9  -7  -3   65.28    2.77 
  -9   7   3   66.54    3.20 
   8  -7  -3   36.11    2.04 
   8  -7  -3   36.91    1.35 
  -8   7   3   38.15    2.22 
  -8   7   3   39.89    2.47 
   7  -7  -3   29.67    1.80 
   7  -7  -3   32.04    1.24 
  -7   7   3   32.88    2.35 
  -7   7   3   34.05    2.03 
   6  -7  -3    5.70    0.86 
   6  -7  -3    5.95    0.75 
  -6   7   3    5.76    1.00 
  -6   7   3    5.99    1.03 
   5  -7  -3    6.97    0.76 
   5  -7  -3    7.18    0.85 
  -5   7   3    7.67    1.03 
  -5   7   3    6.34    0.91 
   4  -7  -3   35.71    1.35 
   4  -7  -3   37.20    1.58 
  -4   7   3   37.77    1.82 
   3  -7  -3   57.15    1.93 
   3  -7  -3   55.49    1.81 
  -3   7   3   55.92    2.10 
  -3   7   3   57.42    1.79 
  -3   7   3   56.45    2.15 
   2  -7  -3   22.08    1.17 
  -2   7   3   24.75    1.39 
  -2   7   3   24.19    1.35 
  -2   7   3   24.85    1.00 
  -2   7   3   24.83    1.09 
   1  -7  -3    4.49    0.54 
   1  -7  -3    4.35    0.57 
  -1   7   3    5.26    0.71 
  -1   7   3    4.34    0.52 
  -1   7   3    4.74    0.59 
  -1   7   3    4.15    0.63 
   0  -7  -3   15.11    0.95 
   0  -7  -3   14.92    0.87 
   0   7   3   15.03    1.00 
   0   7   3   15.72    1.04 
   0   7   3   14.92    0.94 
   0   7   3   14.77    0.98 
  -1  -7  -3   76.02    2.11 
  -1  -7  -3   73.18    2.23 
   1   7   3   75.16    2.15 
   1   7   3   72.74    2.21 
   1   7   3   72.44    2.35 
   1   7   3   73.64    2.28 
   1   7   3   73.27    2.38 
  -2  -7  -3  117.82    3.22 
  -2  -7  -3  116.90    2.98 
   2   7   3  112.61    3.33 
   2   7   3  110.61    3.01 
   2   7   3  115.17    3.40 
   2   7   3  109.78    3.12 
  -3  -7  -3  255.94    6.53 
  -3  -7  -3  268.79    6.29 
   3   7   3  252.05    6.77 
   3   7   3  256.54    6.72 
   3   7   3  253.67    6.26 
   3   7   3  253.10    6.37 
  -4  -7  -3  286.15    6.81 
  -4  -7  -3  279.71    7.11 
   4   7   3  279.38    6.75 
   4   7   3  276.31    7.42 
   4   7   3  279.78    7.42 
   4   7   3  278.06    6.82 
   4   7   3  279.82    6.76 
  -5  -7  -3  161.44    4.03 
  -5  -7  -3  155.36    4.35 
   5   7   3  154.54    3.97 
   5   7   3  164.38    4.66 
   5   7   3  158.40    4.74 
   5   7   3  160.86    3.98 
  -6  -7  -3  108.62    2.92 
  -6  -7  -3  104.82    3.25 
   6   7   3  108.02    2.83 
   6   7   3  107.55    3.70 
  -7  -7  -3   14.04    1.05 
  -7  -7  -3   14.00    1.28 
   7   7   3   13.41    2.09 
   7   7   3   11.66    0.91 
  -8  -7  -3    7.49    0.77 
   8   7   3    7.52    1.29 
   8   7   3    7.06    0.92 
  -9  -7  -3    1.36    0.74 
   9   7   3    2.07    1.15 
   9   7   3    0.52    0.57 
 -10  -7  -3    9.87    1.07 
  10   7   3   10.99    1.54 
  10   7   3   10.78    1.03 
  10   7   3   11.35    1.56 
  10   7   3    9.21    1.20 
 -11  -7  -3    4.12    1.13 
  11   7   3    5.96    1.31 
  11   7   3    3.80    1.59 
  12   7   3    6.48    1.03 
  12   7   3    5.61    1.76 
  11  -8  -3   45.89    2.74 
 -11   8   3   52.44    3.51 
  10  -8  -3   27.84    2.26 
 -10   8   3   30.86    2.92 
 -10   8   3   32.32    2.55 
   9  -8  -3   50.17    2.49 
  -9   8   3   52.85    3.03 
  -9   8   3   41.08    2.56 
   8  -8  -3    3.18    0.97 
  -8   8   3    3.75    1.26 
   7  -8  -3    7.15    1.05 
  -7   8   3    6.27    1.10 
  -7   8   3    6.21    1.18 
   6  -8  -3   13.48    1.44 
  -6   8   3   11.25    1.31 
  -6   8   3   12.88    1.78 
   5  -8  -3   22.43    1.46 
  -5   8   3   23.86    1.81 
  -5   8   3   22.79    1.67 
  -4   8   3    2.39    0.77 
  -4   8   3    1.91    0.77 
  -4   8   3    2.27    0.55 
   3  -8  -3    0.59    0.51 
   3  -8  -3   -0.27    0.63 
  -3   8   3    0.28    0.62 
  -3   8   3   -0.10    0.44 
  -3   8   3    0.13    0.37 
  -3   8   3    0.17    0.64 
   2  -8  -3   20.64    1.45 
   2  -8  -3   22.31    1.14 
  -2   8   3   19.20    1.09 
  -2   8   3   21.21    1.37 
  -2   8   3   19.72    1.01 
   1  -8  -3  114.25    3.14 
   1  -8  -3  111.78    3.45 
   1  -8  -3  112.26    3.21 
  -1   8   3  115.07    3.53 
  -1   8   3  110.12    3.16 
  -1   8   3  114.48    3.41 
  -1   8   3  117.73    3.35 
   0  -8  -3  192.76    4.84 
   0  -8  -3  188.23    4.97 
   0   8   3  184.94    5.04 
   0   8   3  190.96    4.90 
   0   8   3  192.84    5.04 
   0   8   3  187.24    5.02 
   0   8   3  188.23    5.09 
  -1  -8  -3  181.78    4.53 
  -1  -8  -3  173.79    4.70 
   1   8   3  176.68    4.84 
   1   8   3  179.86    4.88 
   1   8   3  176.33    4.85 
   1   8   3  179.66    4.57 
  -2  -8  -3  194.78    5.06 
  -2  -8  -3  199.13    4.80 
   2   8   3  187.67    4.81 
   2   8   3  193.61    5.27 
   2   8   3  191.25    5.00 
   2   8   3  180.12    5.55 
  -3  -8  -3  253.73    6.59 
  -3  -8  -3  266.64    6.28 
   3   8   3  250.72    6.23 
   3   8   3  258.16    6.87 
   3   8   3  250.59    6.40 
   3   8   3  253.20    6.79 
  -4  -8  -3   92.58    2.87 
   4   8   3   94.32    3.12 
   4   8   3   93.00    3.24 
   4   8   3   88.72    2.55 
   4   8   3   90.69    2.46 
  -5  -8  -3   28.19    1.54 
   5   8   3   28.35    1.97 
   5   8   3   28.65    1.12 
   5   8   3   28.58    1.78 
  -6  -8  -3    1.87    0.71 
   6   8   3   -0.26    1.51 
   6   8   3    0.79    0.45 
  -7  -8  -3   18.01    1.49 
   7   8   3   20.91    2.10 
   7   8   3   20.50    1.06 
  -8  -8  -3    5.94    1.04 
   8   8   3    5.72    0.64 
   8   8   3    6.66    1.29 
  -9  -8  -3    9.90    1.31 
   9   8   3   11.02    1.63 
   9   8   3   12.76    1.65 
   9   8   3   10.01    1.11 
 -10  -8  -3   16.11    1.89 
 -10  -8  -3   19.76    1.54 
  10   8   3   16.35    1.96 
  10   8   3   16.31    1.24 
  10   8   3   17.60    1.36 
 -11  -8  -3    3.84    1.24 
  11   8   3    2.52    1.70 
  11   8   3    2.54    0.87 
  11  -9  -3   -0.48    1.10 
 -11   9   3    0.91    1.78 
  10  -9  -3   -0.76    1.04 
 -10   9   3   -0.39    1.58 
   9  -9  -3    4.43    1.16 
  -9   9   3    6.50    1.52 
  -9   9   3    4.68    1.43 
   8  -9  -3    5.61    1.14 
  -8   9   3    4.81    1.33 
  -8   9   3    5.77    1.26 
   7  -9  -3    0.80    0.84 
  -7   9   3    2.17    1.17 
   6  -9  -3   -0.44    0.71 
  -6   9   3    0.23    0.96 
   5  -9  -3    5.88    0.86 
  -5   9   3    5.29    1.05 
   4  -9  -3   66.94    2.76 
   4  -9  -3   66.76    2.38 
  -4   9   3   67.82    2.67 
  -4   9   3   66.75    2.68 
  -4   9   3   68.50    2.16 
   3  -9  -3   78.23    2.59 
   3  -9  -3   80.24    2.95 
  -3   9   3   80.54    2.84 
  -3   9   3   78.03    2.88 
  -3   9   3   79.94    2.32 
   2  -9  -3  208.28    5.50 
   2  -9  -3  212.59    5.91 
  -2   9   3  210.96    5.55 
  -2   9   3  207.31    5.45 
  -2   9   3  215.84    5.86 
  -2   9   3  217.43    5.77 
   1  -9  -3  242.70    6.35 
   1  -9  -3  236.77    6.26 
   1  -9  -3  250.23    6.62 
  -1   9   3  247.49    6.39 
  -1   9   3  247.56    6.55 
  -1   9   3  244.21    6.33 
  -1   9   3  249.21    6.50 
  -1   9   3  246.37    6.32 
   0  -9  -3  239.91    6.26 
   0  -9  -3  243.58    6.07 
   0   9   3  235.79    6.32 
   0   9   3  241.74    6.32 
   0   9   3  243.27    6.39 
   0   9   3  241.54    6.32 
   0   9   3  240.66    6.13 
  -1  -9  -3   98.86    3.01 
  -1  -9  -3  100.48    2.77 
   1   9   3  102.31    3.05 
   1   9   3   98.97    2.82 
   1   9   3   98.36    3.16 
   1   9   3  100.56    3.18 
  -2  -9  -3   14.67    1.17 
  -2  -9  -3   13.25    0.89 
   2   9   3   12.47    1.31 
   2   9   3   13.85    1.45 
   2   9   3   12.97    1.09 
   2   9   3   12.75    0.87 
  -3  -9  -3    2.99    0.72 
  -3  -9  -3    2.48    0.52 
   3   9   3    2.70    0.82 
   3   9   3    3.01    0.59 
   3   9   3    3.24    0.86 
  -4  -9  -3    2.26    0.76 
   4   9   3    2.27    0.87 
   4   9   3    2.40    0.47 
   4   9   3    2.51    0.96 
   4   9   3    3.47    0.56 
  -5  -9  -3    3.86    0.81 
   5   9   3    4.91    1.79 
   5   9   3    3.48    0.54 
  -6  -9  -3   46.62    2.08 
   6   9   3   48.40    2.72 
   6   9   3   47.03    1.61 
  -7  -9  -3    6.38    1.15 
   7   9   3    5.99    1.24 
   7   9   3    5.23    0.66 
  -8  -9  -3    0.21    0.91 
   8   9   3   -0.45    0.57 
   8   9   3    0.86    1.13 
   8   9   3   -0.21    1.24 
  -9  -9  -3    0.23    0.96 
   9   9   3   -0.42    0.61 
   9   9   3   -1.16    1.36 
 -10  -9  -3    7.81    1.35 
  10   9   3    3.97    1.70 
 -11  -9  -3   31.14    2.50 
  11   9   3   31.32    3.46 
  10 -10  -3    2.22    1.21 
 -10  10   3    2.80    1.67 
   9 -10  -3    4.71    1.24 
  -9  10   3    4.17    1.62 
   8 -10  -3    1.07    0.93 
  -8  10   3   -1.94    1.24 
   7 -10  -3   10.54    1.31 
  -7  10   3   13.06    1.52 
  -7  10   3   13.07    1.63 
   6 -10  -3   55.22    2.43 
  -6  10   3   60.74    2.88 
   5 -10  -3  149.76    4.40 
  -5  10   3  149.21    4.70 
   4 -10  -3  194.78    5.36 
   4 -10  -3  200.33    5.84 
  -4  10   3  197.43    5.70 
  -4  10   3  192.18    4.93 
  -4  10   3  193.64    5.74 
  -4  10   3  195.59    5.19 
   3 -10  -3  184.63    5.14 
   3 -10  -3  189.87    5.63 
  -3  10   3  192.78    5.09 
  -3  10   3  191.21    5.53 
  -3  10   3  194.13    5.47 
  -3  10   3  194.07    4.99 
   2 -10  -3  165.23    4.59 
   2 -10  -3  171.41    5.08 
  -2  10   3  171.78    4.62 
  -2  10   3  169.31    4.97 
  -2  10   3  178.42    4.96 
  -2  10   3  167.91    4.68 
   1 -10  -3   85.40    2.83 
   1 -10  -3   85.69    3.10 
   1 -10  -3   91.43    2.68 
  -1  10   3   87.27    3.01 
  -1  10   3   91.32    2.87 
  -1  10   3   89.95    3.05 
  -1  10   3   85.34    2.73 
   0 -10  -3   69.68    2.47 
   0 -10  -3   64.80    2.87 
   0  10   3   74.15    2.32 
   0  10   3   73.92    2.59 
   0  10   3   71.01    2.54 
   0  10   3   73.43    2.60 
   0  10   3   71.53    2.59 
  -1 -10  -3   19.25    1.36 
  -1 -10  -3   20.13    1.09 
   1  10   3   19.22    1.60 
   1  10   3   16.02    1.46 
   1  10   3   17.99    1.15 
  -2 -10  -3    3.27    0.57 
  -2 -10  -3    2.39    0.69 
   2  10   3    2.68    0.70 
   2  10   3    1.18    0.81 
   2  10   3    2.42    0.48 
   2  10   3    2.31    0.84 
  -3 -10  -3   30.40    1.29 
  -3 -10  -3   31.43    1.65 
   3  10   3   33.41    1.52 
   3  10   3   32.80    1.95 
   3  10   3   31.60    2.06 
  -4 -10  -3   93.80    3.16 
   4  10   3   97.44    3.48 
   4  10   3   96.25    3.66 
  -5 -10  -3   15.48    1.51 
   5  10   3   16.10    1.05 
   5  10   3   17.64    1.89 
   5  10   3   17.16    2.12 
   6  10   3    1.00    0.58 
   6  10   3    1.04    1.13 
  -7 -10  -3    3.31    1.07 
   7  10   3    3.69    0.67 
   7  10   3    5.42    1.37 
   7  10   3    0.86    1.10 
  -8 -10  -3   19.38    1.85 
   8  10   3   17.82    1.23 
   8  10   3   25.70    2.90 
  -9 -10  -3   37.21    2.38 
   9  10   3   38.67    3.34 
 -10 -10  -3   49.46    2.81 
  10  10   3   48.57    3.81 
  10 -11  -3    1.43    1.23 
 -10  11   3    0.47    2.04 
   9 -11  -3   18.91    2.11 
  -9  11   3   18.56    2.12 
   8 -11  -3   21.90    2.07 
  -8  11   3   19.59    2.01 
   7 -11  -3   68.84    2.93 
  -7  11   3   75.30    3.57 
   6 -11  -3  121.21    3.97 
  -6  11   3  127.62    4.46 
   5 -11  -3  163.58    4.82 
  -5  11   3  170.93    5.21 
  -5  11   3  161.80    4.45 
   4 -11  -3   65.12    2.48 
   4 -11  -3   67.25    3.06 
  -4  11   3   67.43    2.16 
  -4  11   3   67.74    2.92 
  -4  11   3   70.19    2.99 
  -4  11   3   69.91    2.33 
   3 -11  -3   59.98    2.27 
   3 -11  -3   60.97    2.84 
  -3  11   3   64.43    2.21 
  -3  11   3   63.22    2.77 
  -3  11   3   61.41    2.59 
   2 -11  -3   13.22    1.23 
   2 -11  -3   15.54    2.26 
  -2  11   3   14.79    1.70 
  -2  11   3   15.44    1.37 
  -2  11   3   14.84    1.33 
  -2  11   3   18.00    1.78 
  -2  11   3   17.29    1.43 
   1 -11  -3   -0.03    0.59 
   1 -11  -3   -0.70    0.81 
  -1  11   3   -0.07    0.78 
  -1  11   3   -0.52    0.75 
  -1  11   3    0.39    0.71 
  -1  11   3   -0.81    0.56 
  -1  11   3    1.00    0.83 
   0 -11  -3   -0.03    0.59 
   0 -11  -3    0.49    0.69 
   0  11   3    1.39    0.80 
   0  11   3    0.06    0.76 
   0  11   3    0.38    0.75 
   0  11   3    0.66    0.78 
   0  11   3    0.31    0.56 
  -1 -11  -3   75.76    2.43 
  -1 -11  -3   77.56    2.72 
   1  11   3   75.56    2.71 
   1  11   3   76.17    2.97 
   1  11   3   77.15    2.76 
   1  11   3   77.07    2.89 
   1  11   3   78.84    2.40 
  -2 -11  -3   19.11    1.49 
  -2 -11  -3   18.96    1.12 
   2  11   3   20.98    1.77 
   2  11   3   19.60    1.85 
   2  11   3   19.77    1.46 
  -3 -11  -3    5.59    0.97 
   3  11   3    6.75    1.19 
   3  11   3    6.60    0.84 
   3  11   3    5.85    1.24 
  -4 -11  -3    0.20    1.48 
   4  11   3    0.23    1.08 
   4  11   3   -0.75    0.95 
   4  11   3    0.50    0.56 
  -5 -11  -3    2.74    0.98 
   5  11   3    4.17    0.69 
   5  11   3    4.46    1.29 
   5  11   3    5.19    1.32 
  -6 -11  -3   16.54    1.70 
   6  11   3   15.49    1.25 
   6  11   3   14.80    1.83 
  -7 -11  -3   45.51    2.45 
   7  11   3   48.58    3.30 
   7  11   3   47.74    1.88 
  -8 -11  -3   75.47    3.21 
   8  11   3   82.59    4.20 
  -9 -11  -3   58.90    3.01 
   9  11   3   59.14    4.03 
   9 -12  -3   94.53    3.87 
  -9  12   3   96.43    4.61 
   8 -12  -3   55.13    2.82 
  -8  12   3   52.00    3.53 
   7 -12  -3   92.39    3.50 
  -7  12   3   92.19    4.09 
   6 -12  -3   64.24    2.72 
  -6  12   3   64.36    3.34 
   5 -12  -3   56.15    2.45 
  -5  12   3   62.21    3.51 
  -5  12   3   59.36    3.00 
  -5  12   3   54.31    2.15 
   4 -12  -3    1.03    0.74 
  -4  12   3   -1.18    1.03 
  -4  12   3   -0.26    0.66 
  -4  12   3    0.83    1.14 
  -4  12   3    1.42    1.29 
   3 -12  -3    7.01    0.93 
  -3  12   3    8.40    1.04 
  -3  12   3    7.94    1.32 
  -3  12   3    9.37    1.25 
  -3  12   3    8.21    0.93 
   2 -12  -3    8.15    0.92 
  -2  12   3   10.24    1.39 
  -2  12   3    9.84    1.32 
  -2  12   3    9.56    1.30 
  -2  12   3    8.10    1.21 
  -2  12   3    7.80    1.01 
  -1  12   3    1.38    0.68 
  -1  12   3    0.99    0.91 
  -1  12   3    1.41    0.92 
  -1  12   3   -0.61    0.80 
  -1  12   3    1.57    0.97 
   0 -12  -3    4.31    0.73 
   0  12   3    4.35    1.04 
   0  12   3    3.95    1.02 
   0  12   3    3.62    0.69 
   0  12   3    4.35    1.06 
   0  12   3    3.48    0.98 
  -1 -12  -3    4.35    0.77 
  -1 -12  -3    3.98    1.80 
   1  12   3    4.40    0.68 
   1  12   3    5.45    1.13 
   1  12   3    4.94    0.99 
   1  12   3    5.07    1.00 
  -2 -12  -3   10.05    1.07 
  -2 -12  -3   10.92    1.23 
   2  12   3   10.58    1.10 
   2  12   3   11.63    1.46 
   2  12   3   11.92    1.45 
  -3 -12  -3   57.37    2.50 
   3  12   3   59.72    2.86 
   3  12   3   59.55    3.02 
  -4 -12  -3  110.74    3.69 
   4  12   3  122.43    4.39 
   4  12   3  106.36    4.08 
   4  12   3  101.30    4.06 
  -5 -12  -3   84.30    3.21 
   5  12   3   88.95    2.83 
   5  12   3   87.77    3.99 
  -6 -12  -3  102.36    3.77 
   6  12   3  106.08    3.12 
   6  12   3  106.39    4.57 
  -7 -12  -3  103.62    3.88 
   7  12   3  109.35    4.82 
  -8 -12  -3   54.75    2.99 
   8  12   3   69.70    6.17 
   8 -13  -3   43.75    2.73 
  -8  13   3   45.24    3.82 
   7 -13  -3   20.11    2.08 
  -7  13   3   21.50    2.22 
   6 -13  -3    2.90    0.98 
  -6  13   3    4.44    1.56 
   5 -13  -3    1.29    0.89 
  -5  13   3    1.59    1.14 
  -5  13   3    1.51    1.34 
   4 -13  -3   20.79    1.65 
  -4  13   3   19.71    1.58 
  -4  13   3   25.93    1.72 
  -4  13   3   19.43    2.34 
   3 -13  -3    9.36    1.05 
  -3  13   3    9.41    1.44 
  -3  13   3   12.28    1.58 
  -3  13   3   10.34    1.13 
  -3  13   3   10.96    1.47 
  -3  13   3   12.54    1.60 
   2 -13  -3    2.29    0.81 
  -2  13   3    2.50    0.82 
  -2  13   3    1.40    1.09 
  -2  13   3    2.34    0.95 
  -2  13   3    2.58    1.02 
  -2  13   3    2.05    1.18 
   1 -13  -3    1.74    0.74 
  -1  13   3    1.52    1.07 
  -1  13   3   -0.53    0.96 
  -1  13   3    1.90    0.97 
  -1  13   3    1.88    0.76 
  -1  13   3    1.92    1.13 
   0 -13  -3    3.52    0.77 
   0 -13  -3    3.96    0.98 
   0  13   3    4.59    0.82 
   0  13   3    3.56    1.15 
   0  13   3    5.00    1.18 
   0  13   3    6.47    1.16 
   0  13   3    4.86    1.16 
  -1 -13  -3   45.86    2.31 
  -1 -13  -3   49.28    1.84 
   1  13   3   47.21    2.71 
   1  13   3   46.46    2.49 
   1  13   3   45.54    2.36 
   1  13   3   48.37    2.53 
  -2 -13  -3  102.39    3.59 
  -2 -13  -3  109.27    2.97 
   2  13   3   95.92    3.83 
   2  13   3  105.87    3.59 
   2  13   3  105.61    4.03 
  -3 -13  -3  139.70    4.55 
   3  13   3  150.12    5.16 
  -4 -13  -3  100.34    3.66 
   4  13   3  106.50    3.22 
   4  13   3  108.31    4.48 
  -5 -13  -3   57.79    2.74 
   5  13   3   63.68    3.77 
   5  13   3   57.31    2.29 
  -6 -13  -3   59.46    2.87 
   6  13   3   60.58    3.92 
   6 -14  -3    2.20    1.05 
  -6  14   3   -1.34    1.53 
   5 -14  -3    9.43    1.19 
  -5  14   3    8.88    1.73 
   4 -14  -3    0.15    0.85 
  -4  14   3   -1.01    1.32 
  -4  14   3    3.18    1.06 
  -4  14   3    1.12    0.91 
  -4  14   3    0.52    1.01 
   3 -14  -3    5.57    0.97 
  -3  14   3    9.03    1.25 
  -3  14   3    5.60    1.40 
  -3  14   3    7.19    1.17 
  -3  14   3    6.47    1.19 
   2 -14  -3   27.16    1.69 
  -2  14   3   29.68    1.89 
  -2  14   3   24.09    2.45 
  -2  14   3   25.76    2.78 
  -2  14   3   29.37    2.18 
   1 -14  -3   67.74    2.48 
  -1  14   3   62.92    3.07 
  -1  14   3   67.56    3.17 
  -1  14   3   70.17    3.13 
  -1  14   3   67.78    3.02 
  -1  14   3   72.22    2.58 
   0 -14  -3   61.27    3.19 
   0  14   3   62.01    2.95 
   0  14   3   66.07    3.09 
   0  14   3   60.41    2.98 
   0  14   3   65.77    2.39 
   0  14   3   67.89    3.14 
  -1 -14  -3  143.09    3.92 
  -1 -14  -3  142.63    4.59 
   1  14   3  142.73    4.95 
   1  14   3  140.41    4.70 
  -2 -14  -3  149.41    4.80 
   2  14   3  147.91    4.83 
   2  14   3  153.24    5.27 
  -3 -14  -3   51.87    2.65 
   3  14   3   51.31    2.23 
   3  14   3   50.34    3.39 
  -4 -14  -3   21.15    2.08 
   4  14   3   19.02    2.17 
   3 -15  -3   46.91    2.21 
  -3  15   3   46.36    2.48 
  -3  15   3   49.78    3.18 
  -3  15   3   42.53    3.89 
   2 -15  -3   94.55    3.13 
  -2  15   3   94.10    3.68 
  -2  15   3   94.62    3.96 
  -2  15   3   90.96    3.22 
  -2  15   3   87.21    3.56 
   1 -15  -3   96.35    3.08 
  -1  15   3   89.66    3.83 
  -1  15   3   90.18    3.92 
   0 -15  -3   63.49    2.36 
   0  15   3   63.77    3.46 
   0  15   3   65.37    3.33 
  -1 -15  -3   41.00    2.57 
   1  15   3   42.42    3.16 
   1  15   3   41.51    2.88 
   0  12  -4    3.60    1.70 
   0 -12   4    4.82    1.70 
  -1  12  -4    0.88    1.56 
   1 -12   4    0.60    1.65 
  -2  12  -4   49.46    3.44 
   2 -12   4   42.70    3.38 
  -3  12  -4   75.81    3.87 
   3 -12   4   75.77    3.99 
  -4  12  -4   77.59    3.81 
   4 -12   4   79.97    4.15 
  -5  12  -4   80.33    3.73 
   5 -12   4   75.54    4.00 
   5 -12   4   73.92    2.67 
  -6  12  -4   87.14    3.80 
   6 -12   4   84.67    3.03 
   6 -12   4   86.13    4.19 
   6 -12   4   80.91    4.10 
  -3 -11   4   -1.40    1.12 
  -3 -11   4    1.45    1.20 
   2  11  -4    0.45    1.64 
  -2 -11   4    0.68    1.34 
  -2 -11   4    0.28    1.04 
   1  11  -4    6.95    1.67 
  -1 -11   4   10.75    1.30 
  -1 -11   4   11.28    1.59 
   0  11  -4   62.53    3.67 
   0 -11   4   62.98    3.22 
  -1  11  -4   48.91    3.20 
   1 -11   4   49.11    2.99 
  -2  11  -4  110.73    4.32 
   2 -11   4  101.18    4.19 
  -3  11  -4   73.44    2.59 
  -3  11  -4   81.95    3.63 
   3 -11   4   79.59    3.69 
   3 -11   4   79.84    3.76 
  -4  11  -4   64.52    2.46 
  -4  11  -4   62.52    3.27 
   4 -11   4   60.99    3.39 
   4 -11   4   64.26    2.40 
   4 -11   4   68.95    3.54 
  -5  11  -4   47.80    2.31 
  -5  11  -4   46.59    2.87 
  -5  11  -4   43.68    2.12 
   5 -11   4   50.13    3.26 
   5 -11   4   49.09    2.05 
  -6  11  -4    0.83    1.15 
  -6  11  -4    4.93    1.07 
  -6  11  -4    2.76    1.22 
   6 -11   4    5.94    1.65 
   6 -11   4    4.36    1.00 
  -7  11  -4   -0.28    1.25 
  -7  11  -4    0.90    1.21 
   7 -11   4   -0.11    1.44 
   7 -11   4    2.31    1.01 
  -8  11  -4    0.09    1.67 
  -8  11  -4    0.68    1.66 
   8 -11   4    1.63    1.08 
   8 -11   4    4.46    1.55 
   8 -11   4    0.21    1.43 
   4  10  -4    3.25    1.77 
  -4 -10   4    6.70    1.11 
  -4 -10   4    4.33    1.21 
   3  10  -4   29.27    2.68 
   3  10  -4   23.34    3.25 
  -3 -10   4   28.49    2.11 
  -3 -10   4   26.25    2.03 
   2  10  -4   55.58    2.67 
   2  10  -4   58.55    3.68 
  -2 -10   4   57.56    3.14 
  -2 -10   4   54.90    2.53 
   1  10  -4  112.27    4.42 
   1  10  -4  108.43    3.65 
  -1 -10   4  107.46    3.86 
  -1 -10   4   90.30    4.54 
   0  10  -4   98.95    4.01 
   0  10  -4   96.28    3.40 
   0 -10   4   89.40    3.65 
   0 -10   4  101.45    4.19 
   0 -10   4   89.32    3.71 
  -1  10  -4   92.51    3.80 
   1 -10   4   88.92    3.77 
   1 -10   4   84.43    3.56 
  -2  10  -4   72.47    2.35 
  -2  10  -4   76.50    3.33 
   2 -10   4   72.48    3.27 
  -3  10  -4   26.23    2.34 
  -3  10  -4   25.37    1.54 
   3 -10   4   26.77    2.35 
   3 -10   4   24.54    1.60 
  -4  10  -4   10.03    1.02 
  -4  10  -4    7.91    1.30 
   4 -10   4   10.64    1.22 
   4 -10   4   12.92    1.60 
  -5  10  -4   -1.89    0.84 
  -5  10  -4   -1.50    1.01 
   5 -10   4    0.53    0.77 
   5 -10   4    1.00    1.24 
   5 -10   4    0.83    1.16 
  -6  10  -4    8.34    1.20 
  -6  10  -4    9.18    1.28 
  -6  10  -4    9.46    1.21 
   6 -10   4    8.34    1.43 
   6 -10   4    9.95    1.65 
   6 -10   4    9.78    1.07 
  -7  10  -4    8.03    2.18 
  -7  10  -4    9.87    1.34 
   7 -10   4   10.23    1.59 
   7 -10   4   11.14    1.30 
   7 -10   4    8.72    1.47 
  -8  10  -4    7.07    1.34 
  -8  10  -4   10.14    1.76 
   8 -10   4    9.38    1.47 
   8 -10   4    6.19    1.55 
   8 -10   4    5.96    1.17 
  -9  10  -4    0.84    1.71 
   9 -10   4    0.07    1.41 
   9 -10   4    0.19    1.25 
   9 -10   4    0.63    1.09 
 -10  10  -4    1.34    1.80 
  10 -10   4    0.10    1.17 
  10 -10   4    0.61    1.49 
  -6  -9   4   14.40    1.59 
   5   9  -4   13.63    1.54 
   5   9  -4   14.79    2.15 
  -5  -9   4   16.69    1.83 
  -5  -9   4   14.91    1.49 
   4   9  -4   45.39    3.42 
   4   9  -4   35.30    2.42 
  -4  -9   4   37.92    2.01 
  -4  -9   4   38.32    2.20 
   3   9  -4   69.27    3.78 
   3   9  -4   74.89    3.00 
  -3  -9   4   75.13    2.84 
  -3  -9   4   69.39    2.79 
   2   9  -4   90.50    3.29 
   2   9  -4   93.62    4.09 
  -2  -9   4   89.68    3.13 
  -2  -9   4   93.09    3.37 
  -2  -9   4  100.46    4.33 
   1   9  -4   99.67    3.40 
   1   9  -4  101.82    4.08 
  -1  -9   4   96.61    3.54 
  -1  -9   4   96.92    3.98 
  -1  -9   4  102.13    3.24 
   0   9  -4   33.95    2.46 
   0   9  -4   36.04    1.99 
   0  -9   4   31.07    2.17 
   0  -9   4   32.04    1.76 
  -1   9  -4    1.81    1.09 
  -2   9  -4    0.22    0.98 
  -2   9  -4   -0.63    0.57 
   2  -9   4   -0.68    1.11 
   2  -9   4    0.57    0.52 
   2  -9   4   -1.28    0.95 
  -3   9  -4    6.24    0.77 
  -3   9  -4    7.47    1.19 
   3  -9   4    8.83    1.34 
   3  -9   4    5.12    1.17 
   3  -9   4    7.84    0.77 
   4  -9   4   30.52    2.30 
   4  -9   4   28.91    2.25 
   4  -9   4   30.05    1.49 
  -5   9  -4   41.99    2.36 
  -5   9  -4   40.48    2.00 
   5  -9   4   42.03    2.44 
   5  -9   4   43.12    2.62 
   5  -9   4   39.62    1.88 
  -6   9  -4    8.65    1.15 
  -6   9  -4    9.99    1.13 
   6  -9   4   10.92    1.49 
   6  -9   4    7.64    1.25 
   6  -9   4   11.34    1.38 
  -7   9  -4    0.16    0.90 
  -7   9  -4   -0.46    0.95 
   7  -9   4   -1.28    1.08 
   7  -9   4    2.04    1.08 
   7  -9   4    1.55    0.86 
  -8   9  -4    1.00    1.13 
  -8   9  -4    3.54    1.36 
   8  -9   4    0.18    0.94 
   8  -9   4    3.29    1.17 
   8  -9   4    1.70    1.25 
  -9   9  -4   37.31    2.64 
  -9   9  -4   45.59    3.31 
   9  -9   4   34.25    2.53 
   9  -9   4   46.66    2.92 
   9  -9   4   35.26    2.32 
 -10   9  -4   44.92    3.51 
  10  -9   4   50.49    3.19 
  10  -9   4   38.79    2.56 
  10  -9   4   44.53    2.61 
 -11   9  -4   93.32    4.50 
  11  -9   4   95.30    4.29 
  11  -9   4  100.01    3.88 
   7   8  -4    5.40    1.87 
  -7  -8   4    5.64    1.38 
   6   8  -4   49.21    2.83 
   6   8  -4   53.95    3.83 
  -6  -8   4   50.57    2.58 
   5   8  -4   64.95    2.90 
   5   8  -4   68.13    3.88 
  -5  -8   4   64.81    2.31 
  -5  -8   4   54.54    3.90 
   4   8  -4   64.00    2.80 
   4   8  -4   66.17    3.54 
  -4  -8   4   65.62    2.46 
  -4  -8   4   64.15    2.52 
   3   8  -4   56.94    3.26 
   3   8  -4   61.61    2.57 
  -3  -8   4   58.59    2.32 
  -3  -8   4   59.20    2.40 
   2   8  -4   53.85    2.33 
   2   8  -4   50.30    2.97 
  -2  -8   4   54.43    2.33 
  -2  -8   4   53.66    2.13 
   1   8  -4    3.40    1.13 
   1   8  -4    5.06    0.91 
  -1  -8   4    5.83    0.87 
  -1  -8   4    5.54    1.05 
   0   8  -4   -1.12    0.95 
   0  -8   4    1.39    0.92 
   0  -8   4    1.30    0.71 
   0  -8   4    1.18    0.87 
  -1   8  -4    7.87    1.37 
   1  -8   4   10.07    1.25 
   1  -8   4    8.77    1.19 
  -2   8  -4    5.42    0.67 
  -2   8  -4    4.45    1.02 
   2  -8   4    6.79    1.14 
   2  -8   4    4.70    1.02 
   2  -8   4    6.48    0.62 
  -3   8  -4   14.91    1.77 
  -3   8  -4   14.49    1.16 
   3  -8   4   14.51    2.07 
   3  -8   4   14.28    1.75 
   3  -8   4   13.91    1.06 
  -4   8  -4    7.13    1.07 
  -4   8  -4    5.24    0.79 
   4  -8   4    5.61    1.01 
   4  -8   4    5.93    1.16 
   4  -8   4    6.03    0.78 
  -5   8  -4   -0.85    0.80 
  -5   8  -4   -0.19    0.70 
   5  -8   4    0.73    0.87 
   5  -8   4   -0.12    0.67 
   5  -8   4    1.15    0.95 
  -6   8  -4   12.02    1.57 
  -6   8  -4    8.28    1.03 
   6  -8   4    7.01    1.00 
   6  -8   4    8.95    1.16 
   6  -8   4    9.29    1.26 
  -7   8  -4   71.61    2.85 
  -7   8  -4   69.48    2.68 
   7  -8   4   63.19    2.66 
   7  -8   4   74.25    2.88 
   7  -8   4   73.48    3.14 
  -8   8  -4  110.98    3.84 
  -8   8  -4  112.26    4.17 
   8  -8   4  109.39    3.68 
   8  -8   4  113.62    4.03 
   8  -8   4   96.91    3.61 
  -9   8  -4  124.43    4.68 
  -9   8  -4  118.01    4.20 
   9  -8   4  117.42    4.02 
   9  -8   4  121.35    4.38 
   9  -8   4  120.21    3.94 
 -10   8  -4   94.39    4.14 
  10  -8   4   85.85    3.34 
  10  -8   4   88.76    3.77 
  10  -8   4   83.99    3.38 
 -11   8  -4   68.53    3.80 
  11  -8   4   59.61    2.96 
  11  -8   4   64.20    3.50 
 -12   8  -4   47.09    3.66 
  12  -8   4   45.98    2.78 
  12  -8   4   56.94    3.43 
   8   7  -4   70.57    4.28 
  -8  -7   4   69.63    3.11 
   7   7  -4  144.04    5.56 
   7   7  -4  131.96    4.63 
  -7  -7   4  139.13    4.46 
   6   7  -4   66.64    3.04 
   6   7  -4   70.30    3.90 
  -6  -7   4   68.40    2.74 
  -6  -7   4   69.65    2.21 
   5   7  -4   63.78    2.76 
   5   7  -4   64.70    3.53 
  -5  -7   4   62.78    3.39 
  -5  -7   4   65.86    2.24 
  -5  -7   4   61.97    2.51 
   4   7  -4   72.36    2.80 
   4   7  -4   74.35    3.46 
  -4  -7   4   72.21    2.49 
  -4  -7   4   69.61    2.60 
   3   7  -4   22.01    2.32 
   3   7  -4   22.71    1.72 
  -3  -7   4   22.43    1.45 
  -3  -7   4   21.20    1.51 
   2   7  -4   22.95    2.21 
   2   7  -4   22.00    1.60 
  -2  -7   4   22.72    1.59 
  -2  -7   4   25.49    1.43 
   1   7  -4    0.26    1.03 
   1   7  -4   -0.62    0.65 
  -1  -7   4    0.11    0.86 
  -1  -7   4    0.75    0.77 
  -1  -7   4    0.11    0.64 
   0   7  -4    0.88    0.86 
   0  -7   4    0.23    0.77 
   0  -7   4    0.79    0.62 
   0  -7   4    1.43    0.86 
  -1   7  -4    3.33    0.96 
  -1   7  -4    3.33    0.53 
   1  -7   4    3.58    0.92 
   1  -7   4    2.44    0.68 
   1  -7   4    3.65    0.88 
   1  -7   4    2.28    0.42 
  -2   7  -4   41.40    2.15 
  -2   7  -4   42.96    1.57 
   2  -7   4   44.61    2.15 
   2  -7   4   40.82    2.13 
   2  -7   4   42.38    1.45 
  -3   7  -4   65.47    2.67 
   3  -7   4   67.89    2.13 
   3  -7   4   71.12    2.70 
   3  -7   4   69.54    2.71 
  -4   7  -4  251.26    6.44 
  -4   7  -4  251.64    6.72 
   4  -7   4  237.58    6.64 
   4  -7   4  250.61    6.84 
   4  -7   4  256.65    6.78 
  -5   7  -4  245.56    6.53 
  -5   7  -4  240.92    6.46 
   5  -7   4  248.74    6.61 
   5  -7   4  248.97    6.89 
   5  -7   4  235.08    6.36 
  -6   7  -4  147.78    4.29 
  -6   7  -4  152.56    4.34 
   6  -7   4  137.66    4.22 
   6  -7   4  157.31    4.68 
   6  -7   4  139.41    4.74 
  -7   7  -4  321.96    8.28 
   7  -7   4  318.55    8.52 
   7  -7   4  301.65    8.19 
  -8   7  -4  262.89    7.24 
  -8   7  -4  267.07    7.52 
   8  -7   4  271.38    7.19 
   8  -7   4  265.52    7.43 
   8  -7   4  256.51    8.33 
  -9   7  -4   54.18    2.76 
  -9   7  -4   53.65    3.08 
   9  -7   4   50.25    2.74 
   9  -7   4   52.19    2.45 
 -10   7  -4   69.60    3.20 
 -10   7  -4   62.85    3.38 
  10  -7   4   67.05    3.17 
  10  -7   4   67.07    2.85 
 -11   7  -4   10.15    1.75 
  11  -7   4   10.53    1.42 
  11  -7   4   12.00    1.58 
 -12   7  -4    0.47    1.63 
  12  -7   4   -2.05    1.31 
  12  -7   4    0.37    1.05 
 -13   7  -4   -3.16    1.76 
  13  -7   4    0.46    1.24 
  13  -7   4   -0.24    1.52 
   9   6  -4   64.64    4.23 
  -9  -6   4   56.24    2.90 
   8   6  -4   34.86    3.56 
   8   6  -4   38.80    2.80 
  -8  -6   4   38.91    2.32 
   7   6  -4   68.88    3.22 
   7   6  -4   73.75    3.93 
  -7  -6   4   74.53    2.81 
   6   6  -4    5.27    1.44 
   6   6  -4    3.11    1.13 
  -6  -6   4    5.68    0.71 
  -6  -6   4    4.48    1.44 
  -6  -6   4    6.90    1.04 
   5   6  -4    2.35    1.24 
   5   6  -4    0.83    0.90 
  -5  -6   4    2.46    0.87 
  -5  -6   4    1.88    0.69 
  -5  -6   4    3.12    1.25 
   4   6  -4    3.26    0.88 
   4   6  -4    4.43    1.24 
  -4  -6   4    3.27    0.76 
  -4  -6   4    4.91    0.83 
  -4  -6   4    4.90    1.17 
   3   6  -4   18.89    1.51 
   3   6  -4   21.15    2.09 
  -3  -6   4   18.09    1.40 
  -3  -6   4   18.67    1.34 
   2   6  -4    3.46    1.00 
   2   6  -4    4.76    0.81 
  -2  -6   4    2.26    0.99 
  -2  -6   4    4.49    0.83 
  -2  -6   4    4.04    0.73 
   1   6  -4   13.20    1.26 
   1   6  -4   15.21    1.75 
  -1  -6   4   16.32    1.10 
  -1  -6   4   14.95    1.60 
  -1  -6   4   12.97    1.35 
   0   6  -4   -0.40    0.72 
   0  -6   4    0.33    0.67 
   0  -6   4    0.11    0.74 
   0  -6   4   -0.04    0.53 
  -1   6  -4   13.71    0.92 
  -1   6  -4   14.84    1.54 
   1  -6   4   15.17    0.76 
   1  -6   4   14.55    1.46 
   1  -6   4   14.45    1.39 
   1  -6   4   15.19    1.06 
  -2   6  -4  124.32    3.37 
  -2   6  -4  124.14    3.82 
   2  -6   4  128.75    3.85 
   2  -6   4  120.72    3.81 
   2  -6   4  130.26    3.31 
  -3   6  -4  184.63    4.96 
  -3   6  -4  194.19    5.33 
   3  -6   4  190.72    4.94 
   3  -6   4  200.64    5.39 
  -4   6  -4  162.28    4.51 
  -4   6  -4  156.48    4.28 
   4  -6   4  160.38    4.51 
   4  -6   4  148.04    4.26 
   4  -6   4  163.64    4.64 
  -5   6  -4  255.21    6.72 
  -5   6  -4  259.62    6.67 
   5  -6   4  258.16    6.92 
   5  -6   4  246.80    6.60 
   5  -6   4  263.54    6.79 
  -6   6  -4  271.94    7.01 
  -6   6  -4  270.50    7.08 
   6  -6   4  271.00    7.30 
   6  -6   4  276.25    7.10 
   6  -6   4  260.06    7.29 
  -7   6  -4   80.97    2.93 
   7  -6   4   87.54    2.87 
   7  -6   4   82.86    3.29 
   7  -6   4   80.43    2.83 
  -8   6  -4   10.43    1.19 
  -8   6  -4    8.36    1.25 
   8  -6   4   12.46    1.46 
   8  -6   4    9.40    1.22 
   8  -6   4   10.43    1.12 
  -9   6  -4    2.70    1.06 
  -9   6  -4    6.39    1.32 
   9  -6   4    3.66    0.88 
   9  -6   4    4.77    1.12 
   9  -6   4    4.78    1.01 
 -10   6  -4    1.11    1.07 
 -10   6  -4    0.94    1.22 
  10  -6   4    1.36    0.93 
  10  -6   4    1.55    0.86 
  10  -6   4    1.71    1.10 
 -11   6  -4   12.38    1.70 
  11  -6   4   10.79    1.50 
  11  -6   4   12.00    1.36 
  11  -6   4   14.67    1.65 
 -12   6  -4   11.40    1.82 
  12  -6   4   14.70    1.57 
  12  -6   4   18.22    2.39 
 -13   6  -4   11.48    2.02 
  13  -6   4   17.30    1.99 
  13  -6   4   12.64    1.56 
   9   5  -4   17.24    2.16 
   9   5  -4   13.79    1.70 
  -9  -5   4   17.56    1.95 
   8   5  -4   -0.43    1.21 
   8   5  -4   -1.31    1.41 
  -8  -5   4    0.88    1.18 
   7   5  -4    2.23    1.31 
   7   5  -4   -0.01    1.04 
  -7  -5   4    2.54    0.89 
   6   5  -4   19.34    1.83 
   6   5  -4   18.03    1.77 
  -6  -5   4   20.98    1.50 
  -6  -5   4   18.06    1.16 
  -6  -5   4   16.64    2.32 
   5   5  -4   19.60    1.66 
   5   5  -4   18.29    2.22 
  -5  -5   4   21.17    1.40 
  -5  -5   4   18.15    2.18 
   4   5  -4   17.39    1.47 
  -4  -5   4   16.48    1.25 
  -4  -5   4   17.03    1.89 
   3   5  -4    2.23    0.92 
   3   5  -4    1.47    0.66 
  -3  -5   4    0.80    0.81 
  -3  -5   4    1.53    0.62 
   2   5  -4    0.05    0.76 
   2   5  -4   -0.20    0.57 
  -2  -5   4    0.26    0.69 
  -2  -5   4    0.28    0.54 
   1   5  -4    3.38    0.83 
   1   5  -4    2.42    0.62 
  -1  -5   4    3.19    0.57 
  -1  -5   4    2.69    0.75 
   0   5  -4   58.38    1.76 
   0   5  -4   63.22    2.43 
   0  -5   4   65.11    2.22 
   0  -5   4   59.36    2.40 
   0  -5   4   62.40    1.95 
  -1   5  -4  141.52    3.77 
  -1   5  -4  142.28    4.23 
   1  -5   4  148.17    3.85 
   1  -5   4  156.05    4.15 
   1  -5   4  141.34    4.21 
  -2   5  -4  197.70    5.05 
  -2   5  -4  197.64    5.42 
   2  -5   4  196.35    5.41 
   2  -5   4  208.83    5.44 
  -3   5  -4  136.70    3.91 
  -3   5  -4  132.88    3.62 
   3  -5   4  137.05    3.96 
   3  -5   4  134.51    3.90 
  -4   5  -4   78.70    2.44 
  -4   5  -4   78.96    2.60 
   4  -5   4   80.39    2.62 
   4  -5   4   79.89    2.69 
  -5   5  -4   63.95    2.20 
  -5   5  -4   63.20    2.22 
   5  -5   4   60.58    2.34 
   5  -5   4   65.40    2.26 
  -6   5  -4    2.52    0.70 
  -6   5  -4    2.61    0.67 
   6  -5   4    3.81    0.68 
   6  -5   4    2.85    0.67 
   6  -5   4    2.89    0.76 
  -7   5  -4    0.79    0.76 
   7  -5   4    1.58    0.70 
   7  -5   4    0.66    0.64 
   7  -5   4    0.58    0.73 
  -8   5  -4   13.72    1.37 
  -8   5  -4   13.86    1.63 
   8  -5   4   16.19    1.38 
   8  -5   4   13.96    1.58 
   8  -5   4   17.23    1.46 
  -9   5  -4   39.59    2.29 
  -9   5  -4   45.30    2.63 
   9  -5   4   43.56    2.08 
   9  -5   4   38.89    3.39 
   9  -5   4   42.78    1.98 
 -10   5  -4   11.60    1.43 
 -10   5  -4    9.32    1.31 
  10  -5   4   11.41    1.47 
  10  -5   4   10.91    1.25 
  10  -5   4   10.44    1.37 
 -11   5  -4    5.01    1.32 
 -11   5  -4    2.40    1.12 
  11  -5   4    4.70    1.00 
  11  -5   4    6.75    1.26 
  11  -5   4    4.23    1.03 
 -12   5  -4    0.40    1.42 
  12  -5   4   -1.06    0.95 
  12  -5   4    0.66    1.15 
  12  -5   4   -0.41    1.13 
 -13   5  -4   -0.17    1.65 
  13  -5   4    3.96    1.41 
  13  -5   4    3.94    1.09 
  13  -5   4    6.45    1.15 
 -14   5  -4   25.28    2.51 
  14  -5   4   26.54    3.34 
  14  -5   4   26.51    2.83 
  10   4  -4    0.52    1.74 
   9   4  -4   -0.77    1.29 
   9   4  -4    0.24    1.46 
  -9  -4   4    0.72    0.95 
  -9  -4   4    1.40    1.17 
  -9  -4   4    0.05    0.74 
   8   4  -4    4.79    1.24 
   8   4  -4    6.75    1.53 
  -8  -4   4    8.18    0.94 
   7   4  -4    5.36    1.12 
   7   4  -4    4.90    1.34 
  -7  -4   4    7.00    0.96 
  -7  -4   4    5.49    0.80 
   6   4  -4   12.66    1.49 
   6   4  -4   12.36    1.26 
  -6  -4   4   11.16    1.26 
  -6  -4   4   10.55    1.35 
   5   4  -4    0.13    0.93 
   5   4  -4    0.87    0.77 
  -5  -4   4    0.54    0.63 
  -5  -4   4    0.86    0.50 
  -5  -4   4   -0.68    0.90 
   4   4  -4    4.71    0.99 
   4   4  -4    5.21    0.80 
  -4  -4   4    3.59    0.93 
  -4  -4   4    4.37    0.70 
   3   4  -4   41.70    2.11 
   3   4  -4   38.01    1.74 
  -3  -4   4   35.49    1.96 
  -3  -4   4   39.71    1.53 
   2   4  -4  139.93    3.94 
   2   4  -4  144.76    4.28 
  -2  -4   4  143.23    4.24 
  -2  -4   4  142.04    3.78 
   1   4  -4  373.87    9.45 
   1   4  -4  369.44    9.16 
  -1  -4   4  370.64    8.99 
  -1  -4   4  365.62    9.40 
   0   4  -4  270.08    6.71 
   0   4  -4  262.15    6.94 
   0   4  -4  251.46    6.47 
   0  -4   4  268.68    6.56 
   0  -4   4  264.77    6.93 
   0  -4   4  276.64    6.45 
  -1   4  -4  142.96    3.81 
  -1   4  -4  147.89    4.18 
   1  -4   4  155.98    3.80 
   1  -4   4  147.79    3.85 
   1  -4   4  146.13    4.15 
  -2   4  -4  178.72    4.63 
  -2   4  -4  182.68    4.94 
   2  -4   4  191.21    4.92 
   2  -4   4  178.91    4.91 
  -3   4  -4   42.54    1.77 
  -3   4  -4   44.54    1.55 
   3  -4   4   45.54    1.79 
   3  -4   4   46.05    1.77 
  -4   4  -4   22.32    1.30 
  -4   4  -4   23.87    1.77 
   4  -4   4   23.48    1.36 
  -5   4  -4    2.13    0.56 
  -5   4  -4    1.10    0.52 
   5  -4   4    1.03    0.57 
  -6   4  -4   30.56    1.57 
   6  -4   4   31.81    1.61 
  -7   4  -4    4.79    0.80 
   7  -4   4    4.67    0.79 
   7  -4   4    6.19    0.73 
  -8   4  -4   22.26    1.85 
  -8   4  -4   19.49    1.65 
   8  -4   4   17.79    1.56 
   8  -4   4   18.76    1.35 
  -9   4  -4    1.98    0.89 
  -9   4  -4    1.32    0.94 
   9  -4   4    1.78    0.85 
   9  -4   4    2.17    0.73 
   9  -4   4    2.14    0.81 
 -10   4  -4   21.14    2.51 
  10  -4   4   20.41    1.53 
  10  -4   4   18.74    1.78 
  10  -4   4   18.72    1.60 
 -11   4  -4   38.82    2.57 
  11  -4   4   35.71    2.28 
  11  -4   4   40.90    2.33 
  11  -4   4   41.94    2.15 
 -12   4  -4   50.23    3.06 
  12  -4   4   45.60    2.33 
  12  -4   4   51.73    2.49 
  12  -4   4   55.76    2.73 
 -13   4  -4   81.13    3.78 
  13  -4   4   72.75    3.15 
  13  -4   4   73.28    3.02 
  13  -4   4   81.78    3.43 
 -14   4  -4   84.11    4.22 
  14  -4   4   82.20    3.64 
  14  -4   4   75.94    3.35 
  10   3  -4   12.45    1.88 
  10   3  -4   14.38    1.59 
  10   3  -4   12.35    1.73 
 -10  -3   4   13.59    1.47 
 -10  -3   4   14.21    1.74 
 -10  -3   4   13.93    1.62 
   9   3  -4   20.36    2.41 
   9   3  -4   19.69    2.70 
   9   3  -4   19.93    1.54 
  -9  -3   4   23.06    2.15 
  -9  -3   4   22.88    2.05 
   8   3  -4   -0.32    1.14 
   8   3  -4    0.68    0.74 
   8   3  -4    1.13    1.02 
  -8  -3   4   -0.77    0.84 
  -8  -3   4    1.08    0.57 
  -8  -3   4    2.10    0.98 
   7   3  -4    0.38    1.06 
   7   3  -4    0.78    0.62 
   7   3  -4    0.32    0.88 
  -7  -3   4   -0.17    1.45 
  -7  -3   4    1.00    0.71 
   6   3  -4    5.97    1.15 
   6   3  -4    5.98    0.63 
   6   3  -4    6.66    1.02 
  -6  -3   4    5.93    0.77 
  -6  -3   4    5.22    1.07 
  -6  -3   4    5.22    0.96 
   5   3  -4   46.23    1.49 
   5   3  -4   48.91    2.08 
   5   3  -4   51.25    2.46 
  -5  -3   4   48.03    2.34 
  -5  -3   4   47.55    2.02 
  -5  -3   4   46.76    1.72 
   4   3  -4   74.04    2.00 
   4   3  -4   74.21    2.84 
   4   3  -4   69.91    2.53 
  -4  -3   4   78.53    2.80 
  -4  -3   4   75.38    2.23 
  -4  -3   4   80.13    2.51 
  -4  -3   4   75.79    2.30 
   3   3  -4  222.56    5.90 
   3   3  -4  219.22    5.61 
  -3  -3   4  217.60    5.40 
  -3  -3   4  189.70    6.04 
  -3  -3   4  218.61    5.33 
   2   3  -4  296.12    7.33 
   2   3  -4  296.01    7.57 
  -2  -3   4  280.27    7.29 
  -2  -3   4  291.27    7.54 
  -2  -3   4  291.46    7.06 
   1   3  -4  186.71    4.91 
   1   3  -4  185.21    4.68 
   1   3  -4  194.23    5.17 
  -1  -3   4  194.40    4.75 
  -1  -3   4  189.93    4.66 
  -1  -3   4  186.85    5.13 
   0   3  -4  126.82    3.50 
   0   3  -4  125.47    3.32 
   0   3  -4  128.67    3.68 
   0  -3   4  132.60    3.28 
   0  -3   4  132.85    3.31 
   0  -3   4  126.68    3.67 
  -1   3  -4   42.38    1.72 
  -1   3  -4   43.30    1.44 
   1  -3   4   45.92    1.37 
   1  -3   4   44.82    1.38 
   1  -3   4   41.22    1.93 
  -2   3  -4   29.77    1.16 
  -2   3  -4   30.11    1.44 
   2  -3   4   31.11    1.41 
   2  -3   4   31.19    1.17 
  -3   3  -4    5.63    0.75 
  -3   3  -4    4.23    0.61 
   3  -3   4    4.52    0.61 
   3  -3   4    5.59    0.74 
  -4   3  -4   19.72    1.16 
  -4   3  -4   17.84    1.07 
   4  -3   4   19.04    1.14 
   4  -3   4   19.60    1.17 
  -5   3  -4   35.48    1.46 
  -5   3  -4   33.93    1.47 
   5  -3   4   34.47    1.57 
   5  -3   4   33.65    1.44 
  -6   3  -4    4.66    0.73 
   6  -3   4    3.86    0.58 
   6  -3   4    3.94    0.69 
  -7   3  -4   12.84    1.31 
   7  -3   4   12.11    1.18 
  -8   3  -4   32.84    1.91 
  -8   3  -4   34.79    1.83 
   8  -3   4   33.67    1.75 
   8  -3   4   32.78    1.55 
  -9   3  -4   97.85    3.37 
  -9   3  -4   99.70    3.39 
   9  -3   4   97.67    3.06 
   9  -3   4  102.29    3.30 
 -10   3  -4  118.76    3.93 
  10  -3   4  119.71    3.79 
  10  -3   4  118.42    3.72 
  10  -3   4  116.06    3.55 
 -11   3  -4  137.13    4.52 
  11  -3   4  127.97    4.11 
  11  -3   4  133.35    4.20 
 -12   3  -4  157.24    5.16 
 -12   3  -4  167.96    5.26 
  12  -3   4  164.00    4.96 
  12  -3   4  166.41    4.78 
 -13   3  -4   90.96    3.83 
  13  -3   4   79.76    3.11 
  13  -3   4   84.07    3.35 
  13  -3   4   76.86    3.21 
 -14   3  -4   32.42    3.22 
  14  -3   4   32.38    2.59 
  14  -3   4   30.18    2.32 
  14  -3   4   35.54    2.30 
  11   2  -4   -0.51    1.66 
  11   2  -4    2.64    1.03 
 -11  -2   4    2.64    1.53 
 -11  -2   4   -1.20    1.43 
  10   2  -4    4.33    1.37 
  10   2  -4    5.97    1.02 
  10   2  -4    3.04    1.51 
 -10  -2   4    5.93    1.30 
 -10  -2   4    3.48    1.29 
   9   2  -4    1.88    0.82 
   9   2  -4   -0.47    1.09 
   9   2  -4    1.63    1.26 
  -9  -2   4    2.22    0.65 
  -9  -2   4    0.68    1.01 
  -9  -2   4   -0.37    0.98 
   8   2  -4   23.34    1.45 
   8   2  -4   18.25    2.64 
   8   2  -4   20.34    2.02 
  -8  -2   4   21.35    1.24 
  -8  -2   4   19.98    1.88 
  -8  -2   4   21.26    1.80 
   7   2  -4  109.20    3.83 
   7   2  -4  106.87    3.09 
   7   2  -4  109.86    3.64 
  -7  -2   4  106.42    3.35 
  -7  -2   4  110.23    3.54 
   6   2  -4  158.51    4.73 
   6   2  -4  155.73    4.01 
   6   2  -4  154.63    4.49 
  -6  -2   4  148.43    4.60 
  -6  -2   4  147.68    4.20 
  -6  -2   4  152.23    4.40 
   5   2  -4  161.83    4.56 
   5   2  -4  163.30    4.14 
   5   2  -4  161.23    4.77 
  -5  -2   4  156.14    4.30 
  -5  -2   4  159.67    4.73 
  -5  -2   4  168.51    4.53 
   4   2  -4  173.95    4.89 
   4   2  -4  170.38    4.69 
   4   2  -4  172.49    4.29 
  -4  -2   4  174.12    4.86 
  -4  -2   4  167.34    4.45 
  -4  -2   4  176.48    4.65 
   3   2  -4  339.36    7.97 
   3   2  -4  334.49    8.52 
   3   2  -4  338.74    8.34 
  -3  -2   4  327.57    8.47 
  -3  -2   4  331.70    8.28 
  -3  -2   4  327.45    8.12 
   2   2  -4  149.45    3.68 
   2   2  -4  151.67    4.04 
   2   2  -4  153.10    4.23 
  -2  -2   4  146.90    3.98 
  -2  -2   4  153.24    3.81 
  -2  -2   4  147.46    3.87 
  -2  -2   4  153.36    4.21 
   1   2  -4    8.05    1.07 
   1   2  -4    5.87    0.78 
   1   2  -4    7.11    0.65 
  -1  -2   4    6.05    0.58 
  -1  -2   4    6.18    0.69 
  -1  -2   4    7.17    0.99 
   0   2  -4   -0.30    0.33 
   0   2  -4    0.02    0.51 
   0   2  -4   -0.41    0.37 
   0  -2   4    0.27    0.32 
   0  -2   4    0.23    0.45 
  -1   2  -4   21.74    0.97 
  -1   2  -4   20.33    1.17 
   1  -2   4   21.89    0.90 
   1  -2   4   20.76    1.15 
  -2   2  -4    5.02    0.67 
  -2   2  -4    4.44    0.59 
   2  -2   4    5.13    0.64 
   2  -2   4    3.50    0.54 
  -3   2  -4   71.86    2.11 
  -3   2  -4   74.03    2.22 
   3  -2   4   70.64    2.10 
   3  -2   4   71.67    2.21 
  -4   2  -4   38.47    1.49 
  -4   2  -4   38.76    1.47 
   4  -2   4   39.10    1.49 
   4  -2   4   39.15    1.45 
  -5   2  -4   17.91    1.79 
  -5   2  -4   16.92    0.74 
   5  -2   4   19.27    1.07 
   5  -2   4   18.88    1.12 
  -6   2  -4  195.83    5.15 
   6  -2   4  190.48    5.12 
   6  -2   4  193.73    5.02 
  -7   2  -4   77.79    2.55 
  -7   2  -4   73.67    2.86 
   7  -2   4   76.24    2.46 
   7  -2   4   73.71    2.41 
  -8   2  -4  199.65    5.43 
  -8   2  -4  202.31    5.46 
   8  -2   4  194.66    5.34 
   8  -2   4  197.67    5.24 
  -9   2  -4  176.62    5.16 
  -9   2  -4  187.34    5.13 
   9  -2   4  180.77    4.92 
   9  -2   4  180.68    5.03 
 -10   2  -4  202.70    6.22 
 -10   2  -4  201.85    5.70 
  10  -2   4  199.64    5.48 
  10  -2   4  207.36    5.63 
 -11   2  -4   75.17    3.06 
  11  -2   4   77.19    2.85 
  11  -2   4   75.58    2.82 
  11  -2   4   75.20    2.73 
 -12   2  -4   24.92    2.32 
 -12   2  -4   26.93    2.31 
  12  -2   4   25.76    1.86 
  12  -2   4   26.23    1.90 
  12  -2   4   24.46    1.87 
 -13   2  -4   15.46    1.73 
  13  -2   4   14.34    1.85 
  13  -2   4   15.37    1.84 
  13  -2   4   11.28    1.37 
 -14   2  -4   -2.67    1.53 
  14  -2   4    2.67    1.09 
  14  -2   4   -0.01    1.16 
  14  -2   4    0.18    0.98 
  11   1  -4    8.15    1.73 
  11   1  -4   11.61    1.32 
 -11  -1   4    9.86    1.65 
  10   1  -4   10.83    1.57 
  10   1  -4    8.79    1.14 
  10   1  -4    8.99    1.47 
 -10  -1   4   10.85    1.51 
 -10  -1   4   12.67    1.58 
   9   1  -4   73.52    3.81 
   9   1  -4   72.09    2.57 
   9   1  -4   73.49    3.20 
  -9  -1   4   73.76    3.04 
  -9  -1   4   72.67    2.53 
   8   1  -4  119.78    4.05 
   8   1  -4  120.83    3.56 
   8   1  -4  128.55    4.17 
  -8  -1   4  123.46    3.48 
  -8  -1   4  119.61    3.94 
   7   1  -4  168.16    4.83 
   7   1  -4  163.89    4.89 
   7   1  -4  157.71    4.39 
  -7  -1   4  159.46    4.33 
  -7  -1   4  159.53    4.69 
   6   1  -4   97.06    3.25 
   6   1  -4   97.78    2.75 
   6   1  -4   97.00    3.14 
  -6  -1   4   93.63    3.09 
  -6  -1   4   81.07    4.10 
   5   1  -4   91.23    2.55 
   5   1  -4   92.70    3.03 
  -5  -1   4   88.12    2.86 
  -5  -1   4   93.62    2.99 
  -5  -1   4   88.17    2.74 
   4   1  -4  109.65    3.34 
   4   1  -4  110.80    3.23 
   4   1  -4  111.87    2.92 
  -4  -1   4  111.68    3.20 
  -4  -1   4  108.94    3.30 
  -4  -1   4  105.22    3.06 
   3   1  -4   38.19    1.51 
   3   1  -4   35.10    1.18 
   3   1  -4   38.82    1.65 
  -3  -1   4   33.78    1.77 
  -3  -1   4   35.66    1.47 
  -3  -1   4   33.04    1.35 
   2   1  -4    0.29    0.33 
   2   1  -4    0.23    0.51 
   2   1  -4   -0.12    0.43 
  -2  -1   4   -0.50    0.39 
  -2  -1   4    0.14    0.47 
  -2  -1   4    0.05    0.44 
   1   1  -4   26.94    1.04 
   1   1  -4   26.46    0.89 
   1   1  -4   26.53    1.15 
   1   1  -4   27.36    1.30 
  -1  -1   4   26.14    1.11 
  -1  -1   4   25.85    1.26 
  -1  -1   4   28.30    0.89 
  -1  -1   4   27.40    1.13 
   0   1  -4   57.88    1.87 
   0   1  -4   55.88    1.74 
   0   1  -4   59.05    1.58 
   0   1  -4   56.66    1.72 
   0  -1   4   61.48    1.52 
   0  -1   4   58.00    1.73 
   0  -1   4   57.52    1.88 
  -1   1  -4  104.64    2.76 
  -1   1  -4  104.15    2.79 
  -1   1  -4  103.88    2.89 
  -1   1  -4  104.88    2.58 
   1  -1   4  106.04    2.74 
   1  -1   4  103.06    2.88 
  -2   1  -4    0.55    0.39 
  -2   1  -4    0.32    0.34 
   2  -1   4    0.17    0.37 
   2  -1   4    0.37    0.33 
  -3   1  -4   22.35    0.98 
   3  -1   4   21.95    1.05 
   3  -1   4   22.61    0.98 
  -4   1  -4   83.45    2.39 
  -4   1  -4   82.70    2.19 
   4  -1   4   82.17    2.37 
   4  -1   4   80.94    2.38 
  -5   1  -4   89.07    2.61 
  -5   1  -4   85.30    2.30 
   5  -1   4   86.73    2.57 
   5  -1   4   90.61    2.57 
   5  -1   4   88.96    2.56 
  -6   1  -4  303.97    7.51 
  -6   1  -4  321.08    7.88 
   6  -1   4  317.17    7.79 
   6  -1   4  310.79    7.81 
  -7   1  -4  233.27    5.95 
  -7   1  -4  227.16    5.90 
   7  -1   4  218.74    5.49 
   7  -1   4  223.54    5.80 
  -8   1  -4  163.90    4.55 
  -8   1  -4  161.79    4.42 
   8  -1   4  157.08    3.99 
   8  -1   4  157.43    4.35 
  -9   1  -4   57.87    2.36 
  -9   1  -4   58.17    2.24 
   9  -1   4   56.43    2.11 
   9  -1   4   53.88    1.66 
 -10   1  -4   40.82    2.11 
 -10   1  -4   40.48    2.19 
  10  -1   4   39.05    1.37 
  10  -1   4   41.11    1.90 
 -11   1  -4    0.29    0.94 
  11  -1   4   -1.27    0.74 
  11  -1   4    0.17    0.45 
  11  -1   4    0.67    0.76 
 -12   1  -4    1.15    1.03 
 -12   1  -4    4.26    1.19 
  12  -1   4    2.75    0.58 
  12  -1   4    3.85    0.94 
  12  -1   4    2.53    0.93 
 -13   1  -4    3.69    1.36 
  13  -1   4    2.53    1.01 
  13  -1   4    3.91    1.01 
 -14   1  -4    9.22    1.72 
  14  -1   4    7.75    1.27 
 -12   0   4   33.99    3.09 
  11   0  -4   57.13    2.62 
  11   0  -4   57.10    3.31 
 -11   0   4   62.67    3.25 
  10   0  -4   62.15    2.57 
  10   0  -4   65.69    3.09 
  10   0  -4   62.84    3.13 
 -10   0   4   62.09    3.02 
 -10   0   4   65.64    2.38 
   9   0  -4   97.21    3.21 
   9   0  -4   95.50    3.69 
   9   0  -4  101.79    3.64 
  -9   0   4  100.38    3.08 
  -9   0   4  105.44    3.68 
   8   0  -4   84.84    3.00 
   8   0  -4   79.33    3.14 
   8   0  -4   82.24    3.11 
  -8   0   4   81.39    2.63 
  -8   0   4   79.20    3.81 
   7   0  -4   48.52    1.90 
   7   0  -4   49.54    2.26 
   7   0  -4   48.67    2.26 
  -7   0   4   49.76    2.28 
  -7   0   4   46.24    2.07 
   6   0  -4    9.91    0.98 
   6   0  -4    8.80    0.99 
   6   0  -4   11.32    1.40 
  -6   0   4   10.89    1.41 
  -6   0   4    9.55    1.27 
   5   0  -4    0.82    0.47 
   5   0  -4    0.39    0.59 
   5   0  -4    0.19    0.58 
  -5   0   4    0.53    0.64 
  -5   0   4   -0.26    0.62 
   4   0  -4   17.21    1.21 
   4   0  -4   18.45    0.94 
   4   0  -4   17.85    1.23 
  -4   0   4   16.43    1.15 
  -4   0   4   17.96    1.21 
  -4   0   4   16.99    1.13 
   3   0  -4  112.38    2.92 
   3   0  -4  113.84    3.20 
  -3   0   4  112.51    3.14 
  -3   0   4  109.14    3.14 
  -3   0   4  106.55    3.05 
   2   0  -4   25.47    1.23 
   2   0  -4   24.70    1.17 
   2   0  -4   24.42    0.93 
  -2   0   4   24.83    1.15 
  -2   0   4   24.10    1.19 
  -2   0   4   23.65    1.11 
   1   0  -4   27.42    1.16 
   1   0  -4   26.17    1.05 
   1   0  -4   25.91    1.07 
   1   0  -4   25.75    0.90 
  -1   0   4   24.89    1.09 
  -1   0   4   26.42    1.07 
  -1   0   4   26.30    1.14 
   0   0  -4    2.22    0.43 
   0   0  -4    2.44    0.38 
   0   0  -4    2.88    0.33 
   0   0  -4    1.97    0.36 
   0   0   4    1.81    0.36 
   0   0   4    2.31    0.42 
   0   0   4    1.69    0.40 
  -1   0  -4  458.04   11.20 
  -1   0  -4  457.19   11.11 
  -1   0  -4  477.51   11.20 
   1   0   4  466.41   11.22 
   1   0   4  473.68   11.18 
  -2   0  -4   26.82    1.09 
  -2   0  -4   27.27    1.10 
   2   0   4   28.30    1.11 
   2   0   4   28.65    1.04 
  -3   0  -4  390.78    9.38 
  -3   0  -4  394.11    9.46 
   3   0   4  389.26    9.48 
   3   0   4  392.26    9.45 
  -4   0  -4  444.90   10.51 
  -4   0  -4  438.84   10.64 
   4   0   4  439.79   10.62 
   4   0   4  437.49   10.64 
  -5   0  -4  474.25   11.34 
  -5   0  -4  483.25   11.54 
   5   0   4  468.52   11.50 
   5   0   4  475.83   11.33 
  -6   0  -4  355.88    8.78 
  -6   0  -4  369.06    8.91 
   6   0   4  356.68    8.62 
   6   0   4  351.43    8.76 
  -7   0  -4   57.26    1.93 
  -7   0  -4   60.26    2.09 
   7   0   4   57.58    1.71 
   7   0   4   54.47    1.85 
  -8   0  -4   18.88    1.66 
  -8   0  -4   19.37    1.26 
   8   0   4   19.47    0.94 
   8   0   4   18.73    1.11 
  -9   0  -4    8.11    0.90 
  -9   0  -4    5.92    0.90 
   9   0   4    7.33    0.81 
   9   0   4    7.66    1.02 
 -10   0  -4    0.36    0.79 
 -10   0  -4   -0.66    0.76 
  10   0   4   -0.51    0.51 
  10   0   4    0.19    0.60 
 -11   0  -4    6.60    1.11 
 -11   0  -4    6.30    1.06 
  11   0   4    7.24    0.80 
  11   0   4    6.80    0.89 
 -12   0  -4    5.76    1.17 
  12   0   4    5.72    0.91 
  12   0   4    4.48    1.01 
  12   0   4    5.75    0.93 
 -13   0  -4    0.07    1.12 
 -13   0  -4    1.68    2.00 
  13   0   4    1.68    0.94 
  13   0   4    2.43    0.84 
  13   0   4    0.70    0.86 
 -14   0  -4   -0.42    1.39 
  14   0   4    1.00    1.02 
  14   0   4    2.79    1.32 
  12  -1  -4   62.17    3.36 
  12  -1  -4   63.39    2.90 
 -12   1   4   71.07    3.67 
  11  -1  -4   74.62    3.37 
  11  -1  -4   78.09    3.01 
 -11   1   4   74.44    2.74 
 -11   1   4   72.19    3.52 
  10  -1  -4   56.89    2.95 
  10  -1  -4   56.05    2.44 
  10  -1  -4   52.79    2.77 
 -10   1   4   53.44    2.86 
   9  -1  -4   21.12    1.92 
   9  -1  -4   25.25    1.70 
   9  -1  -4   24.58    2.19 
  -9   1   4   20.46    2.09 
  -9   1   4   23.90    1.63 
   8  -1  -4    3.22    0.85 
   8  -1  -4    4.26    1.02 
   8  -1  -4    3.34    0.88 
  -8   1   4    4.34    0.82 
   7  -1  -4    0.91    0.80 
   7  -1  -4   -0.80    0.60 
   7  -1  -4   -0.42    0.66 
  -7   1   4   -0.53    0.83 
  -7   1   4   -0.02    0.61 
   6  -1  -4   21.13    1.42 
   6  -1  -4   20.59    1.53 
   6  -1  -4   19.90    1.22 
  -6   1   4   20.74    1.59 
   5  -1  -4   71.77    2.45 
   5  -1  -4   72.53    2.32 
   5  -1  -4   71.87    2.20 
  -5   1   4   68.12    2.28 
  -5   1   4   69.77    2.45 
   4  -1  -4    1.95    0.53 
   4  -1  -4    0.64    0.54 
   4  -1  -4    1.77    0.45 
  -4   1   4    2.04    0.62 
  -4   1   4    1.87    0.48 
   3  -1  -4    8.38    0.94 
   3  -1  -4    7.67    0.71 
   3  -1  -4    7.16    0.88 
  -3   1   4    5.43    0.58 
  -3   1   4    5.51    0.67 
  -3   1   4    6.39    0.90 
   2  -1  -4   93.29    2.40 
   2  -1  -4   88.14    2.49 
  -2   1   4   88.12    2.53 
  -2   1   4   85.66    2.48 
  -2   1   4   89.17    2.54 
   1  -1  -4   68.53    1.99 
   1  -1  -4   69.02    1.89 
   1  -1  -4   68.81    2.02 
  -1   1   4   71.57    2.02 
  -1   1   4   68.92    2.01 
  -1   1   4   69.02    2.04 
   0  -1  -4  218.36    5.40 
   0  -1  -4  221.95    5.30 
   0  -1  -4  211.03    5.37 
   0  -1  -4  216.52    5.35 
   0   1   4  215.99    5.39 
   0   1   4  220.94    5.44 
   0   1   4  218.36    5.35 
  -1  -1  -4  532.73   12.80 
  -1  -1  -4  552.38   12.73 
  -1  -1  -4  529.35   12.73 
   1   1   4  541.80   12.85 
   1   1   4  536.92   12.81 
   1   1   4  532.34   12.72 
  -2  -1  -4  174.03    4.32 
  -2  -1  -4  175.21    4.43 
  -2  -1  -4  176.58    4.49 
   2   1   4  180.95    4.48 
   2   1   4  179.58    4.47 
  -3  -1  -4  265.95    6.38 
  -3  -1  -4  255.04    6.44 
   3   1   4  263.35    6.37 
   3   1   4  260.79    6.41 
  -4  -1  -4  143.75    3.69 
  -4  -1  -4  142.40    3.76 
   4   1   4  146.67    3.76 
   4   1   4  146.78    3.68 
  -5  -1  -4  182.53    4.67 
  -5  -1  -4  177.89    4.55 
   5   1   4  182.60    4.65 
   5   1   4  180.00    4.54 
  -6  -1  -4   15.27    0.91 
   6   1   4   14.81    0.86 
   6   1   4   12.98    0.82 
   6   1   4   15.09    1.00 
  -7  -1  -4    3.12    0.53 
  -7  -1  -4    2.99    0.62 
   7   1   4    3.00    0.51 
   7   1   4    3.09    0.50 
  -8  -1  -4    0.76    0.64 
  -8  -1  -4    2.29    0.59 
   8   1   4    1.72    0.49 
   8   1   4    1.68    0.50 
  -9  -1  -4    7.54    0.95 
  -9  -1  -4    7.55    0.83 
   9   1   4    8.61    0.96 
   9   1   4    6.42    0.69 
 -10  -1  -4    8.15    1.05 
 -10  -1  -4    9.21    0.99 
  10   1   4    7.77    1.03 
  10   1   4    9.67    1.16 
 -11  -1  -4    2.36    0.96 
 -11  -1  -4    2.09    0.89 
  11   1   4    1.94    0.76 
  11   1   4    2.39    0.66 
 -12  -1  -4    0.02    0.99 
  12   1   4    1.89    0.87 
  12   1   4    2.86    0.86 
  12   1   4    1.50    0.71 
 -13  -1  -4   17.56    1.59 
 -13  -1  -4   15.30    1.61 
  13   1   4   15.41    1.76 
  13   1   4   19.60    2.37 
  13   1   4   18.69    1.67 
 -14  -1  -4   49.63    2.89 
  14   1   4   45.74    3.13 
  14   1   4   42.82    2.43 
  14   1   4   49.44    2.32 
  12  -2  -4   30.74    2.53 
  12  -2  -4   34.11    2.34 
 -12   2   4   40.70    3.22 
  11  -2  -4    7.45    1.27 
  11  -2  -4    8.03    1.21 
 -11   2   4    6.84    1.57 
 -11   2   4    8.13    1.25 
  10  -2  -4   -2.41    1.11 
  10  -2  -4   -1.63    0.89 
  10  -2  -4   -0.85    0.84 
 -10   2   4    0.41    0.90 
 -10   2   4    0.72    1.22 
   9  -2  -4    2.03    0.86 
   9  -2  -4    2.25    1.06 
   9  -2  -4    2.07    0.87 
  -9   2   4    2.40    0.90 
  -9   2   4    2.36    1.09 
   8  -2  -4    3.90    0.85 
   8  -2  -4    6.00    1.08 
   8  -2  -4    3.85    0.86 
  -8   2   4    4.10    1.87 
  -8   2   4    4.58    0.88 
   7  -2  -4    8.64    1.11 
   7  -2  -4    8.03    0.86 
  -7   2   4    7.30    1.04 
  -7   2   4    8.38    0.93 
   6  -2  -4   29.89    1.45 
   6  -2  -4   29.61    1.68 
   6  -2  -4   29.38    1.43 
  -6   2   4   29.06    1.45 
  -6   2   4   28.11    1.76 
   5  -2  -4    0.88    0.62 
   5  -2  -4    0.99    0.47 
  -5   2   4   -0.03    0.63 
  -5   2   4    0.82    0.43 
  -5   2   4    1.41    0.62 
   4  -2  -4   49.32    1.61 
   4  -2  -4   48.36    1.86 
   4  -2  -4   50.71    1.66 
  -4   2   4   45.31    1.57 
  -4   2   4   47.08    1.86 
   3  -2  -4   87.21    2.44 
   3  -2  -4   87.04    2.63 
   3  -2  -4   85.09    2.37 
  -3   2   4   84.63    2.37 
  -3   2   4   85.30    2.62 
   2  -2  -4  191.07    4.87 
   2  -2  -4  193.90    4.74 
   2  -2  -4  190.71    4.69 
  -2   2   4  186.92    4.84 
  -2   2   4  185.11    4.69 
  -2   2   4  185.50    4.86 
   1  -2  -4  217.03    5.41 
   1  -2  -4  227.51    5.46 
   1  -2  -4  224.37    5.54 
  -1   2   4  215.75    5.42 
  -1   2   4  218.62    5.56 
  -1   2   4  226.93    5.52 
   0  -2  -4  304.34    7.53 
   0  -2  -4  312.16    7.57 
   0  -2  -4  313.49    7.64 
   0  -2  -4  322.93    7.55 
   0   2   4  310.10    7.55 
   0   2   4  321.25    7.37 
   0   2   4  312.41    7.65 
   0   2   4  308.30    7.55 
  -1  -2  -4  197.56    5.03 
  -1  -2  -4  202.24    4.89 
  -1  -2  -4  196.25    4.98 
  -1  -2  -4  209.00    4.77 
  -1  -2  -4  202.11    4.92 
   1   2   4  197.30    5.03 
   1   2   4  200.70    4.96 
   1   2   4  199.18    4.87 
  -2  -2  -4  104.27    2.57 
  -2  -2  -4  100.67    2.78 
  -2  -2  -4  102.16    2.74 
  -2  -2  -4  107.16    2.69 
   2   2   4  102.81    2.74 
   2   2   4  102.93    2.79 
  -3  -2  -4   57.90    1.74 
  -3  -2  -4   57.61    1.78 
   3   2   4   59.04    1.73 
   3   2   4   60.33    1.74 
  -4  -2  -4   52.94    1.68 
  -4  -2  -4   53.74    1.67 
   4   2   4   54.71    1.67 
   4   2   4   53.06    1.65 
  -5  -2  -4    4.35    0.54 
  -5  -2  -4    2.76    0.50 
   5   2   4    2.85    0.50 
   5   2   4    2.77    0.50 
  -6  -2  -4   57.91    1.72 
  -6  -2  -4   58.32    1.94 
   6   2   4   61.31    1.93 
   6   2   4   58.15    1.88 
  -7  -2  -4   18.52    1.18 
  -7  -2  -4   18.33    0.96 
   7   2   4   16.49    0.87 
   7   2   4   17.79    1.05 
  -8  -2  -4    0.49    0.61 
  -8  -2  -4   -0.80    0.47 
   8   2   4    0.06    0.61 
   8   2   4    0.09    0.38 
  -9  -2  -4    9.37    1.15 
  -9  -2  -4    9.97    1.03 
   9   2   4    9.25    1.11 
   9   2   4   10.01    0.86 
 -10  -2  -4   50.93    2.03 
 -10  -2  -4   51.40    2.32 
  10   2   4   50.53    2.05 
  10   2   4   49.24    1.69 
 -11  -2  -4   15.20    1.52 
 -11  -2  -4   12.49    1.29 
  11   2   4   13.73    1.68 
  11   2   4   11.46    1.02 
 -12  -2  -4   49.44    2.31 
  12   2   4   51.39    2.27 
  12   2   4   49.97    2.30 
 -13  -2  -4   85.62    3.18 
 -13  -2  -4   85.14    3.56 
  13   2   4   79.67    3.09 
  13   2   4   80.15    3.10 
  13   2   4   92.46    3.74 
  14   2   4   47.26    2.53 
  14   2   4   48.06    3.41 
  14   2   4   54.14    2.64 
  12  -3  -4    0.56    1.06 
 -12   3   4    0.24    1.60 
 -12   3   4    0.46    1.68 
  11  -3  -4    8.10    1.16 
  11  -3  -4    8.35    1.28 
 -11   3   4    8.13    1.59 
 -11   3   4    9.07    1.35 
  10  -3  -4   13.51    1.61 
  10  -3  -4   13.23    1.64 
  10  -3  -4   13.03    1.35 
 -10   3   4   14.33    1.63 
 -10   3   4   17.77    1.83 
   9  -3  -4   15.54    1.49 
   9  -3  -4   16.00    1.65 
   9  -3  -4   17.36    2.07 
  -9   3   4   18.68    2.13 
  -9   3   4   15.26    1.66 
   8  -3  -4    6.85    0.81 
   8  -3  -4    7.59    0.99 
   8  -3  -4    7.49    1.14 
  -8   3   4    7.38    1.01 
  -8   3   4    8.16    1.22 
   7  -3  -4    0.69    0.54 
   7  -3  -4    0.49    0.78 
   7  -3  -4   -0.09    0.66 
  -7   3   4    0.24    0.81 
  -7   3   4   -0.19    0.69 
   6  -3  -4    4.71    0.86 
   6  -3  -4    7.63    0.87 
   6  -3  -4    4.50    0.73 
  -6   3   4    5.04    0.90 
  -6   3   4    5.09    0.77 
   5  -3  -4   96.92    2.86 
   5  -3  -4   96.57    3.13 
   5  -3  -4   99.72    2.64 
  -5   3   4   94.91    3.04 
  -5   3   4   93.96    2.91 
   4  -3  -4  208.99    5.30 
   4  -3  -4  205.46    5.47 
   4  -3  -4  216.83    5.08 
  -4   3   4  196.30    5.61 
  -4   3   4  203.09    5.06 
  -4   3   4  202.79    5.44 
   3  -3  -4  392.86    9.25 
   3  -3  -4  374.13    9.45 
   3  -3  -4  383.26    9.04 
  -3   3   4  373.74    9.04 
  -3   3   4  369.76    9.35 
   2  -3  -4  290.38    7.04 
   2  -3  -4  302.29    7.22 
   2  -3  -4  295.58    7.33 
  -2   3   4  294.68    7.07 
  -2   3   4  287.90    7.30 
   1  -3  -4  214.02    5.42 
   1  -3  -4  222.78    5.35 
   1  -3  -4  211.57    5.37 
  -1   3   4  213.81    5.39 
  -1   3   4  213.34    5.45 
  -1   3   4  217.96    5.24 
   0  -3  -4  155.71    3.87 
   0  -3  -4  149.96    3.96 
   0  -3  -4  155.58    3.90 
   0  -3  -4  159.06    3.73 
   0  -3  -4  151.55    3.91 
   0   3   4  153.01    3.87 
   0   3   4  149.18    3.96 
   0   3   4  153.96    3.82 
  -1  -3  -4   61.82    1.59 
  -1  -3  -4   61.45    1.68 
  -1  -3  -4   59.19    1.79 
  -1  -3  -4   59.87    1.70 
   1   3   4   58.44    1.77 
   1   3   4   61.64    1.63 
   1   3   4   57.75    1.82 
  -2  -3  -4    0.55    0.32 
  -2  -3  -4    0.76    0.32 
  -2  -3  -4    0.75    0.36 
  -2  -3  -4    1.26    0.25 
  -2  -3  -4    0.32    0.37 
   2   3   4    0.78    0.20 
   2   3   4    0.55    0.35 
   2   3   4    0.87    0.35 
  -3  -3  -4    3.37    0.48 
  -3  -3  -4    3.29    0.44 
   3   3   4    3.84    0.49 
   3   3   4    3.89    0.44 
  -4  -3  -4   24.49    1.11 
  -4  -3  -4   24.46    1.12 
   4   3   4   24.22    1.10 
   4   3   4   26.76    1.06 
  -5  -3  -4   11.96    0.89 
   5   3   4   10.67    0.84 
   5   3   4    9.81    0.87 
  -6  -3  -4    0.54    0.44 
   6   3   4    0.33    0.41 
   6   3   4    0.43    0.49 
  -7  -3  -4    7.37    0.72 
  -7  -3  -4    9.75    1.01 
   7   3   4    8.63    0.61 
   7   3   4    7.69    0.98 
  -8  -3  -4   46.85    1.58 
  -8  -3  -4   50.17    1.93 
   8   3   4   46.27    1.41 
   8   3   4   45.89    1.87 
  -9  -3  -4   67.67    2.11 
   9   3   4   64.01    2.38 
 -10  -3  -4  126.87    3.99 
 -10  -3  -4  132.41    3.65 
  10   3   4  130.23    3.94 
 -11  -3  -4  202.31    5.82 
 -11  -3  -4  204.82    5.40 
  11   3   4  205.52    5.73 
 -12  -3  -4  116.09    3.56 
 -12  -3  -4  113.35    4.01 
  12   3   4  114.82    3.67 
  12   3   4  122.44    4.33 
  12   3   4  112.84    3.82 
 -13  -3  -4   22.60    1.94 
  13   3   4   23.53    2.14 
  13   3   4   23.40    2.72 
  13   3   4   23.86    1.84 
 -14  -3  -4   29.43    2.21 
 -14  -3  -4   27.97    3.33 
  14   3   4   32.24    3.22 
  14   3   4   30.35    2.08 
  12  -4  -4    0.66    1.11 
 -12   4   4    1.96    1.67 
  11  -4  -4    7.11    1.27 
 -11   4   4    9.12    1.69 
 -11   4   4    8.71    1.42 
  10  -4  -4   -0.68    0.67 
  10  -4  -4   -1.72    1.19 
  10  -4  -4   -1.42    0.87 
 -10   4   4    1.05    1.06 
 -10   4   4    1.15    1.24 
   9  -4  -4   11.57    1.24 
   9  -4  -4    9.88    1.37 
  -9   4   4   12.86    1.51 
  -9   4   4   12.18    1.66 
   8  -4  -4   52.59    2.61 
   8  -4  -4   50.39    2.28 
  -8   4   4   56.22    2.64 
  -8   4   4   54.05    2.38 
   7  -4  -4   45.31    2.00 
   7  -4  -4   44.90    2.24 
  -7   4   4   44.31    2.04 
  -7   4   4   44.46    2.30 
   6  -4  -4  128.94    3.93 
  -6   4   4  130.28    3.94 
  -6   4   4  125.75    3.80 
   5  -4  -4  173.95    4.65 
  -5   4   4  172.00    4.82 
  -5   4   4  173.01    4.75 
   4  -4  -4  228.44    5.91 
   4  -4  -4  226.95    6.02 
  -4   4   4  229.18    5.98 
  -4   4   4  230.97    6.03 
   3  -4  -4  312.03    7.52 
   3  -4  -4  306.49    7.46 
  -3   4   4  286.56    7.87 
  -3   4   4  303.37    7.63 
   2  -4  -4    3.16    0.49 
   2  -4  -4    2.77    0.47 
   2  -4  -4    2.84    0.59 
  -2   4   4    2.68    0.29 
  -2   4   4    2.86    0.57 
   1  -4  -4   25.80    1.03 
   1  -4  -4   23.76    1.13 
   1  -4  -4   23.40    1.01 
  -1   4   4   24.61    1.15 
  -1   4   4   24.07    1.13 
  -1   4   4   24.40    0.85 
   0  -4  -4    0.30    0.34 
   0  -4  -4    0.49    0.36 
   0  -4  -4    0.43    0.38 
   0  -4  -4    0.60    0.29 
   0   4   4    0.73    0.36 
   0   4   4    0.38    0.37 
   0   4   4    0.10    0.37 
  -1  -4  -4   36.58    1.14 
  -1  -4  -4   37.31    1.21 
  -1  -4  -4   35.67    1.29 
  -1  -4  -4   37.20    1.15 
  -1  -4  -4   35.86    1.31 
   1   4   4   34.67    1.32 
   1   4   4   35.53    1.28 
   1   4   4   37.02    1.14 
  -2  -4  -4   78.20    2.08 
  -2  -4  -4   75.02    2.18 
  -2  -4  -4   75.09    1.95 
  -2  -4  -4   79.28    2.11 
   2   4   4   73.93    2.21 
   2   4   4   77.93    1.94 
   2   4   4   76.09    2.19 
  -3  -4  -4    2.07    0.39 
  -3  -4  -4    2.27    0.40 
  -3  -4  -4    1.70    0.49 
  -3  -4  -4    1.97    0.43 
   3   4   4    1.67    0.39 
   3   4   4    1.49    0.46 
  -4  -4  -4   24.86    1.12 
   4   4   4   26.25    1.07 
   4   4   4   24.10    1.18 
  -5  -4  -4    1.96    0.50 
   5   4   4    1.21    0.41 
   5   4   4    1.05    0.54 
  -6  -4  -4   99.87    2.79 
   6   4   4   93.69    2.91 
   6   4   4   95.80    2.71 
   7   4   4   68.67    2.37 
  -8  -4  -4   71.18    2.04 
  -8  -4  -4   76.92    2.45 
   8   4   4   66.66    2.80 
  -9  -4  -4  185.83    5.04 
  -9  -4  -4  172.15    4.60 
   9   4   4  185.36    5.14 
 -10  -4  -4   78.34    2.42 
 -10  -4  -4   79.67    2.91 
  10   4   4   79.05    2.91 
 -11  -4  -4   64.06    2.27 
 -11  -4  -4   63.95    2.78 
  11   4   4   64.98    2.72 
  11   4   4   71.43    3.17 
 -12  -4  -4   23.20    1.62 
 -12  -4  -4   17.47    2.19 
  12   4   4   18.52    1.70 
  12   4   4   20.73    2.51 
  12   4   4   22.65    2.01 
 -13  -4  -4    1.41    0.92 
  13   4   4   -0.11    1.56 
  13   4   4    1.79    0.96 
  13   4   4   -0.96    1.36 
 -14  -4  -4    0.65    1.52 
 -14  -4  -4    3.06    1.08 
  14   4   4    4.30    1.76 
  14   4   4    3.77    1.11 
  14   4   4    5.32    1.61 
  12  -5  -4   -0.13    1.42 
  12  -5  -4    1.35    1.16 
 -12   5   4    0.66    1.43 
 -12   5   4    0.82    1.61 
  11  -5  -4    1.47    1.07 
  11  -5  -4    0.37    1.05 
 -11   5   4    2.06    1.58 
 -11   5   4   -0.49    1.48 
  10  -5  -4   29.30    2.63 
  10  -5  -4   32.45    2.16 
 -10   5   4   37.62    2.39 
 -10   5   4   35.71    2.79 
   9  -5  -4  120.42    4.34 
   9  -5  -4  122.29    4.05 
  -9   5   4  131.27    4.41 
  -9   5   4  125.24    4.08 
   8  -5  -4  173.69    4.96 
   8  -5  -4  186.33    5.31 
   8  -5  -4  181.12    5.51 
  -8   5   4  192.21    5.37 
  -8   5   4  189.88    5.56 
   7  -5  -4   45.28    2.08 
   7  -5  -4   47.59    1.86 
   7  -5  -4   49.13    2.33 
  -7   5   4   48.09    2.19 
  -7   5   4   47.90    2.40 
   6  -5  -4  139.66    4.19 
   6  -5  -4  131.50    3.98 
   6  -5  -4  141.30    3.80 
  -6   5   4  137.03    4.09 
  -6   5   4  139.50    4.23 
   5  -5  -4   65.63    2.27 
   5  -5  -4   65.73    2.47 
   5  -5  -4   69.30    2.12 
  -5   5   4   66.96    2.47 
  -5   5   4   65.37    2.45 
   4  -5  -4   95.37    3.02 
   4  -5  -4   97.19    2.86 
   4  -5  -4   95.84    2.69 
  -4   5   4   95.13    2.99 
  -4   5   4   97.02    3.04 
   3  -5  -4    6.50    0.74 
   3  -5  -4    7.20    0.77 
  -3   5   4    6.84    0.81 
  -3   5   4    5.99    0.72 
   2  -5  -4  140.59    3.69 
   2  -5  -4  143.42    3.73 
   2  -5  -4  137.83    3.83 
  -2   5   4  138.40    3.84 
   1  -5  -4    0.79    0.41 
   1  -5  -4    0.47    0.42 
   1  -5  -4    0.79    0.45 
  -1   5   4    0.78    0.49 
  -1   5   4    1.05    0.46 
  -1   5   4    1.05    0.48 
  -1   5   4    0.90    0.44 
   0  -5  -4    5.01    0.59 
   0  -5  -4    3.60    0.45 
   0  -5  -4    6.16    0.73 
   0  -5  -4    4.66    0.56 
   0   5   4    4.56    0.53 
   0   5   4    4.55    0.55 
   0   5   4    5.59    0.73 
   0   5   4    4.99    0.59 
  -1  -5  -4   15.04    0.77 
  -1  -5  -4   13.36    0.76 
  -1  -5  -4   13.68    0.88 
  -1  -5  -4   15.55    0.77 
  -1  -5  -4   13.61    0.93 
   1   5   4   14.54    0.79 
   1   5   4   13.82    0.89 
   1   5   4   13.48    0.90 
  -2  -5  -4   20.04    0.87 
  -2  -5  -4   16.87    0.93 
  -2  -5  -4   18.35    1.03 
   2   5   4   17.68    0.95 
   2   5   4   18.00    0.75 
   2   5   4   17.79    1.02 
  -3  -5  -4    4.34    0.52 
  -3  -5  -4    5.50    0.56 
  -3  -5  -4    5.09    0.50 
   3   5   4    3.65    0.61 
   3   5   4    5.39    0.72 
  -4  -5  -4  205.61    5.33 
  -4  -5  -4  215.32    5.36 
   4   5   4  219.78    5.87 
   4   5   4  206.14    5.27 
  -5  -5  -4  214.24    5.48 
   5   5   4  217.54    5.42 
   5   5   4  217.09    5.72 
  -6  -5  -4  158.35    4.19 
   6   5   4  157.10    4.11 
   6   5   4  157.69    4.44 
  -7  -5  -4  112.45    3.12 
   7   5   4   98.60    3.62 
  -8  -5  -4   59.14    2.11 
   8   5   4   54.68    2.30 
  -9  -5  -4   94.33    2.59 
  -9  -5  -4   97.93    3.08 
   9   5   4   94.35    3.66 
   9   5   4   94.18    3.28 
 -10  -5  -4    2.74    0.85 
 -10  -5  -4    2.82    0.59 
  10   5   4    1.11    1.03 
  10   5   4    2.98    1.02 
 -11  -5  -4   -0.46    0.92 
 -11  -5  -4    0.31    0.64 
  11   5   4    0.16    1.05 
  11   5   4   -1.94    1.04 
 -12  -5  -4    2.73    1.19 
 -12  -5  -4    4.55    0.83 
  12   5   4    2.79    0.93 
  12   5   4    0.47    1.18 
  12   5   4    2.03    1.33 
 -13  -5  -4    7.05    0.94 
  13   5   4    4.42    1.47 
  13   5   4    5.22    1.67 
  13   5   4    4.57    1.09 
  12  -6  -4   21.89    2.33 
 -12   6   4   19.33    2.19 
  11  -6  -4   59.30    2.27 
  11  -6  -4   61.76    2.98 
 -11   6   4   63.29    3.74 
 -11   6   4   62.05    3.15 
  10  -6  -4   78.12    3.21 
  10  -6  -4   78.80    2.62 
 -10   6   4   80.25    3.71 
   9  -6  -4  109.09    4.13 
   9  -6  -4  108.33    3.76 
   9  -6  -4  103.82    3.19 
  -9   6   4  111.30    4.09 
  -9   6   4  111.89    4.10 
   8  -6  -4   75.06    3.82 
   8  -6  -4   91.78    2.74 
   8  -6  -4   90.34    3.23 
  -8   6   4   94.11    3.58 
  -8   6   4   98.52    3.36 
   7  -6  -4    1.73    0.81 
   7  -6  -4    2.30    0.62 
  -7   6   4    0.87    0.87 
   6  -6  -4   34.22    1.39 
   6  -6  -4   34.13    1.72 
   6  -6  -4   33.60    1.96 
  -6   6   4   32.41    1.86 
  -6   6   4   33.27    2.05 
   5  -6  -4    0.89    0.50 
   5  -6  -4    1.28    0.73 
   5  -6  -4    0.91    0.69 
  -5   6   4    1.50    0.79 
  -5   6   4    2.03    0.74 
   4  -6  -4   37.60    1.40 
   4  -6  -4   39.10    1.60 
   4  -6  -4   36.57    1.81 
  -4   6   4   33.21    1.97 
  -4   6   4   39.10    1.82 
   3  -6  -4   40.35    1.55 
   3  -6  -4   37.22    1.41 
   3  -6  -4   37.45    1.68 
  -3   6   4   37.29    1.68 
  -3   6   4   38.78    1.73 
   2  -6  -4    8.81    0.82 
   2  -6  -4    7.88    0.82 
  -2   6   4    8.57    0.56 
  -2   6   4    9.48    0.81 
  -2   6   4    9.69    1.02 
  -2   6   4    9.15    1.07 
   1  -6  -4    1.86    0.50 
   1  -6  -4    1.17    0.45 
   1  -6  -4    1.79    0.51 
  -1   6   4    1.60    0.46 
  -1   6   4    2.08    0.52 
  -1   6   4    1.30    0.48 
  -1   6   4    1.92    0.97 
   0  -6  -4   18.15    1.05 
   0  -6  -4   17.66    0.92 
   0  -6  -4   18.01    0.91 
   0   6   4   16.05    0.97 
   0   6   4   18.25    1.01 
   0   6   4   17.56    1.06 
   0   6   4   17.61    1.05 
  -1  -6  -4   77.37    2.40 
  -1  -6  -4   78.99    2.25 
  -1  -6  -4   82.23    2.23 
   1   6   4   75.72    2.37 
   1   6   4   77.96    2.30 
   1   6   4   76.80    2.20 
   1   6   4   77.40    2.36 
  -2  -6  -4   78.52    2.24 
  -2  -6  -4   78.11    2.17 
  -2  -6  -4   78.63    2.27 
   2   6   4   76.25    2.28 
   2   6   4   77.82    3.00 
   2   6   4   74.50    2.25 
   2   6   4   76.74    2.09 
  -3  -6  -4  215.71    5.38 
  -3  -6  -4  217.16    5.46 
  -3  -6  -4  222.61    5.34 
   3   6   4  207.78    5.38 
   3   6   4  213.99    5.64 
   3   6   4  210.55    5.38 
  -4  -6  -4  394.19    9.58 
  -4  -6  -4  394.55    9.50 
   4   6   4  378.39    9.42 
   4   6   4  397.69    9.81 
   4   6   4  389.27    9.43 
  -5  -6  -4  230.25    5.74 
  -5  -6  -4  231.44    5.85 
   5   6   4  221.75    5.56 
   5   6   4  226.81    5.67 
   5   6   4  229.37    6.09 
  -6  -6  -4  192.76    4.96 
   6   6   4  191.06    4.88 
   6   6   4  193.08    5.34 
  -7  -6  -4   42.59    1.73 
   7   6   4   46.40    2.30 
   7   6   4   43.95    2.05 
  -8  -6  -4    3.92    1.34 
   8   6   4    5.18    0.98 
   8   6   4    2.85    1.00 
  -9  -6  -4    7.10    0.97 
   9   6   4    5.94    1.19 
   9   6   4    7.25    1.21 
 -10  -6  -4    5.90    1.68 
  10   6   4    5.95    1.28 
 -11  -6  -4    0.90    1.01 
  11   6   4    3.26    1.31 
  11   6   4    1.33    1.10 
 -12  -6  -4    0.81    1.25 
  12   6   4    1.65    1.47 
  12   6   4    1.23    0.95 
  12   6   4    3.71    1.41 
 -13  -6  -4   -0.76    1.43 
  13   6   4    1.30    1.60 
  13   6   4   -1.18    0.95 
  11  -7  -4   97.75    3.89 
 -11   7   4  107.47    4.55 
  10  -7  -4   57.39    2.04 
  10  -7  -4   55.37    2.81 
 -10   7   4   58.57    3.03 
 -10   7   4   61.99    3.40 
   9  -7  -4   12.02    1.12 
   9  -7  -4    9.85    1.32 
   9  -7  -4    7.71    1.38 
  -9   7   4   10.87    1.62 
   8  -7  -4    1.51    0.60 
   8  -7  -4    0.70    0.86 
  -8   7   4    1.62    1.14 
  -8   7   4    2.23    1.19 
   7  -7  -4    2.44    0.61 
   7  -7  -4    3.13    0.87 
  -7   7   4    2.72    0.96 
  -7   7   4    2.72    1.09 
   6  -7  -4    2.79    0.77 
   6  -7  -4    3.43    0.92 
   6  -7  -4    3.71    0.62 
  -6   7   4    3.06    0.94 
  -6   7   4    3.92    0.94 
   5  -7  -4   28.48    1.28 
   5  -7  -4   27.94    1.54 
   5  -7  -4   30.49    1.82 
  -5   7   4   31.08    1.90 
  -5   7   4   31.14    1.80 
   4  -7  -4   19.51    1.06 
   4  -7  -4   19.17    1.48 
   4  -7  -4   19.83    1.46 
  -4   7   4   20.89    1.55 
  -4   7   4   18.94    1.43 
   3  -7  -4   19.24    1.06 
   3  -7  -4   18.85    1.17 
  -3   7   4   20.07    1.42 
  -3   7   4   19.66    1.06 
   2  -7  -4   10.17    0.89 
   2  -7  -4    9.14    0.88 
  -2   7   4   10.02    0.83 
  -2   7   4    9.68    0.67 
  -2   7   4   10.35    1.12 
  -2   7   4    9.88    1.10 
   1  -7  -4  108.78    3.03 
   1  -7  -4  107.63    2.95 
  -1   7   4  101.73    3.04 
  -1   7   4  103.84    2.85 
  -1   7   4  104.98    2.97 
  -1   7   4  105.71    3.17 
  -1   7   4  102.97    3.04 
   0  -7  -4  202.72    5.12 
   0  -7  -4  204.09    5.29 
   0  -7  -4  198.83    5.14 
   0   7   4  206.95    5.18 
   0   7   4  195.17    5.59 
   0   7   4  197.85    5.40 
   0   7   4  205.50    5.19 
   0   7   4  199.22    5.21 
  -1  -7  -4  200.89    5.01 
  -1  -7  -4  194.67    5.06 
   1   7   4  198.62    5.02 
   1   7   4  194.59    5.18 
   1   7   4  198.25    5.07 
   1   7   4  197.32    5.21 
   1   7   4  199.28    5.19 
  -2  -7  -4  198.56    4.95 
  -2  -7  -4  201.04    5.11 
   2   7   4  193.79    5.11 
   2   7   4  191.73    5.02 
   2   7   4  196.32    5.25 
   2   7   4  197.98    5.28 
   2   7   4  198.88    4.93 
  -3  -7  -4  190.23    4.93 
  -3  -7  -4  191.31    4.79 
  -3  -7  -4  195.81    4.76 
   3   7   4  185.49    4.84 
   3   7   4  189.53    5.19 
   3   7   4  182.04    4.68 
   3   7   4  186.32    4.79 
   3   7   4  188.43    5.12 
  -4  -7  -4   91.50    2.77 
  -4  -7  -4   96.82    2.60 
   4   7   4   92.49    3.09 
   4   7   4   92.03    2.58 
   4   7   4   92.44    2.53 
  -5  -7  -4   36.71    1.58 
  -5  -7  -4   39.35    1.42 
   5   7   4   38.12    1.25 
   5   7   4   38.80    1.34 
   5   7   4   39.56    1.97 
  -6  -7  -4    9.91    0.96 
  -6  -7  -4    9.85    1.08 
   6   7   4    9.60    0.83 
   6   7   4    9.97    1.34 
   6   7   4    6.97    1.02 
  -7  -7  -4    4.38    0.68 
  -7  -7  -4    4.52    0.80 
   7   7   4    4.66    1.01 
   7   7   4    3.83    0.98 
  -8  -7  -4    3.85    0.74 
   8   7   4    4.71    1.13 
   8   7   4    4.24    1.04 
  -9  -7  -4    7.30    0.94 
   9   7   4    7.20    1.31 
 -10  -7  -4    1.64    0.95 
  10   7   4    0.75    1.17 
  10   7   4    1.92    1.10 
 -11  -7  -4   -1.00    1.06 
  11   7   4   -0.87    1.30 
  11   7   4    3.41    1.28 
 -12  -7  -4    4.08    1.34 
  12   7   4    6.07    1.72 
  12   7   4    4.64    1.00 
  11  -8  -4    0.34    1.13 
 -11   8   4    3.06    1.73 
  10  -8  -4   -0.23    1.02 
 -10   8   4   -2.31    1.54 
   9  -8  -4    1.64    0.96 
   9  -8  -4    2.45    0.64 
  -9   8   4    4.40    1.50 
  -9   8   4    3.53    1.21 
   8  -8  -4   19.76    1.19 
   8  -8  -4   21.52    1.83 
  -8   8   4   20.79    2.35 
   7  -8  -4    8.62    1.09 
   7  -8  -4    8.83    0.98 
  -7   8   4    9.78    1.96 
  -7   8   4    8.39    1.36 
   6  -8  -4    1.76    0.76 
   6  -8  -4    0.32    0.53 
  -6   8   4    0.71    0.89 
  -6   8   4    0.25    1.04 
   5  -8  -4    1.12    0.55 
   5  -8  -4    0.85    0.70 
  -5   8   4    2.03    0.89 
  -5   8   4   -0.93    0.75 
   4  -8  -4   35.79    1.48 
   4  -8  -4   34.90    1.67 
  -4   8   4   37.41    1.97 
  -4   8   4   35.96    1.92 
   3  -8  -4   42.80    1.63 
   3  -8  -4   42.43    1.73 
  -3   8   4   41.24    1.59 
  -3   8   4   44.34    1.98 
  -3   8   4   42.62    1.97 
   2  -8  -4  118.92    3.34 
   2  -8  -4  116.02    3.29 
  -2   8   4  115.91    3.08 
  -2   8   4  120.36    3.48 
  -2   8   4  110.00    3.62 
   1  -8  -4  208.16    5.37 
   1  -8  -4  200.58    5.38 
  -1   8   4  206.56    5.30 
  -1   8   4  210.71    5.63 
  -1   8   4  206.24    5.41 
  -1   8   4  206.92    5.45 
  -1   8   4  213.63    5.49 
   0  -8  -4  173.57    4.47 
   0  -8  -4  169.14    4.52 
   0   8   4  168.99    4.62 
   0   8   4  175.19    4.57 
   0   8   4  170.98    4.54 
   0   8   4  165.80    4.69 
   0   8   4  173.57    4.57 
  -1  -8  -4  108.30    3.10 
  -1  -8  -4  110.58    2.99 
   1   8   4  105.83    3.22 
   1   8   4  106.93    3.05 
   1   8   4  111.59    3.06 
   1   8   4  106.58    3.22 
   1   8   4  109.22    3.22 
  -2  -8  -4   40.07    1.59 
  -2  -8  -4   41.68    1.44 
   2   8   4   39.49    1.79 
   2   8   4   42.04    1.53 
   2   8   4   42.99    1.83 
   2   8   4   40.78    1.50 
   2   8   4   38.15    1.63 
  -3  -8  -4   15.70    1.11 
  -3  -8  -4   16.71    0.93 
   3   8   4   16.70    0.94 
   3   8   4   16.21    0.93 
   3   8   4   14.39    1.27 
   3   8   4   15.71    1.02 
   3   8   4   15.95    1.41 
  -4  -8  -4    1.65    0.43 
  -4  -8  -4    1.28    0.58 
   4   8   4    1.98    0.74 
   4   8   4    1.31    0.33 
   4   8   4    1.37    0.39 
   4   8   4    1.20    0.46 
   4   8   4    0.60    0.70 
  -5  -8  -4    3.98    0.53 
  -5  -8  -4    4.72    0.79 
   5   8   4    5.09    0.96 
   5   8   4    3.35    0.89 
   5   8   4    3.94    0.47 
   5   8   4    4.71    0.67 
  -6  -8  -4   28.56    1.26 
  -6  -8  -4   29.73    1.59 
   6   8   4   32.08    2.08 
   6   8   4   29.32    1.19 
   6   8   4   30.44    1.89 
  -7  -8  -4   17.43    1.17 
  -7  -8  -4   17.80    1.42 
   7   8   4   18.17    1.76 
   7   8   4   17.05    2.00 
  -8  -8  -4   -0.06    0.61 
  -8  -8  -4    2.57    0.87 
   8   8   4    1.08    1.05 
  -9  -8  -4    2.67    0.79 
  -9  -8  -4    1.05    0.94 
   9   8   4    0.76    1.20 
   9   8   4    0.26    1.08 
 -10  -8  -4    1.83    0.90 
 -10  -8  -4    2.46    1.02 
  10   8   4    2.89    1.35 
  10   8   4    1.78    1.26 
 -11  -8  -4   18.85    2.05 
 -11  -8  -4   17.96    1.87 
  11   8   4   24.42    3.07 
  11   8   4   16.92    1.60 
 -12  -8  -4   42.31    2.74 
  12   8   4   44.43    3.69 
  12   8   4   48.05    2.11 
  11  -9  -4    8.19    1.67 
 -11   9   4    6.47    2.42 
  10  -9  -4    8.46    1.42 
 -10   9   4    7.64    1.81 
   9  -9  -4    7.15    1.29 
  -9   9   4    8.16    1.62 
   8  -9  -4    0.53    0.85 
  -8   9   4   -1.43    1.21 
  -8   9   4   -1.73    1.06 
   7  -9  -4   20.74    1.79 
   7  -9  -4   20.72    1.20 
  -7   9   4   22.95    2.29 
   6  -9  -4   46.81    1.78 
   6  -9  -4   47.73    2.23 
  -6   9   4   54.67    2.68 
   5  -9  -4  102.87    3.31 
  -5   9   4  102.25    4.78 
   4  -9  -4  161.43    4.59 
  -4   9   4  166.29    4.86 
  -4   9   4  161.31    4.87 
   3  -9  -4  145.10    4.14 
  -3   9   4  152.62    4.40 
  -3   9   4  146.14    3.78 
  -3   9   4  148.59    4.04 
  -3   9   4  146.63    4.46 
   2  -9  -4  192.20    5.19 
  -2   9   4  197.48    5.20 
  -2   9   4  199.29    5.04 
  -2   9   4  201.17    5.41 
  -2   9   4  193.34    5.50 
   1  -9  -4   87.76    2.63 
   1  -9  -4   88.44    2.69 
  -1   9   4   86.12    2.81 
  -1   9   4   86.13    2.72 
  -1   9   4   86.90    2.63 
  -1   9   4   86.68    2.72 
  -1   9   4   86.21    2.92 
   0  -9  -4   40.01    1.81 
   0  -9  -4   41.60    1.70 
   0   9   4   39.47    2.09 
   0   9   4   41.39    1.68 
   0   9   4   43.26    1.80 
   0   9   4   44.84    1.77 
   0   9   4   44.41    1.77 
  -1  -9  -4    0.88    0.49 
  -1  -9  -4    0.91    0.55 
   1   9   4    0.97    0.61 
   1   9   4   -0.04    0.54 
   1   9   4    1.02    0.51 
   1   9   4    0.27    0.58 
   1   9   4    0.02    0.63 
  -2  -9  -4   28.74    1.23 
  -2  -9  -4   26.16    1.41 
   2   9   4   27.45    1.30 
   2   9   4   27.20    1.42 
   2   9   4   29.96    1.69 
   2   9   4   30.05    1.40 
   2   9   4   30.69    1.63 
  -3  -9  -4   14.48    1.21 
  -3  -9  -4   13.68    0.97 
   3   9   4   12.47    1.38 
   3   9   4   13.90    1.04 
   3   9   4   14.27    0.93 
   3   9   4   14.21    1.50 
  -4  -9  -4    6.39    0.88 
   4   9   4    4.95    0.66 
   4   9   4    4.68    0.96 
   4   9   4    5.40    0.64 
   4   9   4    6.89    1.09 
   4   9   4    5.75    0.70 
  -5  -9  -4   11.45    1.24 
   5   9   4   13.50    1.76 
   5   9   4   12.13    0.92 
   5   9   4   12.89    0.79 
   5   9   4   13.81    1.77 
  -6  -9  -4    4.99    0.92 
   6   9   4    4.85    1.08 
  -7  -9  -4   32.20    1.80 
   7   9   4   30.45    2.42 
  -8  -9  -4   34.41    2.02 
   8   9   4   30.63    2.37 
   8   9   4   35.94    2.69 
  -9  -9  -4   57.80    2.69 
   9   9   4   62.20    4.01 
   9   9   4   66.64    3.51 
 -10  -9  -4   66.21    3.03 
  10   9   4   73.00    3.97 
 -11  -9  -4   78.60    3.48 
  11   9   4   90.01    4.48 
  10 -10  -4    1.76    1.23 
 -10  10   4    5.90    1.79 
   9 -10  -4    2.60    1.15 
  -9  10   4   -0.34    1.47 
   8 -10  -4   27.29    2.14 
  -8  10   4   35.55    2.79 
   7 -10  -4   72.29    2.93 
  -7  10   4   75.21    3.40 
  -7  10   4   68.24    3.23 
   6 -10  -4  129.16    4.13 
  -6  10   4  134.40    4.48 
   5 -10  -4  157.60    4.69 
  -5  10   4  163.32    5.03 
   4 -10  -4  126.82    3.82 
  -4  10   4  127.51    4.19 
  -4  10   4  124.86    3.59 
  -4  10   4  125.61    4.22 
   3 -10  -4   59.72    2.24 
  -3  10   4   59.70    2.13 
  -3  10   4   61.69    2.63 
  -3  10   4   61.81    2.56 
  -3  10   4   60.12    1.92 
   2 -10  -4    7.11    1.00 
  -2  10   4    8.51    1.10 
  -2  10   4    8.57    1.02 
  -2  10   4    8.21    1.00 
  -2  10   4    7.73    0.88 
  -2  10   4    8.43    1.11 
   1 -10  -4   -0.63    0.51 
  -1  10   4    0.06    0.70 
  -1  10   4    0.53    0.68 
  -1  10   4   -0.22    0.56 
  -1  10   4   -0.52    0.56 
   0 -10  -4    2.92    0.61 
   0 -10  -4    2.49    0.69 
   0  10   4    1.16    0.72 
   0  10   4    1.41    0.60 
   0  10   4    1.82    0.74 
   0  10   4    2.32    0.70 
   0  10   4    2.17    0.81 
  -1 -10  -4   59.77    2.17 
  -1 -10  -4   54.03    2.14 
   1  10   4   59.60    2.33 
   1  10   4   57.95    2.04 
   1  10   4   57.93    2.17 
   1  10   4   57.80    2.33 
   1  10   4   56.95    2.30 
  -2 -10  -4    2.69    0.57 
  -2 -10  -4    1.95    0.71 
   2  10   4    2.22    0.68 
   2  10   4    1.32    0.54 
   2  10   4    1.11    0.77 
   2  10   4    1.72    0.68 
   2  10   4    2.17    0.84 
  -3 -10  -4   43.11    1.52 
  -3 -10  -4   39.30    1.80 
   3  10   4   38.84    2.21 
   3  10   4   38.01    1.46 
   3  10   4   37.13    2.03 
   3  10   4   39.32    1.68 
   3  10   4   39.35    1.66 
  -4 -10  -4   18.05    1.44 
   4  10   4   17.59    1.92 
   4  10   4   19.14    1.73 
   4  10   4   16.71    0.96 
  -5 -10  -4   20.99    1.53 
   5  10   4   21.35    1.13 
   5  10   4   22.66    1.04 
   5  10   4   17.72    2.09 
   5  10   4   22.42    1.92 
  -6 -10  -4   30.41    1.84 
   6  10   4   32.23    2.48 
  -7 -10  -4   83.43    3.11 
   7  10   4   85.74    3.77 
  -8 -10  -4   76.42    3.04 
   8  10   4   80.77    3.81 
  -9 -10  -4   81.84    3.28 
   9  10   4   82.75    4.17 
 -10 -10  -4   44.46    2.61 
  10  10   4   48.03    3.75 
   9 -11  -4   61.18    3.08 
  -9  11   4   61.97    3.75 
   8 -11  -4   78.61    3.33 
  -8  11   4   85.00    4.01 
   7 -11  -4   86.21    3.38 
  -7  11   4   91.89    3.91 
   6 -11  -4   71.41    2.86 
  -6  11   4   69.45    3.28 
   5 -11  -4   29.61    1.84 
  -5  11   4   31.04    2.37 
   4 -11  -4    4.87    0.88 
  -4  11   4    6.21    1.21 
  -4  11   4    5.99    0.88 
  -4  11   4    6.20    1.17 
   3 -11  -4    0.86    0.67 
  -3  11   4   -0.42    0.54 
  -3  11   4   -0.90    1.03 
  -3  11   4   -0.99    1.12 
  -3  11   4    0.98    0.96 
   2 -11  -4   14.20    1.26 
  -2  11   4   16.53    1.73 
  -2  11   4   16.00    1.41 
  -2  11   4   15.49    1.65 
  -2  11   4   15.76    1.30 
  -2  11   4   15.01    1.35 
  -1  11   4    8.58    0.94 
  -1  11   4    9.40    1.04 
  -1  11   4   10.65    1.51 
  -1  11   4    9.61    1.23 
  -1  11   4    9.67    1.31 
   0 -11  -4    0.19    0.62 
   0 -11  -4    0.02    0.66 
   0  11   4    0.78    0.77 
   0  11   4    0.42    0.75 
   0  11   4    0.34    0.74 
   0  11   4    0.09    0.58 
   0  11   4    0.35    0.75 
  -1 -11  -4   22.65    1.32 
  -1 -11  -4   24.59    1.55 
   1  11   4   24.20    1.61 
   1  11   4   22.87    1.77 
   1  11   4   23.04    1.71 
   1  11   4   25.73    1.63 
   1  11   4   24.51    1.40 
  -2 -11  -4   23.55    1.56 
  -2 -11  -4   24.08    2.07 
   2  11   4   25.72    1.57 
   2  11   4   27.05    1.65 
   2  11   4   25.85    1.30 
   2  11   4   25.40    1.83 
   2  11   4   23.53    1.90 
  -3 -11  -4   27.98    1.67 
  -3 -11  -4   30.25    1.36 
   3  11   4   26.55    1.22 
   3  11   4   28.37    1.64 
   3  11   4   24.38    1.94 
   3  11   4   29.04    1.58 
  -4 -11  -4   82.46    2.94 
   4  11   4   83.58    3.30 
   4  11   4   84.92    3.45 
   4  11   4   84.04    2.66 
  -5 -11  -4   75.87    3.45 
   5  11   4   81.88    2.36 
   5  11   4   79.97    3.52 
   5  11   4   82.52    3.34 
  -6 -11  -4   45.54    2.34 
   6  11   4   49.46    1.68 
   6  11   4   49.09    3.09 
  -7 -11  -4   68.71    2.86 
   7  11   4   72.87    3.73 
  -8 -11  -4   45.02    2.48 
   8  11   4   44.75    3.45 
  -9 -11  -4   18.35    2.02 
   9  11   4   18.39    2.16 
   9 -12  -4   48.78    3.02 
  -9  12   4   57.74    4.88 
   8 -12  -4   19.10    2.11 
  -8  12   4   15.60    2.04 
   7 -12  -4    9.61    1.35 
  -7  12   4   10.41    1.76 
   6 -12  -4    0.07    0.87 
  -6  12   4   -0.11    1.30 
   5 -12  -4    0.54    0.84 
  -5  12   4   -0.36    1.16 
  -5  12   4    1.00    1.74 
   4 -12  -4   44.11    2.10 
  -4  12   4   48.50    2.71 
  -4  12   4   44.72    2.05 
  -4  12   4   42.79    1.67 
  -4  12   4   45.80    2.63 
   3 -12  -4   37.59    1.88 
  -3  12   4   40.58    2.37 
  -3  12   4   41.27    2.50 
  -3  12   4   36.79    1.75 
  -3  12   4   40.02    2.07 
  -3  12   4   40.45    1.92 
   2 -12  -4   10.45    1.27 
  -2  12   4   10.65    1.37 
  -2  12   4    9.04    1.02 
  -2  12   4    9.98    1.37 
  -2  12   4   12.64    1.43 
   1 -12  -4    0.88    0.68 
  -1  12   4    2.16    0.88 
  -1  12   4    1.05    0.89 
  -1  12   4   -0.07    0.90 
  -1  12   4    0.17    0.69 
  -1  12   4    0.62    0.74 
   0 -12  -4    7.45    1.04 
   0  12   4    8.10    1.10 
   0  12   4    7.88    1.08 
   0  12   4    9.55    1.21 
   0  12   4    8.18    0.89 
   0  12   4    8.20    1.13 
  -1 -12  -4   10.48    1.20 
  -1 -12  -4   12.97    1.44 
   1  12   4   10.50    1.51 
   1  12   4   13.74    1.75 
   1  12   4   14.03    1.59 
   1  12   4   13.59    1.67 
   1  12   4   15.71    1.30 
  -2 -12  -4   97.81    2.85 
   2  12   4   95.67    3.50 
   2  12   4   97.68    3.26 
   2  12   4   96.77    2.82 
   2  12   4   94.32    3.23 
   2  12   4   94.93    3.59 
  -3 -12  -4  118.96    3.59 
  -3 -12  -4  120.59    3.93 
   3  12   4  129.41    4.38 
   3  12   4  123.38    3.78 
   3  12   4  130.08    4.30 
   3  12   4  127.65    3.82 
  -4 -12  -4  139.24    4.39 
   4  12   4  144.90    4.89 
   4  12   4  145.81    4.11 
   4  12   4  137.55    4.44 
   4  12   4  142.04    3.84 
   4  12   4  139.79    4.77 
  -5 -12  -4   46.61    2.28 
   5  12   4   46.53    1.73 
   5  12   4   45.69    3.03 
  -6 -12  -4   33.47    2.23 
   6  12   4   37.61    3.03 
  -7 -12  -4   14.08    1.49 
   7  12   4   11.77    1.85 
  -8 -12  -4   -0.84    1.06 
   8  12   4   -1.28    1.53 
   8 -13  -4   -1.80    1.08 
  -8  13   4    0.94    1.92 
   7 -13  -4    3.80    1.16 
  -7  13   4    2.07    1.67 
   6 -13  -4    6.73    1.17 
  -6  13   4    6.46    1.66 
   5 -13  -4   10.53    1.22 
  -5  13   4   10.83    1.71 
  -5  13   4   11.29    1.50 
   4 -13  -4   10.47    1.14 
  -4  13   4    7.81    0.85 
  -4  13   4    8.63    1.44 
  -4  13   4   11.34    1.49 
  -4  13   4    7.66    1.18 
   3 -13  -4    2.07    0.84 
  -3  13   4    2.32    1.10 
  -3  13   4    1.68    0.81 
  -3  13   4    3.30    1.17 
  -3  13   4    2.85    0.98 
  -3  13   4    2.52    0.91 
   2 -13  -4   18.64    1.50 
  -2  13   4   19.41    1.68 
  -2  13   4   22.39    2.03 
  -2  13   4   18.48    1.74 
  -2  13   4   18.42    2.09 
  -2  13   4   17.04    1.66 
   1 -13  -4   55.84    2.17 
  -1  13   4   53.70    2.49 
  -1  13   4   55.65    2.52 
  -1  13   4   55.51    2.62 
  -1  13   4   52.42    2.71 
  -1  13   4   58.70    2.30 
   0 -13  -4   60.82    2.62 
   0 -13  -4   61.57    2.25 
   0  13   4   64.77    2.84 
   0  13   4   64.14    2.75 
   0  13   4   61.67    2.37 
   0  13   4   62.90    2.75 
   0  13   4   59.93    2.72 
  -1 -13  -4  101.49    3.51 
  -1 -13  -4  105.43    3.08 
   1  13   4  103.32    3.49 
   1  13   4  103.02    3.12 
   1  13   4   97.57    3.52 
   1  13   4   90.22    3.58 
   1  13   4  103.75    3.76 
  -2 -13  -4  122.62    3.96 
  -2 -13  -4  121.75    3.46 
   2  13   4  117.77    4.24 
   2  13   4  121.03    3.93 
   2  13   4  126.15    4.36 
   2  13   4  119.89    3.90 
  -3 -13  -4   78.22    3.02 
   3  13   4   82.60    3.53 
   3  13   4   74.80    2.84 
   3  13   4   79.09    2.97 
   3  13   4   78.89    3.56 
  -4 -13  -4   26.13    1.95 
   4  13   4   28.73    2.73 
   4  13   4   28.47    1.96 
   4  13   4   24.69    2.12 
  -5 -13  -4    2.95    1.10 
   5  13   4    4.38    1.48 
   5  13   4    3.59    1.00 
   5  13   4    3.33    0.72 
  -6 -13  -4    1.86    1.09 
   6  13   4    2.16    0.91 
   6  13   4   -1.63    1.46 
  -7 -13  -4    2.99    1.25 
   7  13   4    3.81    1.69 
   6 -14  -4    0.04    0.97 
  -6  14   4   -0.51    1.60 
   5 -14  -4    0.44    0.93 
  -5  14   4    1.82    1.50 
  -5  14   4    2.56    1.20 
   4 -14  -4   40.39    2.12 
  -4  14   4   33.13    2.89 
  -4  14   4   38.44    2.39 
  -4  14   4   37.36    2.07 
  -4  14   4   36.33    1.85 
   3 -14  -4   72.11    2.80 
  -3  14   4   79.79    3.47 
  -3  14   4   77.48    2.86 
  -3  14   4   75.09    3.03 
  -3  14   4   75.62    2.97 
   2 -14  -4  123.08    3.74 
  -2  14   4  121.11    3.96 
  -2  14   4  122.18    4.03 
  -2  14   4  121.83    4.29 
  -2  14   4  115.48    3.92 
   1 -14  -4  106.67    3.41 
  -1  14   4  110.17    3.50 
  -1  14   4  109.90    4.03 
  -1  14   4  108.12    3.83 
  -1  14   4  107.50    3.91 
   0 -14  -4   60.69    2.32 
   0  14   4   59.13    2.92 
   0  14   4   58.88    2.90 
   0  14   4   58.69    2.84 
   0  14   4   63.15    2.47 
   0  14   4   59.72    2.82 
  -1 -14  -4   90.51    3.38 
  -1 -14  -4   88.55    3.34 
   1  14   4   85.55    3.40 
   1  14   4   89.15    2.85 
   1  14   4   86.72    3.53 
   1  14   4   92.02    3.70 
   1  14   4   89.61    3.41 
  -2 -14  -4   31.86    2.18 
  -2 -14  -4   33.72    1.62 
   2  14   4   25.79    2.14 
   2  14   4   32.34    2.32 
   2  14   4   31.77    2.68 
  -3 -14  -4   -0.90    0.95 
   3  14   4    1.65    1.11 
   3  14   4    0.07    1.41 
  -4 -14  -4   -0.44    0.99 
   4  14   4    1.39    1.11 
   4  14   4    2.23    1.53 
  -5 -14  -4    3.08    1.11 
   5  14   4    2.59    1.66 
   4 -15  -4   92.58    3.35 
  -4  15   4   92.76    3.66 
  -4  15   4   94.35    4.25 
   3 -15  -4   86.03    3.10 
  -3  15   4   87.05    3.17 
  -3  15   4   82.56    3.84 
  -3  15   4   89.39    3.32 
  -3  15   4   82.02    3.36 
   2 -15  -4  106.26    3.49 
  -2  15   4  105.11    3.83 
  -2  15   4  109.72    3.73 
  -2  15   4  108.67    4.24 
  -2  15   4  106.57    4.26 
   1 -15  -4   35.04    1.87 
  -1  15   4   31.00    2.11 
  -1  15   4   30.29    2.41 
  -1  15   4   29.64    2.63 
  -1  15   4   34.25    2.57 
   0 -15  -4    7.33    1.08 
   0  15   4   12.12    1.22 
   0  15   4    7.63    1.47 
   0  15   4    9.57    1.52 
  -1 -15  -4    0.35    0.84 
  -1 -15  -4    0.69    1.07 
   1  15   4   -0.67    1.23 
   1  15   4   -0.73    1.36 
   1  15   4    0.51    1.28 
  -2 -15  -4    2.55    1.19 
   2  15   4    3.11    1.36 
   2  15   4    4.95    1.62 
  -3 -15  -4    2.84    1.23 
   3  15   4    4.27    1.64 
   3  15   4    2.18    1.26 
   1  11  -5   67.03    4.17 
  -1 -11   5   69.52    2.97 
  -1 -11   5   70.60    3.51 
   0  11  -5   83.33    4.16 
   0 -11   5   76.77    3.78 
  -1  11  -5   53.98    3.61 
   1 -11   5   55.05    3.34 
  -2  11  -5   57.14    3.62 
   2 -11   5   58.04    3.45 
  -3  11  -5   15.28    1.85 
   3 -11   5   17.69    2.08 
  -4  11  -5    2.74    1.57 
  -4  11  -5    4.94    1.54 
   4 -11   5    7.47    1.70 
   4 -11   5    4.66    0.81 
  -5  11  -5    1.28    1.41 
  -5  11  -5   -1.19    0.99 
   5 -11   5   -1.39    1.74 
   5 -11   5    0.73    1.53 
   5 -11   5    1.31    0.83 
  -6  11  -5   10.32    1.33 
  -6  11  -5   11.34    1.63 
   6 -11   5   11.71    1.94 
   6 -11   5   17.34    1.67 
   6 -11   5   10.08    1.82 
  -7  11  -5    6.86    1.38 
  -7  11  -5    7.13    1.51 
   7 -11   5    6.96    1.77 
   7 -11   5    8.10    1.20 
   7 -11   5    8.68    1.82 
  -8  11  -5    1.45    1.36 
   3  10  -5   60.38    4.31 
  -3 -10   5   64.55    2.95 
  -3 -10   5   55.38    2.70 
   2  10  -5   89.34    4.33 
  -2 -10   5   85.66    3.56 
  -2 -10   5   84.42    3.21 
   1  10  -5   63.02    3.78 
  -1 -10   5   66.59    3.24 
  -1 -10   5   66.27    2.76 
   0  10  -5   26.90    2.91 
   0 -10   5   22.34    2.49 
  -1  10  -5    9.72    1.57 
   1 -10   5    8.90    1.58 
  -2  10  -5   -0.22    1.30 
   2 -10   5    1.64    1.28 
   2 -10   5   -0.08    1.42 
  -3  10  -5    2.08    0.80 
  -3  10  -5    2.50    1.30 
   3 -10   5    4.60    1.42 
   3 -10   5    3.78    0.65 
   3 -10   5    3.45    1.42 
  -4  10  -5   11.88    1.56 
  -4  10  -5   13.21    1.61 
   4 -10   5   12.55    1.76 
   4 -10   5   14.84    1.73 
   4 -10   5   17.72    1.32 
  -5  10  -5   13.31    1.57 
  -5  10  -5   12.73    1.72 
   5 -10   5   14.09    1.86 
   5 -10   5   16.88    1.41 
  -6  10  -5    6.88    1.32 
  -6  10  -5    4.40    1.15 
   6 -10   5    0.89    1.68 
   6 -10   5    6.07    1.56 
   6 -10   5    6.27    1.00 
  -7  10  -5    1.53    1.17 
  -7  10  -5   -1.13    1.15 
   7 -10   5    1.46    1.45 
   7 -10   5   -1.15    0.86 
  -8  10  -5    2.12    1.31 
   8 -10   5    3.59    1.54 
   8 -10   5    2.01    1.05 
  -9  10  -5   23.02    2.33 
   9 -10   5   20.11    2.12 
   9 -10   5   20.33    2.19 
   9 -10   5   20.89    2.42 
  -5  -9   5   41.92    2.45 
   4   9  -5   50.23    3.92 
  -4  -9   5   56.95    2.62 
  -4  -9   5   55.32    2.52 
   3   9  -5   53.10    3.69 
  -3  -9   5   51.59    2.84 
  -3  -9   5   55.74    2.65 
   2   9  -5   38.85    2.31 
   2   9  -5   38.12    3.11 
  -2  -9   5   37.46    2.46 
  -2  -9   5   35.46    1.97 
   1   9  -5   21.38    2.69 
   1   9  -5   16.68    1.94 
  -1  -9   5   15.23    1.53 
  -1  -9   5   15.69    1.93 
   0   9  -5    2.13    0.99 
   0   9  -5   -0.29    1.23 
   0  -9   5    1.40    0.83 
   0  -9   5    0.54    1.21 
   0  -9   5    0.31    1.09 
  -1   9  -5    9.76    1.46 
   1  -9   5   11.28    1.46 
   1  -9   5   11.12    1.48 
  -2   9  -5   11.07    1.20 
  -2   9  -5    9.13    1.40 
   2  -9   5    9.62    1.00 
   2  -9   5   12.06    1.52 
  -3   9  -5    8.60    1.35 
  -3   9  -5    9.05    0.96 
   3  -9   5    8.64    1.05 
   3  -9   5    8.18    1.39 
  -4   9  -5    8.56    1.31 
  -4   9  -5    8.56    1.18 
   4  -9   5   10.26    1.55 
   4  -9   5    9.51    1.16 
  -5   9  -5    3.11    1.10 
  -5   9  -5    0.74    0.82 
   5  -9   5    3.06    1.17 
   5  -9   5    2.33    0.76 
   5  -9   5    0.49    1.15 
  -6   9  -5   15.46    1.76 
  -6   9  -5   19.36    2.08 
   6  -9   5   16.13    2.24 
   6  -9   5   19.59    2.31 
   6  -9   5   18.54    1.55 
  -7   9  -5   46.99    2.50 
  -7   9  -5   45.67    1.69 
  -7   9  -5   48.20    2.51 
   7  -9   5   53.47    3.00 
   7  -9   5   45.39    2.85 
   7  -9   5   44.34    2.23 
  -8   9  -5   54.37    2.90 
   8  -9   5   49.54    2.53 
   8  -9   5   62.42    3.06 
   8  -9   5   64.28    3.25 
  -9   9  -5  124.05    4.92 
  -9   9  -5  133.32    4.83 
   9  -9   5  122.83    4.69 
   9  -9   5  117.45    4.35 
   9  -9   5  103.56    3.99 
 -10   9  -5   97.92    4.49 
  10  -9   5   87.13    3.53 
  10  -9   5   91.84    4.12 
  10  -9   5   79.35    3.62 
 -11   9  -5   69.54    4.49 
  11  -9   5   75.19    3.36 
  11  -9   5   71.91    3.82 
   6   8  -5   80.46    4.61 
  -6  -8   5   82.16    3.21 
   5   8  -5   27.45    3.50 
  -5  -8   5   33.52    1.86 
  -5  -8   5   32.60    2.10 
   4   8  -5   10.33    1.37 
   4   8  -5   11.02    1.86 
  -4  -8   5   12.72    1.26 
  -4  -8   5   14.08    1.67 
   3   8  -5    6.26    1.58 
   3   8  -5    8.14    1.19 
  -3  -8   5    6.38    1.01 
  -3  -8   5    7.63    1.18 
   2   8  -5    0.04    0.92 
   2   8  -5   -0.05    1.21 
  -2  -8   5    0.64    1.00 
  -2  -8   5    0.19    0.73 
  -2  -8   5   -0.21    1.10 
   1   8  -5    2.65    1.19 
   1   8  -5    4.94    0.99 
  -1  -8   5    1.71    1.18 
  -1  -8   5    3.31    0.83 
  -1  -8   5    2.38    1.03 
   0   8  -5    5.36    0.98 
   0   8  -5    6.06    1.28 
   0  -8   5    6.72    0.93 
   0  -8   5    6.70    1.16 
  -1   8  -5    0.61    1.04 
   1  -8   5   -0.37    1.10 
  -2   8  -5    2.16    1.02 
  -2   8  -5    2.33    0.65 
   2  -8   5    2.29    1.04 
   2  -8   5    2.56    1.20 
   2  -8   5    2.90    0.53 
  -3   8  -5    4.36    1.11 
  -3   8  -5    4.19    0.74 
   3  -8   5    5.33    0.67 
   3  -8   5    5.44    1.16 
   3  -8   5    5.65    1.10 
  -4   8  -5   39.41    2.02 
   4  -8   5   46.73    2.47 
   4  -8   5   38.04    2.42 
   4  -8   5   43.83    1.73 
  -5   8  -5   79.99    2.82 
  -5   8  -5   83.75    3.20 
   5  -8   5   86.42    3.02 
   5  -8   5   81.67    3.35 
   5  -8   5   85.45    3.31 
  -6   8  -5   86.09    3.03 
  -6   8  -5   91.46    3.23 
   6  -8   5   80.18    2.92 
   6  -8   5   90.81    3.38 
   6  -8   5   86.45    3.52 
  -7   8  -5  141.02    4.44 
  -7   8  -5  146.25    4.41 
   7  -8   5  152.00    4.85 
   7  -8   5  147.14    4.61 
   7  -8   5  128.80    4.27 
  -8   8  -5   60.40    2.79 
   8  -8   5   65.89    3.12 
   8  -8   5   57.71    2.62 
   8  -8   5   61.20    2.82 
  -9   8  -5   69.28    3.26 
  -9   8  -5   73.55    3.64 
   9  -8   5   70.40    3.38 
   9  -8   5   71.05    2.97 
   9  -8   5   76.86    3.15 
 -10   8  -5   11.11    1.85 
  10  -8   5    7.41    1.50 
  10  -8   5    6.20    1.30 
  10  -8   5    6.02    1.27 
 -11   8  -5   -2.01    1.68 
  11  -8   5   -2.02    1.23 
  11  -8   5    0.50    1.10 
  11  -8   5    2.26    1.40 
 -12   8  -5    1.85    1.78 
  12  -8   5   -0.99    1.44 
  12  -8   5   -1.58    1.08 
   7   7  -5   16.61    2.22 
  -7  -7   5   25.44    2.17 
   6   7  -5    1.99    1.28 
   6   7  -5    1.19    1.70 
  -6  -7   5    2.90    0.76 
  -6  -7   5    5.17    1.99 
   5   7  -5   -0.27    1.40 
   5   7  -5   -0.34    1.04 
  -5  -7   5    0.98    0.82 
  -5  -7   5    0.62    0.88 
   4   7  -5    8.40    1.64 
   4   7  -5    5.57    1.17 
  -4  -7   5    9.74    1.08 
  -4  -7   5    5.21    2.25 
  -4  -7   5    9.61    1.10 
   3   7  -5   13.34    1.66 
   3   7  -5   17.64    1.78 
  -3  -7   5   17.96    1.40 
  -3  -7   5   16.61    1.63 
   2   7  -5    2.83    1.20 
   2   7  -5    1.48    0.84 
  -2  -7   5    2.05    0.77 
  -2  -7   5    2.81    0.94 
   1   7  -5   11.80    1.46 
   1   7  -5   13.22    1.55 
  -1  -7   5   13.37    1.23 
  -1  -7   5    9.69    1.23 
   0   7  -5   -0.59    0.67 
   0   7  -5   -1.93    0.90 
   0  -7   5    1.43    0.99 
   0  -7   5    0.12    0.88 
   0  -7   5   -0.31    0.63 
  -1   7  -5    9.76    1.45 
  -1   7  -5   12.46    0.98 
   1  -7   5   10.55    1.28 
   1  -7   5   11.85    1.63 
  -2   7  -5   78.40    3.07 
  -2   7  -5   76.64    2.44 
   2  -7   5   81.33    2.24 
   2  -7   5   73.86    3.02 
   2  -7   5   75.35    2.97 
  -3   7  -5  114.31    3.33 
  -3   7  -5  116.66    3.87 
   3  -7   5  121.60    3.26 
   3  -7   5  113.98    3.88 
   3  -7   5  116.20    3.85 
  -4   7  -5  259.56    6.84 
  -4   7  -5  271.96    7.26 
   4  -7   5  267.25    6.82 
   4  -7   5  269.93    7.29 
  -5   7  -5   94.05    3.04 
  -5   7  -5   97.87    3.32 
   5  -7   5   97.48    3.47 
   5  -7   5   96.97    3.36 
   5  -7   5   90.60    2.99 
  -6   7  -5   52.96    2.23 
  -6   7  -5   51.88    2.35 
   6  -7   5   52.25    2.54 
   6  -7   5   51.06    2.42 
   6  -7   5   46.98    2.12 
  -7   7  -5   92.41    3.20 
  -7   7  -5   89.62    3.13 
   7  -7   5   93.67    3.28 
   7  -7   5   92.17    3.48 
   7  -7   5   81.82    3.06 
  -8   7  -5   -0.19    1.01 
   8  -7   5    2.48    0.93 
   8  -7   5   -0.04    0.99 
   8  -7   5    2.10    0.98 
  -9   7  -5    1.52    1.27 
  -9   7  -5    2.83    1.14 
   9  -7   5    0.80    0.93 
   9  -7   5    1.68    1.01 
   9  -7   5    1.29    1.06 
 -10   7  -5   17.52    2.26 
 -10   7  -5   22.19    2.74 
  10  -7   5   17.32    2.22 
  10  -7   5   17.27    1.84 
  10  -7   5   18.43    2.06 
 -11   7  -5   31.21    3.13 
  11  -7   5   31.41    2.68 
  11  -7   5   32.10    2.23 
  11  -7   5   27.13    2.44 
 -12   7  -5   11.02    1.95 
  12  -7   5   14.08    1.53 
  12  -7   5   13.80    1.90 
  12  -7   5    7.98    1.48 
 -13   7  -5    3.11    1.81 
  13  -7   5    7.96    1.81 
   8   6  -5    2.47    1.80 
  -8  -6   5    6.83    1.31 
   7   6  -5    3.14    1.73 
   7   6  -5    1.29    1.35 
   6   6  -5    0.91    1.41 
   6   6  -5    2.12    1.17 
  -6  -6   5    0.89    0.87 
  -6  -6   5    3.09    0.78 
   5   6  -5    2.92    1.37 
   5   6  -5    2.48    1.06 
  -5  -6   5    4.44    0.89 
  -5  -6   5    3.05    1.37 
  -5  -6   5    4.23    0.85 
   4   6  -5    5.12    1.40 
   4   6  -5    6.11    1.12 
  -4  -6   5    7.93    0.96 
  -4  -6   5    6.28    0.94 
  -4  -6   5    9.21    1.42 
   3   6  -5    0.56    0.77 
   3   6  -5    0.64    1.10 
  -3  -6   5   -0.87    0.66 
  -3  -6   5    0.74    0.73 
   2   6  -5   11.25    1.34 
   2   6  -5   12.18    1.47 
  -2  -6   5    9.76    1.07 
  -2  -6   5   13.83    1.16 
   1   6  -5   29.84    1.75 
   1   6  -5   26.59    3.14 
  -1  -6   5   30.73    1.75 
  -1  -6   5   32.90    1.49 
   0   6  -5  140.81    4.44 
   0   6  -5  137.51    4.02 
   0  -6   5  139.23    4.16 
   0  -6   5  138.78    3.82 
   0  -6   5  136.45    4.38 
  -1   6  -5  178.27    5.29 
  -1   6  -5  175.59    4.67 
   1  -6   5  177.62    5.27 
   1  -6   5  183.53    4.49 
   1  -6   5  194.05    5.24 
  -2   6  -5  302.88    8.08 
  -2   6  -5  295.90    7.60 
   2  -6   5  300.76    8.07 
   2  -6   5  313.23    8.09 
   2  -6   5  310.96    7.46 
  -3   6  -5  157.94    4.62 
  -3   6  -5  155.10    4.44 
   3  -6   5  153.64    4.60 
   3  -6   5  156.93    4.65 
   3  -6   5  151.36    4.10 
  -4   6  -5  118.84    3.37 
  -4   6  -5  121.39    3.70 
   4  -6   5   96.37    4.02 
   4  -6   5  119.12    3.76 
   4  -6   5  120.89    3.71 
  -5   6  -5  110.70    4.47 
  -5   6  -5  135.31    3.95 
   5  -6   5  130.74    3.95 
   5  -6   5  134.43    4.05 
   5  -6   5  124.19    3.68 
  -6   6  -5   66.87    2.53 
  -6   6  -5   64.30    2.43 
   6  -6   5   67.39    2.59 
   6  -6   5   56.99    3.01 
  -7   6  -5   -0.21    0.78 
   7  -6   5    0.40    0.82 
   7  -6   5   -0.33    0.76 
   7  -6   5    0.33    0.74 
  -8   6  -5    5.44    1.01 
   8  -6   5    4.03    0.94 
   8  -6   5    6.93    0.99 
   8  -6   5    5.12    1.10 
  -9   6  -5    7.92    1.24 
  -9   6  -5    7.37    1.34 
   9  -6   5    8.57    1.14 
   9  -6   5    8.25    1.29 
   9  -6   5    7.67    1.07 
 -10   6  -5    3.85    1.45 
 -10   6  -5    6.55    1.34 
  10  -6   5    4.13    1.21 
  10  -6   5    6.26    1.07 
  10  -6   5    4.26    1.06 
 -11   6  -5    0.69    1.36 
  11  -6   5    0.72    1.01 
  11  -6   5   -0.05    0.92 
  11  -6   5   -0.67    1.12 
 -12   6  -5    3.02    1.69 
  12  -6   5    2.35    1.12 
  12  -6   5    2.87    1.17 
  12  -6   5    3.22    1.37 
 -13   6  -5   16.03    2.08 
  13  -6   5   20.53    2.75 
  13  -6   5   14.68    1.65 
   9   5  -5    1.35    1.81 
   8   5  -5    0.70    1.64 
  -8  -5   5    0.78    1.10 
   7   5  -5   -0.63    1.39 
   7   5  -5   -1.19    1.19 
  -7  -5   5    0.97    0.84 
  -7  -5   5   -0.01    0.61 
   6   5  -5    0.97    1.31 
   6   5  -5    1.59    1.07 
  -6  -5   5    3.66    1.37 
  -6  -5   5    2.24    0.85 
   5   5  -5    4.89    1.04 
   5   5  -5    2.23    1.23 
  -5  -5   5    2.92    0.82 
  -5  -5   5   -0.16    1.20 
   4   5  -5   27.18    1.85 
   4   5  -5   27.19    2.40 
  -4  -5   5   26.54    1.54 
  -4  -5   5   27.88    2.28 
   3   5  -5   99.30    3.68 
   3   5  -5   96.66    3.18 
  -3  -5   5   89.55    3.48 
  -3  -5   5   90.98    2.85 
   2   5  -5  141.14    4.14 
   2   5  -5  146.30    4.58 
  -2  -5   5  143.02    3.90 
  -2  -5   5  142.80    4.49 
   1   5  -5  157.57    4.40 
   1   5  -5  159.72    4.77 
  -1  -5   5  155.24    4.15 
  -1  -5   5  152.82    4.69 
   0   5  -5  240.76    6.10 
   0   5  -5  246.72    6.46 
   0   5  -5  251.14    6.79 
   0  -5   5  248.74    6.25 
   0  -5   5  244.61    6.74 
   0  -5   5  255.67    6.11 
  -1   5  -5  259.40    6.67 
  -1   5  -5  264.84    7.16 
   1  -5   5  271.61    6.71 
   1  -5   5  262.32    7.15 
   1  -5   5  284.23    7.09 
  -2   5  -5  105.00    3.02 
  -2   5  -5  109.78    3.44 
   2  -5   5  109.41    3.35 
   2  -5   5  101.35    3.36 
  -3   5  -5   18.87    1.50 
  -3   5  -5   16.81    1.09 
   3  -5   5   16.03    1.65 
   3  -5   5   17.24    1.40 
  -4   5  -5    8.09    0.98 
  -4   5  -5    7.72    0.94 
   4  -5   5    8.46    1.02 
  -5   5  -5   11.25    1.32 
  -5   5  -5   11.67    1.17 
   5  -5   5   10.43    1.29 
   5  -5   5    9.62    1.33 
  -6   5  -5   21.88    1.54 
  -6   5  -5   20.94    1.48 
   6  -5   5   22.23    1.58 
   6  -5   5   22.08    1.56 
  -7   5  -5    4.52    0.91 
   7  -5   5    5.78    0.89 
   7  -5   5    5.81    1.00 
  -8   5  -5    3.67    0.96 
   8  -5   5    3.04    1.59 
   8  -5   5    2.72    0.77 
  -9   5  -5    0.33    0.92 
  -9   5  -5   -0.34    1.07 
   9  -5   5    1.82    0.83 
   9  -5   5    0.20    0.86 
   9  -5   5    0.23    0.89 
 -10   5  -5   16.26    2.06 
 -10   5  -5   14.09    1.59 
  10  -5   5   16.04    1.63 
  10  -5   5   14.73    1.69 
  10  -5   5   16.68    1.91 
 -11   5  -5   33.02    2.59 
 -11   5  -5   29.32    2.44 
  11  -5   5   28.33    2.02 
  11  -5   5   32.37    2.07 
  11  -5   5   31.63    2.33 
 -12   5  -5   51.07    3.23 
  12  -5   5   49.56    2.56 
  12  -5   5   53.31    2.87 
  12  -5   5   50.31    2.63 
 -13   5  -5   89.36    4.08 
  13  -5   5   76.24    3.30 
  13  -5   5   84.13    3.43 
  13  -5   5   87.55    3.80 
 -14   5  -5   65.61    4.20 
  14  -5   5   72.50    3.75 
   9   4  -5    3.36    1.75 
  -9  -4   5    3.76    1.34 
  -9  -4   5    5.12    1.28 
   8   4  -5    1.42    1.49 
   8   4  -5   -2.05    1.22 
  -8  -4   5   -1.19    0.93 
  -8  -4   5   -0.48    0.92 
   7   4  -5    3.47    1.41 
   7   4  -5    4.38    1.23 
  -7  -4   5    5.88    0.90 
  -7  -4   5    4.01    0.89 
   6   4  -5   29.21    2.53 
   6   4  -5   30.55    2.12 
  -6  -4   5   25.03    2.39 
  -6  -4   5   26.70    1.59 
   5   4  -5  121.87    4.21 
   5   4  -5  114.18    3.73 
  -5  -4   5  110.73    3.36 
  -5  -4   5  111.12    3.16 
  -5  -4   5  112.33    4.09 
   4   4  -5  133.23    5.14 
   4   4  -5  147.31    4.31 
  -4  -4   5  149.22    4.65 
  -4  -4   5  146.60    4.00 
   3   4  -5  137.57    4.41 
   3   4  -5  138.61    4.05 
  -3  -4   5  138.99    3.57 
  -3  -4   5  135.44    3.76 
  -3  -4   5  138.30    4.36 
   2   4  -5  252.97    6.49 
   2   4  -5  248.21    6.80 
  -2  -4   5  242.59    6.74 
  -2  -4   5  245.18    6.23 
  -2  -4   5  247.24    6.03 
   1   4  -5  278.31    7.01 
   1   4  -5  283.02    7.34 
   1   4  -5  289.56    7.64 
  -1  -4   5  291.09    7.61 
  -1  -4   5  296.49    7.00 
  -1  -4   5  288.90    7.11 
   0   4  -5   92.58    3.18 
   0   4  -5  105.27    3.33 
   0   4  -5   98.43    2.75 
   0  -4   5  108.61    2.73 
   0  -4   5  101.32    3.26 
   0  -4   5  102.98    2.79 
  -1   4  -5   17.52    1.00 
  -1   4  -5   18.31    1.41 
   1  -4   5   17.74    0.93 
   1  -4   5   18.57    0.94 
   1  -4   5   16.31    1.60 
  -2   4  -5    0.70    0.46 
  -2   4  -5   -0.69    0.57 
   2  -4   5    0.02    0.41 
   2  -4   5    0.74    0.58 
  -3   4  -5    4.24    0.57 
  -3   4  -5    3.14    0.71 
   3  -4   5    5.02    0.75 
   3  -4   5    3.57    0.69 
  -4   4  -5   12.53    1.22 
  -4   4  -5   12.79    1.01 
   4  -4   5   12.51    1.19 
   4  -4   5   12.78    1.18 
  -5   4  -5   51.19    2.01 
  -5   4  -5   51.91    1.92 
   5  -4   5   51.36    2.07 
   5  -4   5   50.99    1.98 
  -6   4  -5   11.81    1.48 
  -6   4  -5   15.07    0.83 
   6  -4   5   14.73    1.34 
   6  -4   5   14.68    1.26 
  -7   4  -5    2.13    0.75 
   7  -4   5    2.30    0.80 
   7  -4   5    3.13    0.71 
  -8   4  -5   22.80    1.75 
   8  -4   5   21.47    1.52 
   8  -4   5   21.55    1.63 
  -9   4  -5   80.02    3.22 
  -9   4  -5   83.06    3.11 
   9  -4   5   75.91    3.16 
   9  -4   5   83.06    3.03 
 -10   4  -5  108.24    3.81 
 -10   4  -5   97.30    3.68 
  10  -4   5  108.88    3.49 
  10  -4   5  104.05    3.49 
  10  -4   5  107.46    3.73 
 -11   4  -5  125.85    4.31 
  11  -4   5  115.84    3.92 
  11  -4   5  121.99    3.88 
  11  -4   5  120.41    4.08 
 -12   4  -5   87.40    3.67 
  12  -4   5   88.22    3.28 
  12  -4   5   83.59    3.27 
  12  -4   5   91.02    3.51 
 -13   4  -5   72.79    3.68 
  13  -4   5   64.58    2.97 
  13  -4   5   72.71    3.33 
  13  -4   5   69.51    3.02 
 -14   4  -5   18.97    2.24 
  14  -4   5   18.01    2.09 
  14  -4   5   21.93    2.67 
  10   3  -5    2.93    1.78 
 -10  -3   5    5.29    1.51 
 -10  -3   5    3.56    1.31 
   9   3  -5    2.36    1.55 
   9   3  -5   -1.32    1.24 
   9   3  -5   -2.95    1.72 
  -9  -3   5    0.13    1.26 
  -9  -3   5    2.41    1.16 
   8   3  -5   31.62    1.52 
   8   3  -5   28.00    2.77 
   8   3  -5   28.09    2.45 
  -8  -3   5   31.49    2.28 
  -8  -3   5   33.41    2.08 
  -8  -3   5   29.31    1.53 
   7   3  -5   51.26    2.99 
   7   3  -5   51.49    2.64 
   7   3  -5   50.32    1.80 
  -7  -3   5   53.20    2.20 
  -7  -3   5   51.92    2.48 
   6   3  -5  116.61    3.83 
   6   3  -5  114.20    4.12 
   6   3  -5  114.42    3.10 
  -6  -3   5  113.85    4.06 
  -6  -3   5  112.37    3.40 
  -6  -3   5  117.19    3.40 
  -6  -3   5  114.47    3.77 
   5   3  -5  139.75    3.64 
   5   3  -5  146.28    4.32 
   5   3  -5  142.95    4.64 
  -5  -3   5  143.51    3.97 
  -5  -3   5  142.18    3.95 
  -5  -3   5  141.44    4.22 
  -5  -3   5  147.20    4.60 
   4   3  -5  107.32    3.38 
   4   3  -5  109.78    3.73 
  -4  -3   5  108.70    3.66 
  -4  -3   5  107.22    3.07 
  -4  -3   5  106.72    3.06 
   3   3  -5   99.09    3.39 
   3   3  -5   97.28    3.07 
  -3  -3   5   97.80    2.76 
  -3  -3   5  100.95    2.81 
  -3  -3   5  100.49    3.32 
   2   3  -5   37.34    1.90 
   2   3  -5   42.23    2.04 
  -2  -3   5   40.75    1.43 
  -2  -3   5   42.96    1.98 
  -2  -3   5   40.76    1.42 
   1   3  -5    0.16    0.48 
   1   3  -5    0.08    0.59 
   1   3  -5   -0.09    0.34 
  -1  -3   5    0.75    0.36 
  -1  -3   5   -0.04    0.57 
  -1  -3   5    0.39    0.40 
   0   3  -5    4.10    0.58 
   0   3  -5    2.96    0.69 
   0   3  -5    3.93    0.49 
   0  -3   5    4.07    0.45 
   0  -3   5    3.41    0.66 
   0  -3   5    4.47    0.49 
  -1   3  -5   82.80    2.74 
  -1   3  -5   83.75    2.43 
   1  -3   5   87.37    2.37 
   1  -3   5   86.02    2.74 
  -2   3  -5   26.94    1.22 
  -2   3  -5   29.33    1.51 
   2  -3   5   27.27    1.14 
   2  -3   5   26.55    1.41 
  -3   3  -5   21.15    1.09 
  -3   3  -5   21.92    1.32 
   3  -3   5   21.52    1.30 
   3  -3   5   21.32    1.09 
  -4   3  -5   24.50    1.37 
   4  -3   5   27.76    1.40 
   4  -3   5   26.69    1.24 
  -5   3  -5    1.01    0.52 
  -5   3  -5    0.59    0.52 
   5  -3   5   -0.09    0.52 
   5  -3   5    0.82    0.51 
  -6   3  -5   43.38    1.35 
  -6   3  -5   44.15    1.82 
   6  -3   5   46.00    1.88 
   6  -3   5   41.93    1.75 
  -7   3  -5   98.34    3.10 
   7  -3   5   97.40    2.99 
   7  -3   5   94.91    3.07 
  -8   3  -5  189.71    5.30 
   8  -3   5  188.24    5.12 
   8  -3   5  187.82    5.25 
  -9   3  -5  178.55    5.15 
  -9   3  -5  175.00    5.20 
   9  -3   5  174.30    5.04 
   9  -3   5  174.48    4.89 
 -10   3  -5   86.41    3.25 
  10  -3   5   91.35    3.15 
  10  -3   5   83.67    3.23 
 -11   3  -5   72.32    3.09 
  11  -3   5   70.61    2.72 
  11  -3   5   70.52    3.84 
  11  -3   5   70.78    2.77 
 -12   3  -5   32.01    2.42 
 -12   3  -5   38.60    2.65 
  12  -3   5   35.54    2.15 
  12  -3   5   40.29    2.35 
  12  -3   5   36.24    2.14 
 -13   3  -5    0.76    1.41 
  13  -3   5    2.99    1.20 
  13  -3   5    2.86    1.03 
  13  -3   5    3.39    1.07 
 -14   3  -5   -3.52    1.64 
  14  -3   5    1.83    1.29 
  14  -3   5   -0.16    1.01 
  14  -3   5    0.17    1.10 
  10   2  -5   13.54    1.91 
  10   2  -5   12.44    1.20 
 -10  -2   5   11.71    1.65 
   9   2  -5   38.52    2.95 
   9   2  -5   30.42    2.62 
   9   2  -5   37.19    1.97 
  -9  -2   5   35.01    2.53 
  -9  -2   5   29.86    2.40 
  -9  -2   5   33.80    2.05 
   8   2  -5   52.88    3.03 
   8   2  -5   54.83    2.10 
   8   2  -5   53.05    2.87 
  -8  -2   5   58.64    2.54 
  -8  -2   5   52.39    2.70 
   7   2  -5   95.87    3.54 
   7   2  -5   97.77    2.91 
  -7  -2   5  100.39    3.46 
  -7  -2   5   99.84    3.25 
   6   2  -5   80.84    3.04 
   6   2  -5   79.97    2.42 
   6   2  -5   82.37    3.23 
  -6  -2   5   79.93    2.71 
  -6  -2   5   82.13    3.20 
  -6  -2   5   80.73    2.97 
   5   2  -5   43.01    2.08 
   5   2  -5   44.16    1.52 
   5   2  -5   45.91    2.35 
  -5  -2   5   43.45    1.81 
  -5  -2   5   44.16    2.25 
  -5  -2   5   42.83    2.02 
   4   2  -5   10.36    0.81 
   4   2  -5   13.81    1.60 
   4   2  -5   10.02    1.31 
  -4  -2   5    9.31    1.03 
  -4  -2   5   12.45    1.27 
  -4  -2   5    9.15    1.08 
   3   2  -5    1.50    0.41 
   3   2  -5    1.35    1.02 
   3   2  -5    1.69    0.72 
  -3  -2   5    2.20    0.61 
  -3  -2   5    0.74    0.45 
  -3  -2   5    1.40    0.79 
  -3  -2   5    0.81    0.52 
   2   2  -5   21.01    1.25 
   2   2  -5   20.13    0.85 
   2   2  -5   20.40    1.47 
  -2  -2   5   19.97    1.08 
  -2  -2   5   19.95    1.42 
  -2  -2   5   21.59    0.94 
   1   2  -5  105.57    3.09 
   1   2  -5  105.70    2.91 
   1   2  -5  107.90    3.30 
  -1  -2   5  111.49    2.96 
  -1  -2   5  109.56    3.28 
  -1  -2   5  111.39    2.82 
   0   2  -5   44.59    1.52 
   0   2  -5   45.19    1.65 
   0   2  -5   47.69    1.85 
   0  -2   5   47.53    1.39 
   0  -2   5   46.90    1.52 
   0  -2   5   46.89    1.84 
  -1   2  -5   50.74    1.71 
  -1   2  -5   51.10    1.88 
  -1   2  -5   54.37    1.96 
   1  -2   5   53.92    2.20 
   1  -2   5   51.83    1.63 
  -2   2  -5    2.43    0.60 
  -2   2  -5    2.41    0.50 
   2  -2   5    2.34    0.43 
   2  -2   5    2.69    0.65 
  -3   2  -5    2.78    0.49 
  -3   2  -5    3.35    0.60 
   3  -2   5    3.37    0.59 
   3  -2   5    3.51    0.49 
  -4   2  -5   31.08    1.42 
  -4   2  -5   31.33    1.32 
   4  -2   5   31.30    1.31 
   4  -2   5   30.19    1.49 
  -5   2  -5  157.09    4.19 
  -5   2  -5  153.75    3.93 
   5  -2   5  154.07    4.16 
  -6   2  -5  233.45    5.99 
  -6   2  -5  226.75    5.59 
   6  -2   5  229.21    5.93 
   6  -2   5  225.74    5.96 
  -7   2  -5  158.37    4.52 
   7  -2   5  163.68    4.38 
   7  -2   5  157.01    4.45 
  -8   2  -5  154.87    4.44 
  -8   2  -5  151.54    4.45 
   8  -2   5  152.57    4.35 
   8  -2   5  155.94    4.29 
  -9   2  -5   57.15    2.42 
  -9   2  -5   56.68    2.39 
   9  -2   5   52.97    2.21 
   9  -2   5   56.35    2.18 
 -10   2  -5   29.87    2.01 
  10  -2   5   29.38    1.76 
  10  -2   5   29.38    1.80 
 -11   2  -5    1.51    1.02 
  11  -2   5    2.09    0.89 
  11  -2   5    0.80    0.78 
 -12   2  -5    2.07    1.20 
 -12   2  -5    2.64    1.17 
  12  -2   5    3.65    0.97 
  12  -2   5    3.94    1.01 
  12  -2   5    3.06    0.97 
 -13   2  -5    3.80    1.45 
  13  -2   5    9.02    1.35 
  13  -2   5    5.12    1.12 
  13  -2   5    5.21    1.14 
 -14   2  -5   15.17    1.87 
  14  -2   5   12.70    1.50 
  14  -2   5   15.20    1.63 
  14  -2   5   15.39    2.12 
  11   1  -5   44.50    2.43 
  11   1  -5   42.21    3.62 
 -11  -1   5   48.65    3.36 
 -11  -1   5   44.92    3.14 
  10   1  -5   49.39    3.29 
  10   1  -5   50.73    2.34 
 -10  -1   5   50.53    2.97 
 -10  -1   5   48.53    2.97 
   9   1  -5  107.91    4.11 
   9   1  -5   97.40    4.00 
   9   1  -5  106.04    3.37 
  -9  -1   5  109.62    3.29 
  -9  -1   5  108.87    3.85 
  -9  -1   5  108.08    3.90 
   8   1  -5   52.78    2.75 
   8   1  -5   49.08    3.24 
   8   1  -5   52.74    2.08 
  -8  -1   5   47.94    2.56 
  -8  -1   5   52.79    2.05 
  -8  -1   5   52.99    2.48 
   7   1  -5   24.10    1.43 
   7   1  -5   20.66    1.95 
   7   1  -5   24.07    2.09 
  -7  -1   5   23.56    1.77 
  -7  -1   5   19.82    1.84 
   6   1  -5    2.47    0.66 
   6   1  -5    1.37    0.91 
   6   1  -5   -0.03    0.80 
  -6  -1   5   -0.12    0.70 
  -6  -1   5    1.24    0.87 
  -6  -1   5    1.63    0.86 
   5   1  -5    2.75    0.84 
   5   1  -5    2.79    0.58 
   5   1  -5    2.94    0.80 
  -5  -1   5    2.10    0.96 
  -5  -1   5    3.19    0.82 
  -5  -1   5    2.69    0.69 
   4   1  -5    6.51    0.77 
   4   1  -5    4.93    0.76 
   4   1  -5    5.37    0.86 
  -4  -1   5    4.85    0.80 
  -4  -1   5    6.13    0.79 
  -4  -1   5    5.57    0.71 
   3   1  -5   -0.20    0.39 
   3   1  -5   -0.35    0.58 
   3   1  -5    0.01    0.52 
  -3  -1   5    0.07    0.54 
  -3  -1   5   -0.06    0.47 
  -3  -1   5    0.34    0.59 
   2   1  -5    0.75    0.55 
   2   1  -5   -0.12    0.47 
   2   1  -5   -0.03    0.33 
  -2  -1   5   -0.48    0.44 
  -2  -1   5    0.89    0.49 
  -2  -1   5    0.90    0.56 
  -2  -1   5    0.98    0.36 
   1   1  -5    6.50    0.84 
   1   1  -5    5.27    0.69 
   1   1  -5    6.22    0.60 
   1   1  -5    7.26    0.76 
  -1  -1   5    6.41    0.52 
  -1  -1   5    5.76    0.60 
  -1  -1   5    5.07    0.57 
  -1  -1   5    5.16    0.76 
   0   1  -5   73.06    2.36 
   0   1  -5   74.60    2.00 
   0   1  -5   71.06    2.19 
   0   1  -5   74.19    2.15 
   0  -1   5   75.03    2.18 
   0  -1   5   71.10    2.34 
   0  -1   5   77.06    1.90 
  -1   1  -5  222.84    5.13 
  -1   1  -5  213.36    5.40 
  -1   1  -5  207.63    5.50 
  -1   1  -5  209.89    5.36 
   1  -1   5  217.29    5.35 
   1  -1   5  208.26    5.50 
  -2   1  -5  392.82    9.75 
  -2   1  -5  405.90    9.71 
   2  -1   5  389.84    9.75 
   2  -1   5  402.79    9.63 
  -3   1  -5  926.89   21.93 
  -3   1  -5  936.83   21.90 
   3  -1   5  913.75   21.84 
   3  -1   5  909.53   21.94 
  -4   1  -5  555.50   13.44 
  -4   1  -5  558.12   13.32 
   4  -1   5  559.06   13.43 
   4  -1   5  560.02   13.49 
  -5   1  -5  286.31    6.90 
  -5   1  -5  282.40    7.17 
   5  -1   5  282.34    7.10 
   5  -1   5  281.22    7.12 
  -6   1  -5  399.36    9.75 
  -6   1  -5  384.34    9.42 
   6  -1   5  393.43    9.69 
  -7   1  -5  124.80    3.96 
  -7   1  -5  122.47    3.21 
   7  -1   5  124.12    3.56 
   7  -1   5  126.43    3.55 
  -8   1  -5   40.83    1.89 
  -8   1  -5   42.94    1.91 
   8  -1   5   38.78    1.70 
   8  -1   5   42.71    1.77 
  -9   1  -5    0.89    0.79 
  -9   1  -5    0.46    0.74 
   9  -1   5    0.27    0.62 
 -10   1  -5    2.03    0.88 
 -10   1  -5    0.98    0.92 
  10  -1   5    1.73    0.48 
  10  -1   5    1.58    0.76 
 -11   1  -5   15.77    1.81 
  11  -1   5   15.29    1.56 
  11  -1   5   16.42    0.96 
 -12   1  -5   -0.12    1.08 
  12  -1   5   -0.60    0.79 
  12  -1   5    0.10    0.85 
  12  -1   5   -0.34    0.49 
 -13   1  -5    2.14    1.27 
  13  -1   5    2.98    1.06 
  13  -1   5    4.04    1.06 
 -14   1  -5   -0.40    1.47 
  14  -1   5   -0.94    1.04 
  14  -1   5   -0.72    0.97 
 -15   1  -5   14.74    2.07 
  11   0  -5   55.20    2.58 
  11   0  -5   47.71    3.44 
 -11   0   5   51.51    3.24 
 -11   0   5   50.38    3.52 
  10   0  -5   31.84    2.83 
  10   0  -5   37.12    2.07 
 -10   0   5   33.87    2.75 
 -10   0   5   32.91    2.39 
 -10   0   5   33.15    2.66 
   9   0  -5   28.23    2.45 
   9   0  -5   27.81    1.82 
   9   0  -5   31.29    2.48 
  -9   0   5   26.50    1.80 
  -9   0   5   29.80    2.36 
   8   0  -5   -0.99    0.96 
   8   0  -5    1.60    0.77 
   8   0  -5    0.63    0.99 
  -8   0   5    1.29    1.00 
  -8   0   5    1.40    0.79 
  -8   0   5    0.00    0.98 
   7   0  -5    4.31    0.98 
   7   0  -5    3.70    0.79 
   7   0  -5    4.27    1.07 
  -7   0   5    3.03    0.93 
  -7   0   5    4.36    0.82 
   6   0  -5   21.35    1.74 
   6   0  -5   22.59    1.73 
   6   0  -5   20.09    1.28 
  -6   0   5   19.72    1.65 
  -6   0   5   20.76    1.58 
  -6   0   5   19.15    1.68 
   5   0  -5    7.02    0.89 
   5   0  -5    7.02    0.71 
   5   0  -5    6.11    0.88 
  -5   0   5    6.28    0.81 
  -5   0   5    6.51    0.88 
  -5   0   5    7.14    0.89 
   4   0  -5   49.98    2.02 
   4   0  -5   48.98    1.66 
  -4   0   5   51.33    1.91 
  -4   0   5   50.90    1.97 
  -4   0   5   50.75    1.98 
   3   0  -5    3.62    0.49 
   3   0  -5    3.40    0.64 
   3   0  -5    2.75    0.62 
  -3   0   5    2.93    0.59 
  -3   0   5    2.54    0.56 
  -3   0   5    2.25    0.67 
   2   0  -5   68.48    2.19 
   2   0  -5   69.05    1.96 
   2   0  -5   69.77    2.27 
  -2   0   5   66.81    2.13 
  -2   0   5   69.30    2.17 
  -2   0   5   68.85    2.24 
   1   0  -5   83.68    2.21 
   1   0  -5   80.91    2.36 
   1   0  -5   80.21    2.49 
   1   0  -5   78.32    2.39 
  -1   0   5   83.37    2.06 
  -1   0   5   81.21    2.39 
  -1   0   5   83.14    2.43 
  -1   0   5   81.28    2.47 
   0   0  -5  229.28    5.80 
   0   0  -5  236.42    5.67 
   0   0  -5  235.17    5.91 
   0   0  -5  229.96    5.80 
   0   0   5  229.54    5.78 
   0   0   5  233.96    5.84 
   0   0   5  230.86    5.90 
  -1   0  -5  630.74   15.10 
  -1   0  -5  624.60   15.20 
  -1   0  -5  636.21   15.19 
  -1   0  -5  651.39   15.03 
   1   0   5  625.07   15.21 
   1   0   5  639.91   15.17 
  -2   0  -5  484.42   11.83 
  -2   0  -5  486.58   11.82 
  -2   0  -5  484.27   11.70 
   2   0   5  500.71   11.78 
   2   0   5  492.85   11.85 
  -3   0  -5  531.09   12.83 
  -3   0  -5  532.04   12.73 
   3   0   5  530.78   12.83 
   3   0   5  535.04   12.78 
  -4   0  -5  337.61    8.08 
  -4   0  -5  333.11    8.20 
   4   0   5  329.23    8.18 
   4   0   5  331.50    8.23 
  -5   0  -5  204.74    5.68 
  -5   0  -5  214.71    5.28 
   5   0   5  215.26    5.46 
   5   0   5  212.24    5.43 
  -6   0  -5   36.45    1.29 
  -6   0  -5   39.81    1.58 
   6   0   5   36.65    1.28 
   6   0   5   37.65    1.52 
  -7   0  -5   10.17    1.04 
  -7   0  -5   10.80    1.15 
   7   0   5   10.97    0.94 
   7   0   5   10.58    0.75 
  -8   0  -5   17.66    1.41 
  -8   0  -5   17.28    1.27 
   8   0   5   18.37    0.91 
   8   0   5   16.95    1.15 
  -9   0  -5   25.18    1.52 
  -9   0  -5   25.49    1.71 
   9   0   5   24.56    1.11 
   9   0   5   23.88    1.37 
 -10   0  -5    8.85    1.02 
 -10   0  -5    8.15    1.07 
  10   0   5    8.87    1.21 
  10   0   5   10.92    0.92 
 -11   0  -5   -1.53    0.87 
 -11   0  -5    0.39    0.91 
  11   0   5   -0.36    0.73 
  11   0   5    0.53    0.57 
 -12   0  -5    7.97    1.25 
  12   0   5    8.85    1.08 
  12   0   5    7.43    1.05 
 -13   0  -5    9.10    1.65 
 -13   0  -5    7.50    1.35 
  13   0   5   12.09    1.60 
  13   0   5    9.79    1.25 
  13   0   5   12.51    1.45 
 -14   0  -5   39.31    2.88 
  14   0   5   38.59    2.20 
  14   0   5   38.76    2.34 
 -15   0  -5   58.97    3.49 
  15   0   5   58.68    2.96 
  11  -1  -5    9.68    1.37 
  11  -1  -5    8.60    1.83 
 -11   1   5    8.05    1.73 
  10  -1  -5    1.64    0.98 
  10  -1  -5    0.96    1.17 
 -10   1   5    0.37    1.02 
 -10   1   5    1.30    1.29 
   9  -1  -5    0.40    0.83 
   9  -1  -5   -1.90    1.10 
   9  -1  -5    0.37    1.06 
  -9   1   5   -0.03    1.14 
  -9   1   5    1.30    0.96 
   8  -1  -5    9.84    1.20 
   8  -1  -5    7.74    1.01 
   8  -1  -5    8.05    1.23 
  -8   1   5   10.05    1.34 
  -8   1   5    9.66    1.10 
   7  -1  -5    7.04    1.13 
   7  -1  -5    8.20    1.03 
   7  -1  -5    6.49    1.02 
  -7   1   5    8.98    0.97 
   6  -1  -5    6.14    0.97 
   6  -1  -5    7.04    0.83 
   6  -1  -5    5.08    0.88 
  -6   1   5    5.75    0.96 
  -6   1   5    5.22    0.80 
   5  -1  -5   -0.36    0.95 
   5  -1  -5    1.46    0.69 
   5  -1  -5    1.21    0.65 
  -5   1   5   -0.48    0.63 
  -5   1   5   -0.58    0.67 
   4  -1  -5   72.19    2.34 
   4  -1  -5   70.26    2.43 
   4  -1  -5   71.60    2.17 
  -4   1   5   70.90    2.42 
  -4   1   5   67.49    2.29 
  -4   1   5   72.40    2.38 
   3  -1  -5  124.90    3.31 
   3  -1  -5  125.13    3.55 
   3  -1  -5  125.61    3.47 
  -3   1   5  122.61    3.49 
  -3   1   5  126.05    3.53 
  -3   1   5  121.76    3.45 
   2  -1  -5   75.29    2.30 
   2  -1  -5   78.79    2.13 
  -2   1   5   74.74    2.32 
  -2   1   5   71.82    2.28 
  -2   1   5   73.45    2.28 
   1  -1  -5  335.35    8.12 
   1  -1  -5  338.04    7.99 
   1  -1  -5  325.04    8.11 
   1  -1  -5  328.19    8.11 
  -1   1   5  327.36    8.09 
  -1   1   5  325.34    8.13 
  -1   1   5  328.93    8.12 
   0  -1  -5  406.11    9.91 
   0  -1  -5  430.55    9.85 
   0  -1  -5  409.46    9.96 
   0  -1  -5  403.08    9.95 
   0   1   5  405.54    9.96 
   0   1   5  408.71    9.90 
   0   1   5  411.36   10.00 
  -1  -1  -5  204.58    5.05 
  -1  -1  -5  209.10    5.02 
  -1  -1  -5  201.80    5.13 
  -1  -1  -5  200.43    5.17 
   1   1   5  204.25    5.15 
   1   1   5  203.66    5.17 
   1   1   5  199.62    5.03 
  -2  -1  -5  101.73    2.66 
  -2  -1  -5  102.57    2.77 
  -2  -1  -5  100.29    2.83 
   2   1   5  101.40    2.82 
   2   1   5  103.24    2.81 
  -3  -1  -5   16.06    0.85 
  -3  -1  -5   16.70    0.97 
   3   1   5   17.58    0.92 
   3   1   5   16.88    0.95 
  -4  -1  -5   10.21    0.78 
  -4  -1  -5   10.94    0.90 
   4   1   5   11.17    0.86 
   4   1   5   10.69    0.76 
  -5  -1  -5    1.65    0.47 
  -5  -1  -5    1.35    0.44 
   5   1   5    1.72    0.42 
   5   1   5    0.98    0.46 
  -6  -1  -5   60.88    1.91 
  -6  -1  -5   64.45    2.09 
   6   1   5   61.15    1.88 
   6   1   5   62.84    2.05 
  -7  -1  -5   35.43    1.58 
  -7  -1  -5   32.82    1.38 
   7   1   5   34.37    1.35 
   7   1   5   32.74    1.26 
  -8  -1  -5    7.82    1.03 
  -8  -1  -5    8.08    0.98 
   8   1   5    7.16    0.93 
   8   1   5    7.64    0.82 
  -9  -1  -5    0.37    0.73 
  -9  -1  -5    0.07    0.61 
   9   1   5    0.86    0.54 
   9   1   5    0.35    0.53 
 -10  -1  -5    1.51    0.89 
 -10  -1  -5    1.71    0.78 
  10   1   5    2.49    0.68 
 -11  -1  -5   36.56    2.30 
 -11  -1  -5   39.09    2.02 
  11   1   5   38.58    1.74 
  11   1   5   39.93    1.71 
 -12  -1  -5   72.95    2.85 
  12   1   5   71.00    2.49 
  12   1   5   69.87    2.47 
 -13  -1  -5   68.53    3.33 
 -13  -1  -5   74.61    3.06 
  13   1   5   76.44    2.92 
  13   1   5   75.34    2.57 
  13   1   5   66.48    3.47 
 -14  -1  -5   55.94    3.56 
  14   1   5   60.36    2.75 
  14   1   5   63.09    2.44 
 -15  -1  -5   33.97    2.81 
  11  -2  -5    2.34    1.24 
  11  -2  -5    5.14    1.16 
 -11   2   5    4.89    1.25 
 -11   2   5    5.18    1.60 
  10  -2  -5    4.48    1.08 
  10  -2  -5    6.22    1.21 
 -10   2   5    6.13    1.48 
 -10   2   5    6.01    1.18 
   9  -2  -5   -0.51    0.92 
   9  -2  -5    0.79    1.17 
   9  -2  -5   -0.43    0.79 
  -9   2   5   -0.94    0.91 
  -9   2   5    1.76    1.19 
   8  -2  -5    1.65    0.78 
   8  -2  -5    0.54    0.98 
   8  -2  -5    0.84    0.81 
  -8   2   5    0.34    1.01 
  -8   2   5    1.53    0.88 
   7  -2  -5    4.63    1.08 
   7  -2  -5    6.60    0.86 
   7  -2  -5    6.35    0.89 
  -7   2   5    6.28    1.31 
  -7   2   5    5.68    0.93 
   6  -2  -5   47.27    1.94 
   6  -2  -5   49.94    2.26 
   6  -2  -5   51.83    1.98 
  -6   2   5   53.86    2.31 
  -6   2   5   50.24    2.01 
  -6   2   5   49.54    1.91 
   5  -2  -5  195.30    5.42 
   5  -2  -5  198.56    5.17 
   5  -2  -5  200.80    5.20 
  -5   2   5  199.87    5.40 
  -5   2   5  191.07    5.13 
   4  -2  -5  262.28    6.84 
   4  -2  -5  262.09    6.61 
   4  -2  -5  266.62    6.61 
  -4   2   5  258.62    6.80 
  -4   2   5  265.29    6.81 
  -4   2   5  262.16    6.60 
   3  -2  -5  475.02   11.25 
   3  -2  -5  472.56   11.25 
   3  -2  -5  461.80   11.44 
  -3   2   5  463.45   11.41 
  -3   2   5  457.95   11.40 
  -3   2   5  459.50   11.24 
   2  -2  -5  590.79   13.63 
   2  -2  -5  562.56   13.80 
   2  -2  -5  578.16   13.62 
  -2   2   5  553.16   13.62 
  -2   2   5  565.09   13.73 
  -2   2   5  564.89   13.76 
   1  -2  -5  352.61    8.51 
   1  -2  -5  355.97    8.40 
   1  -2  -5  342.01    8.40 
  -1   2   5  342.56    8.54 
  -1   2   5  346.55    8.48 
  -1   2   5  338.28    8.42 
   0  -2  -5  185.65    4.83 
   0  -2  -5  195.89    4.72 
   0  -2  -5  191.67    4.77 
   0  -2  -5  185.06    4.73 
   0   2   5  184.05    4.87 
   0   2   5  187.93    4.74 
   0   2   5  191.09    4.77 
  -1  -2  -5   14.36    0.90 
  -1  -2  -5   13.67    0.75 
  -1  -2  -5   13.90    0.76 
  -1  -2  -5   14.37    0.86 
   1   2   5   13.54    0.72 
   1   2   5   13.43    0.82 
   1   2   5   13.81    0.92 
  -2  -2  -5    5.21    0.49 
  -2  -2  -5    4.60    0.54 
  -2  -2  -5    5.47    0.66 
  -2  -2  -5    5.36    0.53 
   2   2   5    4.79    0.54 
   2   2   5    5.16    0.70 
  -3  -2  -5    7.20    0.51 
  -3  -2  -5    8.49    0.75 
  -3  -2  -5    8.03    0.81 
   3   2   5    7.63    0.70 
   3   2   5    9.05    0.76 
  -4  -2  -5    1.23    0.45 
  -4  -2  -5    0.67    0.43 
   4   2   5    1.68    0.45 
   4   2   5    1.03    0.42 
  -5  -2  -5   27.71    1.19 
  -5  -2  -5   28.06    1.27 
   5   2   5   26.91    1.23 
   5   2   5   28.42    1.15 
  -6  -2  -5    0.79    0.40 
  -6  -2  -5    0.70    0.49 
   6   2   5    0.88    0.45 
   6   2   5    0.87    0.46 
  -7  -2  -5   17.60    1.20 
  -7  -2  -5   16.89    0.92 
   7   2   5   17.05    1.02 
   7   2   5   16.67    1.14 
  -8  -2  -5   75.28    2.59 
  -8  -2  -5   72.46    2.23 
   8   2   5   74.86    2.22 
   8   2   5   72.27    2.38 
  -9  -2  -5  169.72    4.66 
  -9  -2  -5  159.91    4.29 
   9   2   5  156.65    4.40 
   9   2   5  158.24    4.21 
 -10  -2  -5  151.77    4.52 
 -10  -2  -5  151.33    4.16 
  10   2   5  149.35    4.03 
  10   2   5  151.10    4.25 
 -11  -2  -5  108.70    3.73 
 -11  -2  -5  110.87    3.33 
  11   2   5  108.82    3.44 
  11   2   5  106.82    3.11 
 -12  -2  -5  136.32    4.04 
  12   2   5  134.42    3.72 
  12   2   5  134.01    4.06 
 -13  -2  -5   65.69    3.20 
 -13  -2  -5   67.70    2.78 
  13   2   5   69.52    2.79 
  13   2   5   69.83    2.74 
 -14  -2  -5    8.66    1.34 
  14   2   5    8.32    1.30 
  14   2   5   10.09    1.33 
  14   2   5    9.17    1.66 
  11  -3  -5    2.48    1.06 
  11  -3  -5    0.34    0.99 
 -11   3   5    2.38    1.55 
 -11   3   5    3.11    1.28 
  10  -3  -5    0.37    0.94 
  10  -3  -5    0.65    0.94 
 -10   3   5   -0.53    1.29 
 -10   3   5    2.77    1.13 
   9  -3  -5    3.99    0.89 
   9  -3  -5    3.63    1.21 
   9  -3  -5    2.84    0.93 
  -9   3   5    3.71    1.06 
  -9   3   5    3.25    1.26 
   8  -3  -5   34.12    1.89 
   8  -3  -5   31.51    1.76 
   8  -3  -5   35.58    2.30 
  -8   3   5   33.30    2.00 
  -8   3   5   35.64    2.32 
   7  -3  -5  121.87    3.51 
   7  -3  -5  127.66    4.04 
   7  -3  -5  123.45    3.70 
  -7   3   5  122.77    3.75 
  -7   3   5  110.09    5.21 
   6  -3  -5  146.76    4.48 
   6  -3  -5  151.22    4.04 
  -6   3   5  152.81    4.33 
  -6   3   5  149.99    4.48 
   5  -3  -5  200.28    5.52 
   5  -3  -5  207.14    5.13 
   5  -3  -5  201.24    5.30 
  -5   3   5  203.24    5.40 
  -5   3   5  190.36    5.09 
  -5   3   5  201.18    5.50 
   4  -3  -5  128.29    3.28 
   4  -3  -5  122.10    3.62 
   4  -3  -5  125.06    3.49 
  -4   3   5  119.97    3.25 
  -4   3   5  119.36    3.60 
   3  -3  -5  200.70    5.28 
   3  -3  -5  202.94    4.97 
   3  -3  -5  200.01    5.11 
  -3   3   5  198.20    5.25 
  -3   3   5  193.87    4.97 
  -3   3   5  196.61    5.27 
   2  -3  -5  138.44    3.55 
   2  -3  -5  133.13    3.70 
   2  -3  -5  132.38    3.42 
  -2   3   5  130.59    3.67 
  -2   3   5  132.59    3.70 
  -2   3   5  133.36    3.45 
   1  -3  -5   36.07    1.27 
   1  -3  -5   35.38    1.21 
   1  -3  -5   36.42    1.43 
  -1   3   5   32.28    1.43 
  -1   3   5   35.12    1.23 
  -1   3   5   34.09    1.37 
   0  -3  -5    6.84    0.66 
   0  -3  -5    7.71    0.76 
   0  -3  -5    6.40    0.75 
   0  -3  -5    7.76    0.81 
   0   3   5    6.84    0.84 
   0   3   5    7.86    0.74 
   0   3   5    7.29    0.68 
   0   3   5    7.68    0.46 
  -1  -3  -5   63.82    1.63 
  -1  -3  -5   63.51    1.83 
  -1  -3  -5   61.40    1.93 
  -1  -3  -5   61.50    1.89 
  -1  -3  -5   64.53    1.81 
   1   3   5   63.08    1.77 
   1   3   5   60.67    1.83 
  -2  -3  -5   49.55    1.67 
  -2  -3  -5   50.81    1.43 
  -2  -3  -5   51.75    1.37 
  -2  -3  -5   47.73    1.61 
  -2  -3  -5   50.61    1.53 
   2   3   5   48.61    1.37 
   2   3   5   47.96    1.61 
   2   3   5   49.03    1.66 
  -3  -3  -5   12.58    0.91 
  -3  -3  -5   14.54    0.89 
  -3  -3  -5   14.45    0.59 
   3   3   5   12.99    0.85 
   3   3   5   13.53    0.92 
  -4  -3  -5    6.55    0.86 
  -4  -3  -5    6.67    0.81 
   4   3   5    8.11    0.80 
   4   3   5    6.15    0.77 
  -5  -3  -5    7.37    0.92 
  -5  -3  -5    5.94    0.84 
   5   3   5    7.54    0.84 
   5   3   5    7.01    0.81 
   6   3   5  140.24    3.85 
   6   3   5  141.99    3.81 
  -7  -3  -5  219.02    5.51 
  -7  -3  -5  227.66    5.87 
   7   3   5  223.77    5.82 
   7   3   5  232.94    6.17 
  -8  -3  -5  297.11    7.41 
  -8  -3  -5  284.33    7.00 
   8   3   5  279.40    7.03 
   8   3   5  286.80    7.35 
  -9  -3  -5   74.44    2.26 
  -9  -3  -5   77.05    2.72 
   9   3   5   73.83    2.17 
   9   3   5   75.30    2.59 
 -10  -3  -5  185.42    5.20 
 -10  -3  -5  185.12    4.73 
  10   3   5  166.38    5.33 
  10   3   5  181.97    4.58 
 -11  -3  -5  183.09    5.39 
 -11  -3  -5  186.01    4.89 
  11   3   5  181.18    4.64 
  11   3   5  183.48    5.22 
 -12  -3  -5   31.73    2.85 
 -12  -3  -5   30.80    1.78 
  12   3   5   30.35    2.00 
 -13  -3  -5   -1.90    1.19 
 -13  -3  -5    1.97    0.93 
  13   3   5    0.60    1.21 
  13   3   5    0.58    1.09 
 -14  -3  -5   -1.51    1.03 
  14   3   5   -0.22    1.40 
  14   3   5   -1.38    1.45 
  14   3   5    0.88    0.98 
  11  -4  -5   -0.69    1.01 
 -11   4   5    3.65    1.60 
  10  -4  -5   20.25    1.63 
  10  -4  -5   27.69    2.03 
 -10   4   5   25.92    2.69 
 -10   4   5   30.04    2.25 
   9  -4  -5   91.06    3.69 
   9  -4  -5   85.68    3.19 
  -9   4   5   91.92    3.67 
  -9   4   5   85.66    3.30 
   8  -4  -5   80.11    3.26 
   8  -4  -5   74.72    2.48 
   8  -4  -5   78.24    2.92 
  -8   4   5   86.05    3.04 
  -8   4   5   87.30    3.34 
   7  -4  -5   96.76    3.19 
   7  -4  -5   98.58    2.75 
   7  -4  -5   99.42    3.47 
  -7   4   5   88.79    4.51 
  -7   4   5   97.63    3.27 
   6  -4  -5   69.35    2.01 
   6  -4  -5   67.66    2.65 
   6  -4  -5   64.11    2.36 
  -6   4   5   64.16    2.47 
  -6   4   5   67.46    2.66 
   5  -4  -5   29.55    1.09 
   5  -4  -5   25.57    1.41 
   5  -4  -5   27.05    1.66 
  -5   4   5   26.62    1.68 
  -5   4   5   26.94    1.51 
   4  -4  -5   10.23    1.20 
   4  -4  -5    9.03    0.66 
   4  -4  -5    8.66    0.99 
  -4   4   5    9.82    1.07 
  -4   4   5    8.64    0.64 
  -4   4   5    7.75    0.87 
   3  -4  -5    8.86    1.08 
   3  -4  -5    5.60    1.06 
  -3   4   5    6.95    0.60 
  -3   4   5    5.25    0.72 
   2  -4  -5  118.83    3.40 
   2  -4  -5  123.23    3.27 
   2  -4  -5  116.87    3.27 
  -2   4   5  117.91    3.05 
  -2   4   5  118.00    3.41 
   1  -4  -5   24.71    1.09 
   1  -4  -5   24.48    1.21 
   1  -4  -5   23.88    1.11 
  -1   4   5   22.90    0.95 
  -1   4   5   24.19    1.17 
  -1   4   5   22.66    1.24 
   0  -4  -5  116.22    3.04 
   0  -4  -5  110.51    3.08 
   0  -4  -5  114.09    3.07 
   0  -4  -5  102.56    3.14 
   0  -4  -5  116.89    3.17 
   0   4   5  116.90    3.11 
   0   4   5  112.78    3.15 
   0   4   5  114.92    3.03 
  -1  -4  -5   36.89    1.27 
  -1  -4  -5   33.42    1.20 
  -1  -4  -5   38.20    1.27 
  -1  -4  -5   37.45    1.41 
  -1  -4  -5   36.46    1.39 
   1   4   5   35.92    1.44 
   1   4   5   38.61    1.23 
   1   4   5   36.68    1.37 
  -2  -4  -5    0.40    0.35 
  -2  -4  -5    0.21    0.30 
  -2  -4  -5    0.10    0.39 
  -2  -4  -5    0.27    0.43 
  -2  -4  -5    0.57    0.31 
   2   4   5    0.36    0.25 
   2   4   5    0.06    0.41 
   2   4   5    0.04    0.37 
  -3  -4  -5   18.79    1.06 
  -3  -4  -5   19.44    1.07 
  -3  -4  -5   20.67    0.85 
  -3  -4  -5   22.06    0.97 
   3   4   5   18.30    1.03 
   3   4   5   19.26    1.07 
  -4  -4  -5    2.32    0.51 
  -4  -4  -5    2.55    0.59 
   4   4   5    2.60    0.49 
   4   4   5    2.88    0.55 
  -5  -4  -5  182.05    4.74 
   5   4   5  187.31    4.69 
   5   4   5  172.46    5.18 
  -6  -4  -5  269.78    6.84 
   6   4   5  269.17    6.90 
   6   4   5  268.54    6.75 
  -7  -4  -5  149.64    4.02 
   7   4   5  142.93    4.08 
   7   4   5  140.76    3.91 
  -8  -4  -5  156.66    4.21 
   8   4   5  148.17    4.24 
   8   4   5  138.59    3.71 
  -9  -4  -5   13.03    0.92 
  -9  -4  -5   12.82    1.55 
   9   4   5   12.30    1.35 
 -10  -4  -5    3.00    0.90 
 -10  -4  -5    3.48    0.62 
  10   4   5    4.31    0.97 
 -11  -4  -5    0.69    0.93 
 -11  -4  -5    0.43    0.63 
  11   4   5    1.13    0.95 
 -12  -4  -5    3.73    1.17 
 -12  -4  -5    4.34    0.82 
  12   4   5    4.06    1.15 
  12   4   5    3.66    1.28 
  13   4   5    7.73    1.49 
 -14  -4  -5    3.08    0.99 
  14   4   5    5.23    1.53 
  14   4   5   -0.03    0.94 
  14   4   5    3.50    1.66 
  11  -5  -5   30.81    2.28 
 -11   5   5   25.35    2.34 
 -11   5   5   31.62    2.66 
  10  -5  -5   75.54    3.10 
 -10   5   5   74.08    3.58 
   9  -5  -5  118.10    3.99 
   9  -5  -5  115.19    4.32 
  -9   5   5  120.10    4.33 
  -9   5   5  126.64    4.12 
   8  -5  -5   72.78    2.86 
   8  -5  -5   74.09    3.18 
  -8   5   5   75.69    3.23 
  -8   5   5   75.55    2.97 
   7  -5  -5   17.33    1.82 
   7  -5  -5   16.40    1.49 
  -7   5   5   11.56    1.65 
  -7   5   5   13.47    1.42 
   6  -5  -5    6.09    1.00 
   6  -5  -5    6.27    0.88 
   6  -5  -5    8.67    0.94 
  -6   5   5    6.25    1.05 
  -6   5   5    5.26    0.93 
   5  -5  -5   -0.28    0.65 
   5  -5  -5    0.66    0.60 
   5  -5  -5   -0.07    0.77 
  -5   5   5   -0.39    0.70 
  -5   5   5   -0.09    0.66 
   4  -5  -5    0.67    0.54 
   4  -5  -5   -0.12    0.51 
   4  -5  -5    0.17    1.08 
  -4   5   5    0.58    0.64 
  -4   5   5    0.88    0.60 
   3  -5  -5   58.33    1.95 
   3  -5  -5   58.81    1.90 
   3  -5  -5   56.18    2.11 
  -3   5   5   56.68    2.09 
  -3   5   5   58.34    2.13 
   2  -5  -5   43.37    1.58 
   2  -5  -5   44.92    1.64 
  -2   5   5   43.61    1.77 
  -2   5   5   46.09    1.76 
  -2   5   5   45.62    1.32 
   1  -5  -5   38.33    1.50 
   1  -5  -5   37.76    1.40 
   1  -5  -5   36.98    1.42 
  -1   5   5   35.43    1.55 
  -1   5   5   38.75    1.51 
  -1   5   5   38.24    1.22 
   0  -5  -5   24.07    1.12 
   0  -5  -5   24.34    0.94 
   0  -5  -5   25.74    1.10 
   0  -5  -5   24.22    1.17 
   0   5   5   24.28    1.25 
   0   5   5   24.22    1.17 
   0   5   5   26.74    1.14 
  -1  -5  -5  263.60    6.36 
  -1  -5  -5  258.17    6.30 
  -1  -5  -5  260.07    6.26 
  -1  -5  -5  255.19    6.48 
  -1  -5  -5  255.18    6.45 
   1   5   5  250.17    6.49 
   1   5   5  256.96    6.28 
   1   5   5  253.46    6.45 
  -2  -5  -5  170.69    4.22 
  -2  -5  -5  167.50    4.34 
  -2  -5  -5  168.03    4.11 
  -2  -5  -5  169.94    4.26 
  -2  -5  -5  163.27    4.42 
   2   5   5  163.60    4.37 
   2   5   5  162.99    4.39 
   2   5   5  165.31    4.09 
  -3  -5  -5  480.28   11.14 
  -3  -5  -5  468.03   11.16 
  -3  -5  -5  460.92   11.24 
  -3  -5  -5  467.70   11.34 
   3   5   5  460.63   11.23 
   3   5   5  439.52   11.36 
  -4  -5  -5  472.59   11.59 
  -4  -5  -5  484.09   11.51 
   4   5   5  476.04   11.53 
   4   5   5  477.46   11.73 
  -5  -5  -5  312.26    7.86 
   5   5   5  320.58    7.81 
   5   5   5  316.15    8.02 
  -6  -5  -5  196.06    5.19 
   6   5   5  199.46    5.11 
   6   5   5  200.83    5.36 
  -7  -5  -5   87.13    2.63 
   7   5   5   80.60    2.46 
   7   5   5   72.10    3.49 
  -8  -5  -5   10.35    1.30 
   8   5   5   10.11    1.31 
  -9  -5  -5   -0.44    0.84 
   9   5   5    1.08    0.87 
 -10  -5  -5    9.41    1.13 
  10   5   5   10.21    1.28 
 -11  -5  -5    6.72    0.70 
 -11  -5  -5    7.72    1.18 
  11   5   5    7.92    1.41 
  11   5   5    9.62    1.36 
 -12  -5  -5    9.03    1.33 
 -12  -5  -5   10.15    1.14 
 -13  -5  -5    2.13    0.79 
  13   5   5    4.14    1.60 
  13   5   5    6.89    1.49 
 -14  -5  -5    0.36    1.58 
  14   5   5    2.39    1.10 
  14   5   5    4.34    1.79 
  11  -6  -5   48.12    2.79 
  11  -6  -5   46.69    2.35 
 -11   6   5   43.43    3.47 
 -11   6   5   48.77    3.03 
  10  -6  -5   36.88    2.38 
  10  -6  -5   35.14    2.05 
 -10   6   5   30.00    2.59 
 -10   6   5   37.49    3.05 
   9  -6  -5   18.60    1.63 
   9  -6  -5   21.60    1.89 
   9  -6  -5   19.05    2.27 
  -9   6   5   15.11    1.74 
   8  -6  -5    0.31    0.80 
   8  -6  -5    0.39    0.84 
  -8   6   5   -0.30    1.00 
  -8   6   5    0.41    1.14 
   7  -6  -5   25.34    1.51 
   7  -6  -5   24.18    1.73 
  -7   6   5   26.82    2.11 
  -7   6   5   23.84    1.86 
   6  -6  -5   -0.66    0.75 
   6  -6  -5    0.46    0.70 
   6  -6  -5    0.57    0.63 
  -6   6   5   -0.33    0.80 
  -6   6   5    0.41    0.85 
   5  -6  -5   31.33    1.82 
   5  -6  -5   34.00    1.46 
   5  -6  -5   33.01    1.65 
  -5   6   5   33.88    1.97 
  -5   6   5   31.70    1.79 
   4  -6  -5   34.17    1.76 
   4  -6  -5   34.33    1.60 
   4  -6  -5   33.61    1.41 
  -4   6   5   33.09    1.77 
  -4   6   5   33.63    1.72 
   3  -6  -5   -0.33    0.46 
   3  -6  -5   -0.02    0.57 
   3  -6  -5    0.15    0.45 
  -3   6   5   -0.01    0.61 
  -3   6   5   -0.05    0.55 
   2  -6  -5   18.45    1.19 
   2  -6  -5   17.79    1.06 
   2  -6  -5   18.19    1.06 
  -2   6   5   18.01    1.25 
  -2   6   5   15.69    1.23 
  -2   6   5   18.03    0.73 
  -2   6   5   16.57    1.18 
   1  -6  -5  100.49    2.92 
   1  -6  -5  101.13    2.88 
   1  -6  -5  102.27    2.94 
  -1   6   5  101.49    3.05 
  -1   6   5  103.24    2.92 
  -1   6   5  100.05    2.94 
  -1   6   5  104.06    3.02 
   0  -6  -5  262.93    6.74 
   0  -6  -5  269.82    6.65 
   0  -6  -5  269.28    6.56 
   0  -6  -5  272.13    6.67 
   0   6   5  263.77    6.75 
   0   6   5  264.11    6.71 
   0   6   5  264.38    6.65 
  -1  -6  -5  379.92    9.04 
  -1  -6  -5  374.62    8.99 
  -1  -6  -5  382.89    9.00 
  -1  -6  -5  370.91    9.19 
   1   6   5  373.75    8.98 
   1   6   5  337.32    9.29 
   1   6   5  374.07    9.17 
  -2  -6  -5  342.82    8.27 
  -2  -6  -5  341.73    8.34 
  -2  -6  -5  340.75    8.25 
  -2  -6  -5  337.41    8.47 
   2   6   5  332.15    8.36 
   2   6   5  336.84    8.12 
   2   6   5  333.55    8.51 
  -3  -6  -5  342.12    8.31 
  -3  -6  -5  350.20    8.37 
  -3  -6  -5  340.97    8.39 
  -3  -6  -5  338.87    8.58 
   3   6   5  337.79    8.55 
   3   6   5  334.13    8.40 
  -4  -6  -5   97.37    2.77 
  -4  -6  -5   97.66    2.81 
   4   6   5   97.15    2.99 
   4   6   5   99.73    2.76 
  -5  -6  -5   59.97    1.97 
  -5  -6  -5   59.79    1.94 
   5   6   5   57.39    2.16 
   5   6   5   58.68    1.86 
  -6  -6  -5   27.43    1.33 
   6   6   5   27.01    1.23 
   6   6   5   26.51    1.56 
  -7  -6  -5    0.63    0.93 
   7   6   5   -0.29    0.49 
   7   6   5    1.18    0.73 
  -8  -6  -5   15.96    1.40 
   8   6   5   14.11    1.50 
  -9  -6  -5    4.38    0.95 
   9   6   5    4.16    1.00 
 -10  -6  -5    1.79    0.97 
  10   6   5    2.11    1.12 
  10   6   5    2.52    1.04 
 -11  -6  -5    1.44    1.13 
  11   6   5    1.98    1.28 
 -12  -6  -5    3.57    1.29 
  12   6   5    3.12    1.41 
  12   6   5    3.56    1.30 
  13   6   5   21.75    1.88 
  13   6   5   16.44    2.12 
  11  -7  -5   19.36    2.30 
 -11   7   5   24.46    3.11 
  10  -7  -5   -0.13    1.06 
  10  -7  -5    0.60    0.85 
 -10   7   5   -1.66    1.43 
 -10   7   5   -0.25    1.33 
   9  -7  -5   10.73    1.32 
   9  -7  -5    7.73    1.25 
  -9   7   5    9.81    1.55 
  -9   7   5    5.76    1.40 
   8  -7  -5   15.71    1.32 
   8  -7  -5   19.43    1.80 
  -8   7   5   17.54    2.24 
   7  -7  -5   12.25    1.18 
   7  -7  -5   11.15    1.17 
  -7   7   5   10.32    1.34 
  -7   7   5   10.45    1.40 
   6  -7  -5    0.43    0.61 
   6  -7  -5    0.16    0.69 
  -6   7   5    0.94    0.87 
   5  -7  -5    0.01    0.64 
   5  -7  -5   -0.43    0.53 
   5  -7  -5   -0.35    0.76 
  -5   7   5   -0.88    0.77 
  -5   7   5    0.18    0.75 
   4  -7  -5   12.94    1.05 
   4  -7  -5   13.25    1.43 
   4  -7  -5   12.37    1.19 
  -4   7   5   12.81    1.39 
  -4   7   5   13.05    1.44 
   3  -7  -5   23.89    1.56 
   3  -7  -5   24.33    1.24 
   3  -7  -5   23.54    1.32 
  -3   7   5   26.22    1.57 
  -3   7   5   24.67    1.50 
   2  -7  -5  124.67    3.47 
   2  -7  -5  128.72    3.65 
   2  -7  -5  122.79    3.47 
  -2   7   5  121.93    3.74 
  -2   7   5  130.01    3.64 
  -2   7   5  124.74    3.16 
  -2   7   5  115.04    3.66 
  -2   7   5  121.87    3.62 
   1  -7  -5  239.24    6.13 
   1  -7  -5  236.03    6.17 
  -1   7   5  242.05    6.25 
  -1   7   5  243.09    6.35 
  -1   7   5  242.93    6.21 
   0  -7  -5  184.00    4.89 
   0  -7  -5  181.40    4.71 
   0  -7  -5  184.20    4.78 
   0   7   5  181.71    4.87 
   0   7   5  182.15    4.85 
   0   7   5  187.09    4.97 
   0   7   5  184.25    4.79 
  -1  -7  -5  128.60    3.49 
  -1  -7  -5  133.66    3.51 
  -1  -7  -5  130.78    3.69 
   1   7   5  130.03    3.48 
   1   7   5  130.85    3.66 
   1   7   5  129.41    3.62 
  -2  -7  -5   96.84    2.78 
  -2  -7  -5   99.29    2.73 
  -2  -7  -5  103.49    2.83 
   2   7   5   96.62    2.95 
   2   7   5   93.89    2.85 
   2   7   5   98.02    2.64 
   2   7   5   95.93    2.83 
  -3  -7  -5    6.84    0.76 
  -3  -7  -5    6.49    0.83 
  -3  -7  -5    5.41    0.63 
   3   7   5    5.10    0.57 
   3   7   5    5.69    0.80 
   3   7   5    5.26    0.74 
   3   7   5    5.20    0.60 
  -4  -7  -5    5.71    0.62 
  -4  -7  -5    5.61    0.71 
   4   7   5    5.73    0.79 
   4   7   5    5.49    0.73 
   4   7   5    6.07    1.32 
  -5  -7  -5    6.21    0.75 
  -5  -7  -5    7.91    0.92 
   5   7   5    5.82    0.86 
   5   7   5    7.27    0.79 
   5   7   5    7.82    0.72 
  -6  -7  -5   28.94    1.40 
  -6  -7  -5   28.45    1.46 
   6   7   5   28.68    1.06 
   6   7   5   28.71    1.26 
   6   7   5   29.65    1.71 
  -7  -7  -5   16.47    1.30 
  -7  -7  -5   18.19    1.32 
   7   7   5   16.52    1.56 
   7   7   5   17.37    1.13 
  -8  -7  -5    3.17    0.76 
   8   7   5    3.59    1.02 
   8   7   5    5.43    1.12 
  -9  -7  -5    0.29    0.78 
   9   7   5    2.83    1.15 
   9   7   5    2.25    1.04 
  10   7   5   34.16    2.73 
 -11  -7  -5   33.58    2.37 
  11   7   5   34.92    2.95 
  11   7   5   35.79    2.55 
 -12  -7  -5   38.19    2.72 
  12   7   5   40.34    3.33 
  13   7   5   66.78    2.76 
  13   7   5   62.20    3.97 
  11  -8  -5    3.43    1.28 
 -11   8   5    1.31    1.96 
  10  -8  -5    1.12    1.11 
  10  -8  -5    0.06    0.77 
 -10   8   5    0.69    1.58 
   9  -8  -5    1.75    0.75 
   9  -8  -5   -0.10    0.98 
  -9   8   5   -0.53    1.34 
  -9   8   5   -0.13    1.22 
   8  -8  -5    0.87    0.96 
   8  -8  -5    2.95    0.75 
  -8   8   5    0.42    1.07 
  -8   8   5   -1.02    1.18 
   7  -8  -5   14.13    1.24 
   7  -8  -5   14.48    1.60 
  -7   8   5   14.21    1.59 
   6  -8  -5   59.59    2.76 
   6  -8  -5   59.64    2.10 
   6  -8  -5   59.42    2.47 
  -6   8   5   60.20    2.74 
  -6   8   5   58.83    2.71 
   5  -8  -5  130.59    3.70 
   5  -8  -5  128.62    3.96 
  -5   8   5  135.01    4.22 
  -5   8   5  132.31    4.19 
   4  -8  -5  195.56    5.54 
   4  -8  -5  191.10    5.33 
   4  -8  -5  194.12    5.16 
  -4   8   5  195.11    5.56 
  -4   8   5  201.30    5.55 
   3  -8  -5  191.48    5.46 
   3  -8  -5  198.75    5.24 
  -3   8   5  206.13    5.53 
  -3   8   5  196.77    5.56 
   2  -8  -5  223.33    5.86 
   2  -8  -5  229.35    5.88 
  -2   8   5  224.67    6.12 
  -2   8   5  226.04    5.84 
  -2   8   5  221.53    5.56 
  -2   8   5  220.64    5.98 
  -2   8   5  228.15    6.01 
   1  -8  -5   98.71    2.90 
   1  -8  -5   99.26    3.00 
  -1   8   5   89.84    3.87 
  -1   8   5  103.38    3.04 
  -1   8   5  101.39    2.95 
  -1   8   5  100.19    2.78 
  -1   8   5  100.02    3.04 
   0  -8  -5   26.16    1.41 
   0  -8  -5   26.83    1.24 
   0  -8  -5   27.79    1.25 
   0   8   5   27.54    1.34 
   0   8   5   25.89    1.45 
   0   8   5   26.08    1.36 
   0   8   5   26.99    1.35 
   0   8   5   27.43    1.27 
  -1  -8  -5   26.45    1.38 
  -1  -8  -5   27.40    1.25 
   1   8   5   28.07    1.35 
   1   8   5   27.76    1.42 
   1   8   5   25.98    1.38 
   1   8   5   28.02    1.26 
   1   8   5   26.83    1.39 
  -2  -8  -5    0.79    0.53 
  -2  -8  -5    0.89    0.48 
   2   8   5    0.81    0.50 
   2   8   5    0.78    0.55 
   2   8   5    0.60    0.43 
   2   8   5    1.37    0.59 
   2   8   5    1.50    0.66 
  -3  -8  -5    4.02    0.66 
  -3  -8  -5    4.44    0.57 
   3   8   5    3.92    0.76 
   3   8   5    3.66    0.56 
   3   8   5    4.22    0.47 
   3   8   5    4.08    0.74 
   3   8   5    3.33    0.60 
  -4  -8  -5    5.94    0.63 
  -4  -8  -5    6.08    0.76 
   4   8   5    6.29    0.91 
   4   8   5    6.41    0.81 
   4   8   5    6.49    0.67 
   4   8   5    5.90    0.94 
  -5  -8  -5    2.84    0.66 
  -5  -8  -5    3.10    0.56 
   5   8   5    2.07    0.75 
   5   8   5    3.81    0.88 
   5   8   5    2.75    0.51 
   5   8   5    2.69    0.50 
  -6  -8  -5    0.14    0.52 
  -6  -8  -5    0.18    0.61 
   6   8   5    0.24    0.38 
   6   8   5   -0.71    0.78 
   6   8   5   -0.39    0.43 
   6   8   5   -0.65    0.77 
  -7  -8  -5   25.17    1.45 
  -7  -8  -5   26.28    1.57 
   7   8   5   25.74    1.26 
   7   8   5   22.15    2.09 
   7   8   5   25.22    1.87 
  -8  -8  -5   76.70    2.84 
   8   8   5   82.21    3.45 
  -9  -8  -5   93.46    3.86 
  -9  -8  -5  101.21    3.18 
   9   8   5  101.30    4.02 
 -10  -8  -5   84.42    3.23 
 -10  -8  -5   86.70    3.02 
  10   8   5   76.62    3.43 
  10   8   5   84.61    3.88 
 -11  -8  -5   80.98    3.13 
  11   8   5   86.75    4.12 
  12   8   5   71.21    4.14 
  10  -9  -5   -0.37    1.09 
 -10   9   5    1.44    1.71 
   9  -9  -5   -0.85    0.97 
   9  -9  -5    1.80    0.75 
  -9   9   5   -1.53    1.42 
   8  -9  -5   37.26    1.68 
   8  -9  -5   35.27    2.25 
  -8   9   5   38.89    2.60 
  -8   9   5   39.61    2.86 
   7  -9  -5   84.75    3.22 
   7  -9  -5   87.31    2.71 
  -7   9   5   83.96    3.55 
   6  -9  -5  110.24    3.70 
   6  -9  -5  112.24    3.30 
  -6   9   5  114.54    4.01 
   5  -9  -5  135.92    4.18 
   5  -9  -5  139.18    3.90 
  -5   9   5  139.46    4.64 
   4  -9  -5   96.30    3.12 
   4  -9  -5   96.74    2.98 
  -4   9   5   99.63    3.42 
   3  -9  -5   80.91    2.68 
   3  -9  -5   80.46    2.62 
  -3   9   5   79.51    2.98 
  -3   9   5   82.35    2.59 
  -3   9   5   82.50    2.96 
   2  -9  -5   35.63    1.64 
  -2   9   5   33.98    1.73 
  -2   9   5   34.88    1.82 
  -2   9   5   34.30    1.86 
  -2   9   5   34.14    1.32 
  -2   9   5   34.52    1.55 
   1  -9  -5    0.89    0.53 
  -1   9   5   -0.48    0.63 
  -1   9   5   -0.44    0.56 
  -1   9   5    0.20    0.49 
  -1   9   5   -0.61    0.62 
  -1   9   5    0.08    0.57 
   0  -9  -5   16.39    1.15 
   0  -9  -5   17.41    1.12 
   0   9   5   17.00    1.23 
   0   9   5   17.42    1.17 
   0   9   5   15.83    1.21 
   0   9   5   15.02    1.25 
   0   9   5   16.16    1.37 
  -1  -9  -5   20.96    1.24 
  -1  -9  -5   21.28    1.14 
   1   9   5   21.26    1.40 
   1   9   5   21.04    1.29 
   1   9   5   22.18    1.22 
   1   9   5   21.97    1.39 
   1   9   5   22.25    1.37 
  -2  -9  -5   50.00    1.87 
   2   9   5   48.54    1.84 
   2   9   5   50.34    2.11 
   2   9   5   50.34    1.95 
   2   9   5   51.82    2.10 
   2   9   5   48.72    1.73 
  -3  -9  -5    0.72    0.50 
  -3  -9  -5    0.04    0.60 
   3   9   5   -0.46    0.68 
   3   9   5    0.33    0.55 
   3   9   5   -0.27    0.47 
   3   9   5   -0.35    0.65 
   3   9   5    0.08    0.44 
  -4  -9  -5    7.47    0.90 
   4   9   5    8.38    0.96 
   4   9   5    6.04    1.02 
   4   9   5    8.36    1.14 
   4   9   5    7.25    0.87 
  -5  -9  -5   13.88    1.04 
  -5  -9  -5   13.30    1.26 
   5   9   5   14.23    1.54 
   5   9   5   14.44    1.01 
   5   9   5   14.14    1.78 
   5   9   5   13.98    0.97 
  -6  -9  -5   70.13    2.20 
  -6  -9  -5   67.61    2.53 
   6   9   5   69.53    2.11 
   6   9   5   68.96    2.02 
   6   9   5   73.86    3.17 
  -7  -9  -5  141.00    4.29 
  -7  -9  -5  147.88    3.93 
   7   9   5  145.33    4.86 
  -8  -9  -5  107.68    3.17 
   8   9   5  110.23    4.19 
  -9  -9  -5  132.72    4.30 
   9   9   5  140.61    5.01 
   9   9   5  128.57    4.58 
 -10  -9  -5   91.20    3.04 
 -10  -9  -5   83.83    3.41 
  10   9   5   91.48    4.16 
 -11  -9  -5   47.10    2.67 
  11   9   5   53.31    3.71 
  10 -10  -5   46.24    2.96 
 -10  10   5   42.88    3.67 
   9 -10  -5   35.96    2.48 
  -9  10   5   38.04    3.24 
   8 -10  -5   86.69    3.48 
  -8  10   5   90.23    3.97 
   7 -10  -5   78.10    3.16 
   7 -10  -5   83.42    2.63 
  -7  10   5   82.97    3.62 
  -7  10   5   80.97    3.42 
   6 -10  -5   65.51    2.72 
   6 -10  -5   63.33    2.30 
  -6  10   5   68.42    3.12 
   5 -10  -5   25.10    1.72 
  -5  10   5   26.15    2.21 
   4 -10  -5   29.12    1.68 
  -4  10   5   23.53    2.72 
   3 -10  -5    0.09    0.64 
  -3  10   5    0.32    0.75 
  -3  10   5    0.47    0.43 
  -3  10   5    0.05    0.67 
  -3  10   5    0.02    0.83 
  -3  10   5    0.18    0.80 
   2 -10  -5   17.33    1.29 
  -2  10   5   16.25    1.52 
  -2  10   5   17.18    1.45 
  -2  10   5   17.62    1.11 
  -2  10   5   15.76    1.57 
  -2  10   5   16.29    1.62 
  -1  10   5   15.35    1.40 
  -1  10   5   13.53    1.29 
  -1  10   5   11.12    1.12 
  -1  10   5   10.85    1.43 
  -1  10   5   11.47    1.21 
   0 -10  -5   30.71    1.43 
   0 -10  -5   28.65    1.52 
   0  10   5   28.37    1.70 
   0  10   5   28.50    1.54 
   0  10   5   28.46    1.57 
   0  10   5   30.03    1.58 
   0  10   5   29.91    1.64 
  -1 -10  -5    0.55    0.64 
  -1 -10  -5    1.14    0.57 
   1  10   5    1.20    0.65 
   1  10   5    1.16    0.63 
   1  10   5    1.14    0.68 
   1  10   5   -0.02    0.73 
   1  10   5    1.50    0.72 
  -2 -10  -5   21.98    1.37 
  -2 -10  -5   22.82    1.24 
   2  10   5   20.04    1.32 
   2  10   5   20.57    1.60 
   2  10   5   20.49    1.47 
   2  10   5   22.30    1.29 
   2  10   5   23.56    1.69 
  -3 -10  -5    0.85    0.67 
  -3 -10  -5    0.31    0.66 
   3  10   5    0.46    0.54 
   3  10   5    1.19    0.84 
   3  10   5    0.92    0.81 
   3  10   5    0.08    0.62 
   3  10   5    0.66    0.52 
  -4 -10  -5   56.01    2.23 
   4  10   5   53.94    1.80 
   4  10   5   55.03    2.61 
   4  10   5   54.74    1.82 
   4  10   5   58.08    2.51 
   4  10   5   54.99    2.00 
  -5 -10  -5  168.57    4.92 
   5  10   5  182.58    6.47 
   5  10   5  178.90    5.44 
   5  10   5  171.71    4.57 
   5  10   5  170.79    4.46 
  -6 -10  -5   78.08    2.89 
   6  10   5   84.24    2.37 
   6  10   5   83.72    2.35 
   6  10   5   78.87    3.44 
  -7 -10  -5   76.49    3.35 
   7  10   5   83.49    3.57 
  -8 -10  -5   34.65    2.10 
   8  10   5   36.45    2.58 
   8  10   5   39.38    2.88 
  -9 -10  -5   24.88    2.01 
   9  10   5   27.96    2.92 
 -10 -10  -5    3.25    1.19 
  10  10   5    4.05    1.58 
 -11 -10  -5    1.59    1.24 
  11  10   5   -2.60    1.83 
   9 -11  -5   44.45    2.75 
  -9  11   5   35.14    3.37 
   8 -11  -5   46.48    2.68 
  -8  11   5   45.41    3.32 
   7 -11  -5   11.95    1.38 
  -7  11   5    8.41    1.73 
   6 -11  -5    0.35    0.82 
  -6  11   5   -0.92    1.23 
  -6  11   5   -0.69    1.06 
   5 -11  -5    8.75    1.10 
  -5  11   5    7.62    1.35 
   4 -11  -5    6.55    0.97 
  -4  11   5    5.28    1.15 
  -4  11   5    7.61    1.31 
  -4  11   5    7.15    1.16 
   3 -11  -5   14.79    1.37 
  -3  11   5   13.64    1.63 
  -3  11   5   14.79    1.86 
  -3  11   5   15.10    1.36 
  -3  11   5   11.49    1.55 
  -3  11   5   13.99    1.03 
   2 -11  -5    9.41    0.98 
  -2  11   5   10.39    1.15 
  -2  11   5    9.08    1.03 
  -2  11   5   11.88    1.30 
  -2  11   5   10.79    1.33 
  -2  11   5    9.12    1.07 
   1 -11  -5    2.06    0.68 
  -1  11   5    0.45    0.67 
  -1  11   5   -0.10    0.76 
  -1  11   5    0.18    0.68 
  -1  11   5    1.80    0.79 
  -1  11   5    0.22    0.85 
   0 -11  -5   16.92    1.39 
   0  11   5   17.11    1.48 
   0  11   5   20.95    1.41 
   0  11   5   15.31    1.59 
   0  11   5   18.91    1.51 
   0  11   5   17.82    1.51 
  -1 -11  -5   31.75    1.52 
  -1 -11  -5   31.10    1.71 
   1  11   5   31.47    1.86 
   1  11   5   33.08    1.84 
   1  11   5   31.32    1.89 
   1  11   5   32.76    1.71 
   1  11   5   32.18    1.67 
  -2 -11  -5  111.42    3.50 
  -2 -11  -5  116.53    3.25 
   2  11   5  111.05    3.77 
   2  11   5  114.24    3.34 
   2  11   5  114.47    3.76 
   2  11   5  113.62    3.54 
   2  11   5  111.88    3.36 
  -3 -11  -5  118.12    3.65 
  -3 -11  -5  118.56    3.32 
   3  11   5  122.27    4.02 
   3  11   5  115.88    3.32 
   3  11   5  116.21    3.95 
   3  11   5  118.87    3.39 
  -4 -11  -5  171.35    5.01 
   4  11   5  173.41    5.33 
   4  11   5  174.87    4.63 
   4  11   5  181.05    5.44 
   4  11   5  177.29    4.79 
   4  11   5  177.34    4.54 
  -5 -11  -5   52.24    2.92 
   5  11   5   62.56    2.90 
   5  11   5   65.00    2.20 
   5  11   5   68.24    3.07 
   5  11   5   59.52    2.01 
  -6 -11  -5   14.88    1.65 
   6  11   5   17.05    2.28 
  -7 -11  -5    7.71    1.16 
   7  11   5   10.02    1.61 
  -8 -11  -5   -0.45    0.95 
   8  11   5    1.66    1.35 
  -9 -11  -5    1.55    1.14 
   9  11   5    1.61    1.61 
 -10 -11  -5    9.28    1.62 
  10  11   5    8.24    1.99 
   8 -12  -5    0.99    1.08 
  -8  12   5    3.12    1.68 
   7 -12  -5    6.41    1.22 
  -7  12   5    8.78    1.68 
   6 -12  -5    7.36    1.19 
  -6  12   5    7.03    1.51 
   5 -12  -5    5.96    1.02 
  -5  12   5    6.24    1.37 
   4 -12  -5   18.85    1.64 
  -4  12   5   17.68    1.56 
  -4  12   5   13.23    1.79 
  -4  12   5   15.48    2.16 
  -4  12   5   19.03    2.18 
   3 -12  -5    1.19    0.77 
  -3  12   5    0.61    0.60 
  -3  12   5    1.04    0.81 
  -3  12   5   -0.92    1.04 
  -3  12   5    0.38    0.98 
  -3  12   5   -0.88    0.92 
   2 -12  -5   22.08    1.53 
  -2  12   5   20.54    1.98 
  -2  12   5   20.39    1.59 
  -2  12   5   18.49    1.44 
  -2  12   5   19.76    1.64 
   1 -12  -5   73.28    2.48 
  -1  12   5   70.21    2.55 
  -1  12   5   64.95    2.89 
  -1  12   5   68.22    2.58 
  -1  12   5   68.27    2.65 
  -1  12   5   72.23    2.78 
   0 -12  -5  124.38    3.66 
   0 -12  -5  119.95    3.82 
   0  12   5  125.19    3.88 
   0  12   5  123.55    3.95 
   0  12   5  125.36    3.75 
   0  12   5  125.61    4.07 
   0  12   5  125.85    3.90 
  -1 -12  -5   85.01    3.03 
   1  12   5   86.51    3.10 
   1  12   5   85.47    3.18 
   1  12   5   89.86    2.91 
   1  12   5   89.58    2.97 
   1  12   5   85.09    3.19 
  -2 -12  -5  125.85    4.11 
  -2 -12  -5  126.49    3.59 
   2  12   5  129.48    4.33 
   2  12   5  125.39    3.76 
   2  12   5  128.35    3.65 
   2  12   5  124.30    3.90 
   2  12   5  125.39    4.17 
  -3 -12  -5  106.89    3.05 
  -3 -12  -5   83.39    4.44 
   3  12   5  108.21    3.80 
   3  12   5  102.52    3.00 
   3  12   5  104.68    3.30 
   3  12   5  102.58    3.17 
   3  12   5  109.70    3.87 
  -4 -12  -5   64.46    2.62 
   4  12   5   64.08    3.11 
   4  12   5   66.07    2.96 
   4  12   5   60.78    2.68 
   4  12   5   60.35    2.23 
  -5 -12  -5    7.51    1.18 
   5  12   5   10.40    1.56 
   5  12   5    8.47    1.21 
   5  12   5   16.01    2.06 
   5  12   5    8.57    0.84 
   5  12   5    8.95    0.95 
  -6 -12  -5    2.73    1.03 
   6  12   5    2.03    1.39 
  -7 -12  -5    1.86    1.03 
   7  12   5    0.42    1.46 
  -8 -12  -5   10.46    1.44 
   8  12   5    9.66    1.93 
  -9 -12  -5    3.82    1.37 
   9  12   5    2.58    2.18 
   7 -13  -5    5.01    1.26 
  -7  13   5    2.12    1.67 
   6 -13  -5    0.97    0.98 
  -6  13   5    0.64    1.58 
   5 -13  -5    0.90    0.90 
  -5  13   5    0.48    1.34 
  -5  13   5    0.73    1.07 
   4 -13  -5   16.41    1.62 
  -4  13   5   19.71    1.96 
  -4  13   5   18.42    1.67 
  -4  13   5   19.02    2.39 
   3 -13  -5   52.11    2.30 
  -3  13   5   52.19    2.52 
  -3  13   5   53.21    2.07 
  -3  13   5   55.95    2.99 
  -3  13   5   53.93    2.84 
  -3  13   5   52.12    2.33 
   2 -13  -5   71.90    2.68 
  -2  13   5   78.51    3.14 
  -2  13   5   67.63    3.15 
  -2  13   5   73.93    3.23 
  -2  13   5   73.68    2.65 
  -2  13   5   78.69    2.88 
   1 -13  -5   99.06    3.15 
  -1  13   5   95.12    3.88 
  -1  13   5   93.70    3.64 
  -1  13   5   99.07    3.29 
  -1  13   5  101.99    3.46 
  -1  13   5   98.71    3.30 
   0 -13  -5   71.46    2.48 
   0 -13  -5   72.63    2.83 
   0  13   5   68.86    2.90 
   0  13   5   70.66    2.82 
   0  13   5   68.55    2.97 
   0  13   5   73.58    2.85 
   0  13   5   68.49    2.63 
  -1 -13  -5   37.02    1.81 
  -1 -13  -5   41.30    2.19 
   1  13   5   38.67    1.92 
   1  13   5   41.01    2.11 
   1  13   5   40.69    2.22 
   1  13   5   36.17    2.31 
  -2 -13  -5   16.11    1.64 
   2  13   5   15.35    1.37 
   2  13   5   14.79    1.71 
   2  13   5   15.76    2.03 
   2  13   5   15.95    1.61 
   2  13   5   16.48    2.03 
  -3 -13  -5    1.45    0.76 
  -3 -13  -5    0.38    0.81 
   3  13   5    1.98    0.95 
   3  13   5    0.38    1.20 
   3  13   5    1.39    1.15 
   3  13   5   -0.41    0.78 
  -4 -13  -5    3.46    1.02 
   4  13   5    2.25    0.65 
   4  13   5    2.13    0.84 
   4  13   5    3.82    0.89 
   4  13   5    3.19    1.29 
  -5 -13  -5    4.06    1.13 
   5  13   5    6.06    0.83 
   5  13   5    3.36    1.47 
   5  13   5    4.73    0.86 
  -6 -13  -5    8.18    1.32 
   6  13   5    6.47    1.69 
  -7 -13  -5    2.49    1.20 
   7  13   5    0.27    1.57 
   6 -14  -5   27.74    2.23 
  -6  14   5   27.86    2.76 
  -6  14   5   29.72    3.20 
   5 -14  -5   54.91    2.61 
  -5  14   5   57.33    3.46 
  -5  14   5   54.75    2.97 
   4 -14  -5   94.73    3.39 
  -4  14   5  101.93    4.13 
  -4  14   5   95.58    3.35 
  -4  14   5   92.34    3.66 
   3 -14  -5   83.43    3.06 
  -3  14   5   82.83    3.28 
  -3  14   5   86.95    3.19 
  -3  14   5   89.00    3.73 
  -3  14   5   85.56    2.86 
   2 -14  -5   80.04    2.90 
  -2  14   5   83.15    2.98 
  -2  14   5   83.30    3.45 
  -2  14   5   74.69    3.03 
  -2  14   5   80.89    3.15 
   1 -14  -5   28.81    1.78 
  -1  14   5   27.14    1.92 
  -1  14   5   25.79    2.27 
  -1  14   5   31.07    2.16 
  -1  14   5   28.40    2.28 
  -1  14   5   26.16    2.03 
   0 -14  -5    7.58    1.00 
   0  14   5   10.43    1.43 
   0  14   5    5.40    1.23 
   0  14   5    8.24    1.30 
   0  14   5    6.60    1.35 
   0  14   5    8.23    1.14 
  -1 -14  -5    2.10    0.83 
  -1 -14  -5    3.69    1.06 
   1  14   5    2.84    1.17 
   1  14   5    1.94    1.23 
   1  14   5    5.39    1.26 
   1  14   5    3.43    0.89 
   1  14   5    2.68    1.13 
  -2 -14  -5    8.37    1.01 
  -2 -14  -5    9.01    1.34 
   2  14   5   10.17    1.39 
   2  14   5    8.16    0.93 
   2  14   5    7.62    1.49 
   2  14   5    9.40    1.26 
  -3 -14  -5   15.91    1.59 
  -3 -14  -5   17.00    1.45 
   3  14   5   18.41    1.85 
   3  14   5   18.17    1.91 
   3  14   5   17.41    1.81 
  -4 -14  -5    4.49    1.12 
   4  14   5    5.00    1.08 
   4  14   5    5.15    1.02 
   4  14   5    3.35    1.49 
  -5 -14  -5    3.53    1.08 
   5  14   5    0.72    1.53 
  -6 -14  -5   -0.54    1.06 
   6  14   5   -2.99    1.52 
   4 -15  -5   48.25    2.41 
  -4  15   5   43.64    3.29 
  -4  15   5   39.42    2.75 
   3 -15  -5   20.48    1.81 
  -3  15   5   20.66    2.08 
  -3  15   5   17.63    2.05 
  -3  15   5   21.68    2.18 
   2 -15  -5    8.41    1.16 
  -2  15   5   11.32    1.66 
  -2  15   5   11.51    1.33 
  -2  15   5   10.73    1.33 
  -2  15   5   13.13    1.53 
   1 -15  -5    1.21    0.89 
  -1  15   5    2.26    1.87 
  -1  15   5    1.70    1.28 
  -1  15   5    4.33    1.40 
  -1  15   5    2.13    1.16 
   0 -15  -5    3.42    0.99 
   0  15   5    0.61    1.29 
   0  15   5    3.37    1.09 
   0  15   5    1.89    1.26 
  -1 -15  -5   16.99    1.65 
  -1 -15  -5   19.10    2.06 
   1  15   5   17.07    1.76 
   1  15   5   17.58    2.19 
   1  15   5   15.94    1.67 
   1  15   5   23.39    1.70 
  -2 -15  -5    4.51    1.21 
  -2 -15  -5    2.75    0.90 
   2  15   5    2.71    1.21 
   2  15   5    2.16    1.41 
   2  15   5    3.57    1.28 
  -3 -15  -5   -0.68    1.05 
   3  15   5   -1.42    1.49 
   3  15   5   -1.66    1.08 
  -2  11  -6   -0.98    1.66 
   2 -11   6   -1.49    1.67 
  -3  11  -6    1.65    1.64 
   3 -11   6    3.69    1.77 
  -4  11  -6    3.23    1.64 
   4 -11   6    2.50    1.74 
  -5  11  -6    4.88    1.66 
   5 -11   6   10.29    1.86 
   5 -11   6    9.16    1.03 
  -6  11  -6   10.55    1.75 
   6 -11   6    9.38    1.90 
   1  10  -6    6.53    1.79 
  -1 -10   6    4.59    1.16 
  -1 -10   6    7.57    1.70 
   0  10  -6   -1.26    1.49 
   0 -10   6    0.57    1.49 
  -1  10  -6   -2.12    1.47 
   1 -10   6    0.21    1.42 
  -2  10  -6    8.92    1.71 
   2 -10   6    7.91    1.73 
  -3  10  -6    2.50    1.46 
  -3  10  -6    4.66    0.91 
   3 -10   6    5.47    1.69 
  -4  10  -6    4.42    1.01 
  -4  10  -6    4.40    1.47 
   4 -10   6    4.09    1.62 
   4 -10   6    5.92    0.82 
  -5  10  -6    3.03    1.06 
  -5  10  -6    3.99    1.37 
   5 -10   6    3.08    0.83 
   5 -10   6    2.20    1.67 
   5 -10   6    3.24    1.53 
  -6  10  -6   15.27    1.50 
  -6  10  -6   19.12    2.53 
   6 -10   6   17.49    2.13 
   6 -10   6   15.41    1.81 
   6 -10   6   18.19    1.66 
  -7  10  -6   26.73    2.66 
  -7  10  -6   20.60    2.35 
   7 -10   6   27.69    1.94 
   7 -10   6   29.66    3.00 
   7 -10   6   29.27    3.00 
  -8  10  -6   47.99    2.96 
  -8  10  -6   51.30    3.07 
   8 -10   6   51.20    3.41 
   8 -10   6   49.53    2.52 
   8 -10   6   47.93    3.43 
   9 -10   6   67.35    3.94 
   3   9  -6    1.91    1.63 
  -3  -9   6    6.78    1.42 
  -3  -9   6    4.15    1.21 
   2   9  -6   -0.22    1.56 
  -2  -9   6   -0.15    1.27 
   1   9  -6   -2.32    1.42 
  -1  -9   6   -0.11    0.87 
  -1  -9   6    0.24    1.21 
   0   9  -6    8.25    1.61 
   0  -9   6    7.36    1.45 
  -1   9  -6    3.65    1.43 
   1  -9   6    3.48    1.32 
  -2   9  -6    0.86    1.27 
  -2   9  -6   -0.14    0.66 
   2  -9   6   -1.67    1.14 
   2  -9   6    0.70    1.32 
  -3   9  -6    2.23    0.85 
  -3   9  -6    0.80    1.22 
   3  -9   6    1.69    1.24 
   3  -9   6    3.74    1.30 
   3  -9   6    3.09    0.64 
  -4   9  -6   12.94    1.59 
  -4   9  -6   12.62    1.72 
   4  -9   6   13.12    1.65 
   4  -9   6   10.21    1.55 
   4  -9   6   13.53    1.25 
  -5   9  -6   74.28    2.94 
  -5   9  -6   81.65    3.53 
   5  -9   6   81.64    2.72 
   5  -9   6   85.71    3.71 
  -6   9  -6   72.97    3.26 
  -6   9  -6   71.17    2.92 
   6  -9   6   81.36    3.65 
   6  -9   6   73.41    2.72 
  -7   9  -6   63.39    2.94 
  -7   9  -6   70.57    3.13 
   7  -9   6   65.12    2.68 
   7  -9   6   69.20    3.50 
  -8   9  -6   55.82    2.86 
   8  -9   6   44.31    2.45 
   8  -9   6   54.97    3.28 
   9  -9   6   53.71    2.77 
   9  -9   6   65.09    3.48 
 -10   9  -6   31.94    3.46 
  10  -9   6   24.93    2.91 
  10  -9   6   30.14    2.33 
   5   8  -6   -3.29    2.72 
  -5  -8   6    0.73    1.14 
   4   8  -6   -1.50    1.61 
  -4  -8   6    4.84    1.15 
   3   8  -6    4.06    1.67 
  -3  -8   6    4.94    0.99 
  -3  -8   6    4.59    1.22 
   2   8  -6   15.28    1.97 
   2   8  -6   13.76    1.88 
  -2  -8   6   13.35    1.76 
  -2  -8   6   12.85    1.45 
   1   8  -6    4.03    1.08 
   1   8  -6    1.64    1.36 
  -1  -8   6    3.03    1.36 
  -1  -8   6    3.09    0.81 
   0   8  -6   -1.15    1.16 
   0   8  -6   -0.01    0.91 
   0  -8   6    1.04    0.74 
   0  -8   6    1.83    1.15 
   0  -8   6   -0.42    1.02 
  -1   8  -6   10.30    1.51 
  -1   8  -6   15.57    1.79 
   1  -8   6    9.33    1.39 
   1  -8   6   14.18    1.54 
  -2   8  -6   30.02    2.44 
  -2   8  -6   28.10    1.54 
   2  -8   6   28.04    2.23 
   2  -8   6   28.24    1.18 
  -3   8  -6   47.01    2.75 
  -3   8  -6   48.09    2.09 
   3  -8   6   50.40    1.76 
   3  -8   6   49.41    2.72 
  -4   8  -6   83.81    3.43 
  -4   8  -6   79.86    3.25 
   4  -8   6   90.97    2.75 
   4  -8   6   92.70    3.59 
  -5   8  -6   72.58    3.16 
  -5   8  -6   70.85    2.68 
   5  -8   6   76.16    3.25 
  -6   8  -6   50.99    2.61 
  -6   8  -6   46.14    2.26 
   6  -8   6   44.56    2.13 
   6  -8   6   51.54    2.79 
   6  -8   6   48.21    2.76 
  -7   8  -6   33.06    2.32 
  -7   8  -6   31.05    2.15 
   7  -8   6   34.20    2.45 
   7  -8   6   25.91    1.88 
   7  -8   6   33.19    2.51 
  -8   8  -6    0.22    1.11 
   8  -8   6    2.06    0.94 
   8  -8   6    1.51    1.23 
   8  -8   6   -2.15    1.09 
  -9   8  -6    4.25    1.28 
   9  -8   6    6.75    1.52 
   9  -8   6    5.55    1.34 
   9  -8   6    4.75    1.15 
 -10   8  -6   25.44    3.14 
  10  -8   6   22.32    2.59 
  10  -8   6   25.01    2.13 
  10  -8   6   20.67    2.63 
 -11   8  -6   13.57    2.12 
  11  -8   6   14.00    1.60 
  11  -8   6    7.85    1.57 
  11  -8   6   13.04    1.88 
   6   7  -6   -2.04    1.74 
  -6  -7   6    1.06    1.14 
   5   7  -6    5.10    1.83 
  -5  -7   6    7.95    1.15 
  -5  -7   6    9.54    1.17 
   4   7  -6   11.12    1.41 
   4   7  -6    8.36    1.81 
  -4  -7   6    9.91    1.13 
  -4  -7   6    9.05    1.26 
   3   7  -6    2.11    1.34 
   3   7  -6    0.48    1.05 
  -3  -7   6    1.33    0.78 
  -3  -7   6   -0.77    0.97 
   2   7  -6   -0.28    0.95 
   2   7  -6    3.08    1.21 
  -2  -7   6   -1.19    1.05 
  -2  -7   6    2.25    0.78 
  -2  -7   6    0.47    1.01 
   1   7  -6   10.24    1.17 
   1   7  -6   12.63    1.55 
  -1  -7   6    9.57    1.32 
  -1  -7   6   12.81    1.25 
   0   7  -6   56.41    2.46 
   0   7  -6   57.19    2.93 
   0  -7   6   55.76    2.09 
   0  -7   6   55.24    2.62 
  -1   7  -6   93.08    3.20 
  -1   7  -6   90.63    2.69 
  -1   7  -6   91.85    3.59 
   1  -7   6   94.73    3.54 
  -2   7  -6  123.54    4.25 
  -2   7  -6  118.39    3.53 
   2  -7   6  125.89    5.01 
   2  -7   6  127.73    3.29 
  -3   7  -6  155.87    4.44 
  -3   7  -6  156.71    4.99 
   3  -7   6  155.12    4.97 
   3  -7   6  164.31    5.00 
   3  -7   6  168.33    4.28 
  -4   7  -6  154.53    5.28 
  -4   7  -6  156.84    4.82 
   4  -7   6  160.58    4.97 
   4  -7   6  161.18    4.38 
   4  -7   6  166.07    5.01 
  -5   7  -6    9.71    1.01 
   5  -7   6   14.89    1.79 
   5  -7   6   11.53    1.28 
   5  -7   6   12.78    1.36 
  -6   7  -6    5.37    1.10 
  -6   7  -6    4.42    0.93 
   6  -7   6    6.03    1.10 
   6  -7   6    5.62    0.95 
   6  -7   6    7.43    1.29 
  -7   7  -6    3.88    1.01 
  -7   7  -6    1.17    0.97 
   7  -7   6    4.68    1.21 
   7  -7   6    2.75    0.88 
   7  -7   6    4.17    1.12 
  -8   7  -6   15.44    1.91 
   8  -7   6   15.14    2.06 
   8  -7   6   14.29    1.66 
   8  -7   6   17.59    2.01 
  -9   7  -6   -1.56    1.07 
   9  -7   6    0.67    1.06 
   9  -7   6   -0.49    1.09 
   9  -7   6    0.73    0.95 
 -10   7  -6   22.15    2.99 
 -10   7  -6   22.60    2.87 
  10  -7   6   23.63    2.34 
  10  -7   6   20.49    2.46 
  10  -7   6   19.47    1.98 
 -11   7  -6    4.37    1.83 
  11  -7   6    6.63    1.22 
  11  -7   6    5.85    1.45 
  11  -7   6    1.76    1.34 
 -12   7  -6   -1.52    1.75 
  12  -7   6    0.10    1.59 
  12  -7   6    1.44    1.53 
  12  -7   6    3.50    1.21 
   7   6  -6    3.43    1.82 
  -7  -6   6    6.00    1.29 
   6   6  -6    2.34    1.67 
  -6  -6   6    2.75    0.89 
  -6  -6   6    2.33    1.07 
   5   6  -6    0.79    1.09 
  -5  -6   6   -0.48    0.81 
  -5  -6   6    0.77    0.86 
   4   6  -6    2.65    1.07 
   4   6  -6    1.13    1.39 
  -4  -6   6    4.09    0.89 
  -4  -6   6    5.08    1.66 
  -4  -6   6    5.09    1.00 
   3   6  -6   24.48    2.01 
   3   6  -6   23.30    2.55 
  -3  -6   6   18.26    1.76 
  -3  -6   6   26.05    1.52 
   2   6  -6   45.29    2.25 
   2   6  -6   49.63    2.76 
  -2  -6   6   34.68    2.06 
  -2  -6   6   45.31    1.82 
   1   6  -6   59.87    2.46 
   1   6  -6   62.19    3.01 
  -1  -6   6   55.45    2.49 
  -1  -6   6   63.52    2.15 
   0   6  -6  109.82    2.97 
   0   6  -6  108.21    3.53 
   0   6  -6  111.18    3.92 
   0  -6   6  107.99    3.62 
   0  -6   6  114.51    3.21 
  -1   6  -6  126.86    3.87 
  -1   6  -6  121.85    3.50 
  -1   6  -6  130.51    4.46 
   1  -6   6  132.40    4.07 
   1  -6   6  128.53    4.22 
  -2   6  -6   68.78    2.28 
  -2   6  -6   66.16    2.94 
   2  -6   6   71.54    2.79 
   2  -6   6   69.97    2.87 
  -3   6  -6    0.06    0.65 
  -3   6  -6    0.28    0.83 
   3  -6   6    0.30    0.84 
   3  -6   6    1.28    0.83 
  -4   6  -6    5.87    0.80 
  -4   6  -6    5.79    1.02 
   4  -6   6    4.96    1.09 
   4  -6   6    4.60    0.92 
  -5   6  -6    0.81    0.68 
  -5   6  -6    0.13    0.84 
   5  -6   6    1.96    0.86 
   5  -6   6    0.68    1.02 
  -6   6  -6    2.34    0.79 
  -6   6  -6    3.48    0.92 
   6  -6   6    2.99    0.92 
   6  -6   6    3.79    0.95 
  -7   6  -6   25.18    1.83 
  -7   6  -6   21.08    1.86 
   7  -6   6   26.58    1.96 
   7  -6   6   25.67    1.90 
   7  -6   6   26.11    1.69 
  -8   6  -6    3.99    1.02 
   8  -6   6    5.18    1.15 
   8  -6   6    5.74    1.07 
   8  -6   6    5.28    1.01 
  -9   6  -6   -0.26    1.02 
   9  -6   6    1.51    1.08 
   9  -6   6    1.08    0.96 
   9  -6   6    1.55    0.90 
 -10   6  -6    2.71    1.24 
 -10   6  -6    3.89    1.44 
  10  -6   6    4.00    1.08 
  10  -6   6    2.17    0.98 
  10  -6   6    5.13    1.27 
 -11   6  -6   35.06    3.14 
  11  -6   6   29.18    2.14 
  11  -6   6   33.50    2.61 
  11  -6   6   33.71    2.32 
 -12   6  -6   37.59    3.36 
  12  -6   6   43.93    2.49 
  12  -6   6   38.97    2.65 
  12  -6   6   42.75    3.01 
 -13   6  -6   58.45    3.80 
  13  -6   6   60.12    2.98 
  13  -6   6   61.44    3.52 
   8   5  -6   -2.88    1.71 
  -8  -5   6   -2.07    1.19 
   7   5  -6    1.36    1.67 
  -7  -5   6    3.19    1.07 
   6   5  -6   11.79    1.84 
   6   5  -6   10.06    1.42 
  -6  -5   6   14.08    1.52 
   5   5  -6   59.01    2.83 
   5   5  -6   53.97    3.33 
  -5  -5   6   55.34    3.29 
  -5  -5   6   56.92    2.24 
   4   5  -6  140.19    4.84 
   4   5  -6  130.09    4.28 
  -4  -5   6  136.99    3.91 
  -4  -5   6  132.49    4.75 
   3   5  -6  148.70    4.46 
   3   5  -6  151.81    4.95 
  -3  -5   6  142.58    4.80 
  -3  -5   6  140.61    4.03 
   2   5  -6  112.88    3.56 
   2   5  -6  109.46    3.94 
  -2  -5   6  109.74    3.17 
  -2  -5   6  109.10    4.15 
   1   5  -6   89.10    4.20 
   1   5  -6   89.80    3.01 
  -1  -5   6   88.70    2.67 
   0   5  -6   86.50    2.58 
   0   5  -6   94.48    3.04 
   0   5  -6   93.19    3.37 
   0  -5   6   94.62    2.71 
   0  -5   6   89.32    3.29 
   0  -5   6   95.67    2.62 
  -1   5  -6   29.91    1.61 
  -1   5  -6   29.94    1.99 
  -1   5  -6   27.12    1.34 
   1  -5   6   27.71    1.90 
   1  -5   6   29.79    1.30 
  -2   5  -6    2.36    0.87 
  -2   5  -6    3.93    0.65 
   2  -5   6    2.30    0.85 
   2  -5   6    1.92    0.82 
  -3   5  -6    1.63    0.81 
  -3   5  -6    1.19    0.61 
   3  -5   6    3.11    0.79 
   3  -5   6    1.30    0.77 
  -4   5  -6    6.82    0.96 
  -4   5  -6    5.62    0.78 
   4  -5   6    5.77    0.93 
   4  -5   6    6.98    1.00 
  -5   5  -6   36.00    1.95 
   5  -5   6   35.05    2.00 
   5  -5   6   38.08    1.98 
  -6   5  -6    2.03    0.82 
  -6   5  -6    1.26    0.75 
   6  -5   6    2.06    0.85 
   6  -5   6    2.36    0.82 
  -7   5  -6    3.06    0.81 
  -7   5  -6    1.77    0.54 
   7  -5   6    3.08    1.08 
   7  -5   6    2.10    0.79 
  -8   5  -6   32.29    2.07 
   8  -5   6   35.51    2.01 
   8  -5   6   35.29    2.10 
  -9   5  -6   77.69    3.18 
   9  -5   6   82.56    3.04 
   9  -5   6   82.42    3.21 
 -10   5  -6   96.03    3.81 
 -10   5  -6   88.43    3.56 
  10  -5   6   88.09    3.51 
  10  -5   6   94.07    3.28 
  10  -5   6   88.08    3.26 
 -11   5  -6   93.37    4.37 
 -11   5  -6  100.23    4.01 
  11  -5   6   87.74    3.36 
  11  -5   6   92.47    3.46 
  11  -5   6   93.64    3.69 
 -12   5  -6   87.98    3.84 
  12  -5   6   87.16    3.66 
  12  -5   6   79.43    3.29 
  12  -5   6   81.91    3.38 
 -13   5  -6   64.72    3.71 
  13  -5   6   75.27    3.53 
  13  -5   6   69.62    3.11 
  13  -5   6   61.50    3.13 
   8   4  -6   12.70    2.00 
  -8  -4   6    6.84    1.18 
   7   4  -6   38.41    3.28 
   7   4  -6   38.04    2.69 
  -7  -4   6   37.79    2.03 
  -7  -4   6   39.64    2.00 
   6   4  -6   82.62    3.44 
   6   4  -6   88.30    3.94 
  -6  -4   6   88.78    3.86 
  -6  -4   6   81.18    2.82 
   5   4  -6  148.76    4.99 
   5   4  -6  142.01    4.55 
  -5  -4   6  139.02    4.08 
  -5  -4   6  146.15    4.94 
   4   4  -6  136.23    4.69 
   4   4  -6  135.60    4.26 
  -4  -4   6  138.02    4.63 
  -4  -4   6  138.97    3.87 
   3   4  -6   59.10    2.44 
   3   4  -6   60.07    2.90 
  -3  -4   6   59.22    2.79 
  -3  -4   6   58.95    2.05 
  -3  -4   6   59.60    1.89 
   2   4  -6   60.75    2.37 
   2   4  -6   66.61    2.78 
  -2  -4   6   60.56    2.00 
  -2  -4   6   62.06    1.89 
  -2  -4   6   59.55    2.64 
   1   4  -6   22.90    1.86 
   1   4  -6   20.68    1.45 
  -1  -4   6   20.41    1.10 
  -1  -4   6   23.64    1.77 
  -1  -4   6   21.21    1.06 
   0   4  -6    0.21    0.59 
   0   4  -6    0.38    0.44 
   0   4  -6    0.29    0.77 
   0  -4   6    0.63    0.44 
   0  -4   6    0.63    0.70 
   0  -4   6    0.36    0.49 
  -1   4  -6   14.56    1.20 
  -1   4  -6   12.85    1.51 
  -1   4  -6   15.96    1.08 
   1  -4   6   16.36    0.98 
   1  -4   6   14.00    1.46 
  -2   4  -6   50.61    1.86 
  -2   4  -6   52.40    2.24 
   2  -4   6   55.71    1.81 
   2  -4   6   50.81    2.20 
  -3   4  -6    0.65    0.64 
  -3   4  -6    0.70    0.66 
   3  -4   6    1.07    0.52 
   3  -4   6    1.19    0.68 
  -4   4  -6    0.22    0.53 
  -4   4  -6   -0.04    0.65 
   4  -4   6    0.57    0.62 
   4  -4   6    0.83    0.66 
  -5   4  -6   -0.13    0.55 
  -5   4  -6    0.40    0.64 
   5  -4   6    0.71    0.66 
   5  -4   6   -0.37    0.63 
  -6   4  -6   18.32    1.40 
  -6   4  -6   15.87    1.47 
   6  -4   6   19.05    1.52 
   6  -4   6   17.66    1.49 
  -7   4  -6   69.07    2.01 
  -7   4  -6   69.97    2.59 
   7  -4   6   69.91    2.68 
   7  -4   6   70.81    2.57 
  -8   4  -6  134.62    4.20 
   8  -4   6  133.69    4.19 
   8  -4   6  139.92    4.12 
  -9   4  -6  151.65    4.70 
   9  -4   6  146.36    4.67 
   9  -4   6  157.31    4.55 
 -10   4  -6  100.23    3.70 
 -10   4  -6  101.70    3.89 
  10  -4   6  102.10    3.47 
  10  -4   6  105.51    3.67 
 -11   4  -6   55.85    2.91 
 -11   4  -6   63.59    3.12 
  11  -4   6   65.12    2.74 
  11  -4   6   59.56    2.60 
  11  -4   6   64.92    2.91 
 -12   4  -6   18.00    1.84 
  12  -4   6   18.03    1.82 
  12  -4   6   17.95    2.17 
  12  -4   6   19.21    2.06 
 -13   4  -6    5.66    1.69 
  13  -4   6    3.99    1.14 
  13  -4   6    7.55    1.37 
  13  -4   6    8.59    1.47 
 -14   4  -6    0.71    1.81 
  14  -4   6    1.54    1.12 
  14  -4   6    3.11    1.55 
   9   3  -6   36.40    3.61 
  -9  -3   6   41.72    2.42 
  -9  -3   6   44.81    2.64 
  -9  -3   6   43.72    2.99 
   8   3  -6   77.37    3.97 
  -8  -3   6   78.04    3.17 
  -8  -3   6   74.64    3.36 
  -8  -3   6   78.97    2.86 
   7   3  -6   87.29    2.90 
   7   3  -6   72.57    3.59 
   7   3  -6   66.50    3.29 
  -7  -3   6   74.72    2.65 
  -7  -3   6   72.99    3.11 
  -7  -3   6   74.59    3.57 
  -7  -3   6   74.38    2.90 
   6   3  -6   84.80    3.60 
   6   3  -6   76.36    3.22 
   6   3  -6   81.03    2.31 
  -6  -3   6   76.93    3.54 
  -6  -3   6   77.19    2.65 
  -6  -3   6   79.22    2.79 
   5   3  -6   50.72    2.75 
   5   3  -6   46.30    1.55 
   5   3  -6   47.10    2.35 
  -5  -3   6   47.12    2.02 
  -5  -3   6   49.39    2.70 
  -5  -3   6   45.52    1.87 
   4   3  -6   22.72    1.75 
   4   3  -6   22.88    2.43 
  -4  -3   6   21.58    1.40 
  -4  -3   6   19.15    2.01 
  -4  -3   6   24.91    1.28 
   3   3  -6    0.66    0.74 
   3   3  -6    1.00    0.88 
  -3  -3   6    0.93    0.59 
  -3  -3   6    1.39    0.58 
  -3  -3   6    1.26    0.83 
   2   3  -6    1.46    0.81 
   2   3  -6    0.98    0.65 
  -2  -3   6    1.28    0.76 
  -2  -3   6    0.61    0.49 
  -2  -3   6    0.16    0.52 
   1   3  -6   11.07    0.90 
   1   3  -6   12.93    1.52 
   1   3  -6   14.57    1.19 
  -1  -3   6   13.41    0.92 
  -1  -3   6   11.57    1.45 
   0   3  -6   14.85    1.16 
   0   3  -6   14.34    0.95 
   0   3  -6   16.62    1.46 
   0  -3   6   15.37    0.85 
   0  -3   6   16.56    1.43 
   0  -3   6   15.91    0.93 
  -1   3  -6   42.68    1.59 
  -1   3  -6   44.43    1.96 
   1  -3   6   44.10    1.50 
   1  -3   6   34.43    2.78 
  -2   3  -6    1.58    0.53 
  -2   3  -6    1.36    0.64 
   2  -3   6    1.53    0.46 
   2  -3   6    0.87    0.59 
  -3   3  -6   41.70    1.83 
  -3   3  -6   39.14    1.87 
   3  -3   6   40.77    1.82 
   3  -3   6   42.45    1.55 
  -4   3  -6   67.34    2.20 
  -4   3  -6   65.82    2.36 
   4  -3   6   66.14    2.36 
   4  -3   6   66.59    2.16 
  -5   3  -6  185.32    5.04 
  -5   3  -6  181.17    4.93 
   5  -3   6  184.66    5.05 
   5  -3   6  185.62    4.92 
   5  -3   6  185.26    5.04 
  -6   3  -6  116.26    3.73 
  -6   3  -6  117.44    3.18 
   6  -3   6  122.15    3.60 
   6  -3   6  120.05    3.57 
  -7   3  -6  194.98    5.25 
  -7   3  -6  187.48    4.72 
   7  -3   6  179.44    5.51 
   7  -3   6  192.61    5.30 
  -8   3  -6  155.09    4.51 
   8  -3   6  143.64    4.64 
   8  -3   6  152.41    4.45 
  -9   3  -6   56.38    2.53 
   9  -3   6   52.33    2.34 
   9  -3   6   52.97    2.26 
 -10   3  -6    9.34    1.35 
  10  -3   6   11.45    1.55 
  10  -3   6    9.83    1.47 
 -11   3  -6    6.45    1.27 
  11  -3   6    5.54    1.02 
  11  -3   6    4.72    1.07 
 -12   3  -6   -1.05    1.21 
  12  -3   6    0.09    0.86 
  12  -3   6    0.00    0.91 
  12  -3   6   -0.93    0.97 
 -13   3  -6    4.06    1.49 
  13  -3   6    6.12    1.31 
  13  -3   6    5.27    1.19 
  13  -3   6    4.79    1.18 
 -14   3  -6    2.91    1.74 
  14  -3   6    3.21    1.45 
  14  -3   6    1.89    1.49 
  14  -3   6    1.46    1.10 
   9   2  -6   54.02    3.53 
  -9  -2   6   59.78    3.03 
  -9  -2   6   54.86    3.10 
   8   2  -6   53.47    3.02 
   8   2  -6   55.61    3.25 
   8   2  -6   58.46    2.17 
  -8  -2   6   55.53    2.29 
  -8  -2   6   59.19    2.75 
  -8  -2   6   61.49    2.94 
   7   2  -6   38.91    2.72 
   7   2  -6   37.16    2.53 
  -7  -2   6   37.44    2.35 
  -7  -2   6   39.08    2.70 
  -7  -2   6   39.80    2.18 
   6   2  -6    5.44    1.15 
   6   2  -6    6.52    1.29 
   6   2  -6    9.45    1.13 
  -6  -2   6    5.64    1.05 
  -6  -2   6    5.38    1.23 
  -6  -2   6    5.53    0.97 
   5   2  -6    0.83    0.88 
   5   2  -6    0.85    0.55 
   5   2  -6    0.10    0.95 
  -5  -2   6   -0.71    0.73 
  -5  -2   6   -0.76    0.59 
  -5  -2   6   -1.86    0.86 
   4   2  -6    0.67    0.50 
   4   2  -6   -0.36    0.72 
   4   2  -6    0.30    0.84 
  -4  -2   6    0.86    0.73 
  -4  -2   6    1.29    0.86 
  -4  -2   6    2.08    0.59 
  -4  -2   6   -0.34    0.65 
   3   2  -6    2.45    0.83 
   3   2  -6    2.76    0.76 
   3   2  -6    3.30    0.49 
  -3  -2   6    2.61    0.65 
  -3  -2   6    2.34    0.79 
  -3  -2   6    2.10    0.54 
  -3  -2   6    2.91    0.73 
   2   2  -6    3.59    0.47 
   2   2  -6    2.39    0.67 
   2   2  -6    2.33    0.76 
  -2  -2   6    3.02    0.60 
  -2  -2   6    1.95    0.74 
  -2  -2   6    2.98    0.48 
   1   2  -6    0.27    0.61 
   1   2  -6    0.32    0.42 
   1   2  -6   -0.07    0.91 
  -1  -2   6    0.05    0.37 
  -1  -2   6    0.91    0.49 
  -1  -2   6    0.87    0.74 
   0   2  -6   41.50    1.86 
   0   2  -6   39.25    1.47 
   0   2  -6   40.54    1.62 
   0  -2   6   41.31    1.49 
   0  -2   6   42.10    1.27 
   0  -2   6   40.70    1.83 
  -1   2  -6   11.27    1.20 
  -1   2  -6    9.02    0.94 
  -1   2  -6   10.58    0.95 
   1  -2   6   10.04    0.84 
   1  -2   6   11.17    1.15 
  -2   2  -6  288.22    7.24 
  -2   2  -6  287.02    7.38 
   2  -2   6  286.53    7.40 
   2  -2   6  291.15    7.15 
  -3   2  -6  203.86    5.35 
  -3   2  -6  204.42    5.44 
   3  -2   6  203.63    5.25 
   3  -2   6  207.78    5.47 
  -4   2  -6  277.79    7.03 
  -4   2  -6  277.05    7.13 
   4  -2   6  282.22    7.00 
   4  -2   6  275.57    7.13 
  -5   2  -6  290.90    7.42 
  -5   2  -6  295.66    7.49 
  -5   2  -6  294.05    7.24 
   5  -2   6  293.12    7.50 
   5  -2   6  293.48    7.40 
  -6   2  -6   86.14    2.43 
  -6   2  -6   87.03    2.82 
   6  -2   6   88.33    2.73 
   6  -2   6   88.00    2.78 
   6  -2   6   88.66    2.80 
  -7   2  -6   81.52    2.32 
  -7   2  -6   86.68    2.81 
   7  -2   6   83.28    2.75 
   7  -2   6   85.18    2.76 
  -8   2  -6    8.74    0.99 
  -8   2  -6   10.15    0.78 
   8  -2   6   11.67    1.26 
   8  -2   6   11.92    1.36 
  -9   2  -6    0.78    0.79 
  -9   2  -6    2.73    0.91 
   9  -2   6    0.84    0.70 
   9  -2   6    0.77    0.74 
 -10   2  -6    9.10    1.18 
  10  -2   6    8.89    1.10 
  10  -2   6    8.23    1.01 
 -11   2  -6   30.83    2.26 
  11  -2   6   32.35    1.97 
  11  -2   6   30.86    1.99 
 -12   2  -6    1.72    1.20 
 -12   2  -6    2.22    1.17 
  12  -2   6    2.91    1.21 
  12  -2   6    1.75    0.93 
 -13   2  -6   -1.94    1.31 
  13  -2   6    1.18    1.08 
  13  -2   6   -0.26    0.93 
  13  -2   6    0.32    1.05 
 -14   2  -6   -1.77    1.57 
  14  -2   6    0.59    1.25 
  14  -2   6   -1.19    0.95 
  10   1  -6   21.29    2.16 
  10   1  -6   16.75    1.89 
 -10  -1   6   19.64    1.96 
 -10  -1   6   25.32    2.93 
   9   1  -6   15.46    1.70 
   9   1  -6   15.70    1.83 
  -9  -1   6   19.47    2.45 
  -9  -1   6   20.71    1.95 
   8   1  -6   -0.24    1.16 
   8   1  -6   -1.04    1.13 
  -8  -1   6    1.06    0.89 
  -8  -1   6    0.70    1.11 
  -8  -1   6    2.76    1.17 
   7   1  -6    3.81    0.79 
   7   1  -6    5.70    1.20 
   7   1  -6    4.19    2.06 
  -7  -1   6    3.69    1.10 
  -7  -1   6    5.21    1.11 
  -7  -1   6    4.82    1.07 
   6   1  -6   24.05    1.98 
   6   1  -6   29.02    2.16 
  -6  -1   6   26.83    2.11 
  -6  -1   6   25.85    1.95 
  -6  -1   6   26.06    1.80 
   5   1  -6   16.63    1.10 
   5   1  -6   14.51    1.77 
   5   1  -6   16.13    1.68 
  -5  -1   6   16.31    1.77 
  -5  -1   6   16.93    1.49 
  -5  -1   6   14.11    1.60 
   4   1  -6   32.35    1.95 
   4   1  -6   32.55    1.79 
   4   1  -6   31.10    1.33 
  -4  -1   6   32.67    1.76 
  -4  -1   6   29.69    1.84 
  -4  -1   6   32.92    1.63 
   3   1  -6    1.98    0.66 
   3   1  -6    1.17    0.46 
   3   1  -6    2.07    0.75 
  -3  -1   6    1.86    0.82 
  -3  -1   6    1.42    0.64 
  -3  -1   6    1.80    0.63 
  -3  -1   6    2.07    0.47 
   2   1  -6   23.67    1.00 
   2   1  -6   24.12    1.54 
  -2  -1   6   24.34    1.35 
  -2  -1   6   23.75    1.49 
  -2  -1   6   24.51    0.95 
  -2  -1   6   24.56    1.33 
   1   1  -6   58.33    1.69 
   1   1  -6   56.47    1.87 
   1   1  -6   56.80    2.15 
   1   1  -6   56.85    1.99 
  -1  -1   6   59.15    2.15 
  -1  -1   6   57.56    1.93 
  -1  -1   6   56.21    1.60 
   0   1  -6  237.04    6.13 
   0   1  -6  239.13    6.08 
   0   1  -6  238.34    6.29 
   0  -1   6  250.16    5.78 
   0  -1   6  241.52    6.11 
   0  -1   6  241.78    6.30 
  -1   1  -6  109.06    3.16 
  -1   1  -6  110.15    3.13 
  -1   1  -6  111.89    3.30 
  -1   1  -6  125.65    2.91 
   1  -1   6  111.21    3.11 
   1  -1   6  107.38    3.28 
  -2   1  -6  479.21   11.94 
  -2   1  -6  489.27   11.85 
  -2   1  -6  494.07   11.93 
   2  -1   6  486.91   11.95 
   2  -1   6  485.99   11.76 
  -3   1  -6  320.43    8.14 
  -3   1  -6  327.68    8.11 
   3  -1   6  327.80    8.02 
   3  -1   6  321.78    8.16 
  -4   1  -6   55.00    2.68 
  -4   1  -6   57.93    2.00 
   4  -1   6   56.59    2.02 
   4  -1   6   56.87    1.89 
  -5   1  -6   18.61    0.98 
  -5   1  -6   20.03    1.18 
   5  -1   6   20.46    1.24 
   5  -1   6   20.34    1.15 
  -6   1  -6    7.86    1.03 
  -6   1  -6    5.23    0.72 
   6  -1   6    6.85    0.95 
   6  -1   6    6.71    0.73 
  -7   1  -6    9.77    1.16 
  -7   1  -6    9.18    0.78 
   7  -1   6   10.63    1.16 
   7  -1   6   11.13    1.13 
   8  -1   6   48.52    2.05 
   8  -1   6   48.16    1.98 
  -9   1  -6   54.50    2.39 
  -9   1  -6   58.26    2.43 
   9  -1   6   58.31    2.22 
   9  -1   6   55.84    2.27 
 -10   1  -6   31.91    1.92 
  10  -1   6   29.31    1.74 
  10  -1   6   29.40    1.79 
 -11   1  -6    3.28    1.05 
  11  -1   6    3.87    0.91 
  11  -1   6    3.20    0.93 
 -12   1  -6   10.94    1.39 
 -12   1  -6   10.17    1.42 
  12  -1   6    9.62    1.19 
  12  -1   6   11.85    1.65 
 -13   1  -6    1.98    1.35 
  13  -1   6    5.37    1.15 
  13  -1   6    4.40    1.08 
 -14   1  -6   29.35    2.92 
  14  -1   6   34.83    2.39 
  14  -1   6   29.69    2.24 
 -15   1  -6   47.55    3.54 
  15  -1   6   48.28    2.96 
  15  -1   6   52.52    2.82 
  10   0  -6    2.28    1.09 
  10   0  -6   -1.18    1.44 
 -10   0   6    1.84    1.53 
 -10   0   6    2.64    1.44 
   9   0  -6   -1.68    0.86 
   9   0  -6   -2.68    1.22 
  -9   0   6    0.46    0.99 
  -9   0   6   -1.46    1.22 
  -9   0   6   -3.14    1.19 
   8   0  -6    8.43    1.04 
   8   0  -6    7.90    1.33 
   8   0  -6    8.19    1.31 
  -8   0   6    9.42    1.42 
  -8   0   6    7.66    1.26 
  -8   0   6    6.85    1.32 
   7   0  -6    8.82    1.30 
   7   0  -6    6.64    1.18 
   7   0  -6    8.19    0.91 
  -7   0   6    6.91    1.15 
  -7   0   6    7.81    1.16 
  -7   0   6    6.09    1.12 
   6   0  -6    3.21    0.97 
   6   0  -6    2.61    0.94 
   6   0  -6    2.89    0.73 
  -6   0   6    2.07    0.90 
  -6   0   6    2.72    1.18 
  -6   0   6    3.30    0.89 
   5   0  -6   -0.09    0.75 
   5   0  -6    0.67    0.77 
  -5   0   6    0.74    0.72 
  -5   0   6    0.59    0.77 
   4   0  -6    0.42    0.49 
   4   0  -6   -0.72    0.65 
   4   0  -6    0.75    0.72 
  -4   0   6   -0.19    0.62 
  -4   0   6    0.77    0.66 
  -4   0   6   -0.59    0.70 
   3   0  -6  124.79    3.66 
   3   0  -6  118.40    3.57 
   3   0  -6  124.28    3.28 
  -3   0   6  119.33    3.54 
  -3   0   6  123.09    3.50 
  -3   0   6  122.09    3.62 
   2   0  -6  219.14    5.77 
   2   0  -6  221.48    5.84 
   2   0  -6  227.20    5.52 
  -2   0   6  218.17    5.83 
  -2   0   6  219.79    5.75 
  -2   0   6  222.71    5.76 
   1   0  -6  234.06    5.63 
   1   0  -6  223.62    5.92 
   1   0  -6  225.72    5.84 
   1   0  -6  226.79    5.79 
  -1   0   6  228.75    6.21 
  -1   0   6  227.54    5.85 
  -1   0   6  225.43    5.81 
   0   0  -6  294.93    7.26 
   0   0  -6  295.83    7.05 
   0   0  -6  288.77    7.21 
   0   0  -6  293.84    7.33 
   0   0   6  289.50    7.19 
   0   0   6  269.00    7.48 
   0   0   6  292.69    7.25 
  -1   0  -6  218.68    5.57 
  -1   0  -6  219.09    5.66 
  -1   0  -6  227.11    5.47 
  -1   0  -6  220.29    5.70 
   1   0   6  221.13    5.64 
   1   0   6  218.08    5.72 
  -2   0  -6  163.95    3.75 
  -2   0  -6  154.96    4.17 
  -2   0  -6  153.40    4.18 
  -2   0  -6  150.47    4.02 
   2   0   6  157.33    4.11 
   2   0   6  153.35    4.20 
  -3   0  -6   24.08    1.25 
  -3   0  -6   23.01    1.26 
   3   0   6   24.10    1.27 
   3   0   6   23.58    1.15 
  -4   0  -6    0.50    0.47 
  -4   0  -6   -0.15    0.53 
   4   0   6    0.32    0.43 
   4   0   6    1.02    0.93 
  -5   0  -6    2.75    0.56 
  -5   0  -6    3.38    0.52 
   5   0   6    2.11    0.56 
   5   0   6    2.37    0.52 
  -6   0  -6   12.33    0.86 
  -6   0  -6   13.24    1.07 
   6   0   6   11.66    1.04 
   6   0   6   12.41    1.08 
  -7   0  -6   28.42    1.20 
   7   0   6   31.32    1.49 
   7   0   6   25.79    1.41 
  -8   0  -6   15.95    1.39 
  -8   0  -6   17.54    1.33 
   8   0   6   15.96    1.20 
   8   0   6   16.76    0.96 
  -9   0  -6    2.05    0.76 
  -9   0  -6    0.46    0.75 
   9   0   6    2.50    0.71 
   9   0   6    3.20    0.58 
 -10   0  -6    8.88    1.13 
 -10   0  -6    8.82    1.03 
  10   0   6    9.43    0.95 
  10   0   6   10.79    1.30 
 -11   0  -6   57.79    2.52 
  11   0   6   63.19    2.40 
  11   0   6   57.20    1.97 
 -12   0  -6   83.85    3.19 
  12   0   6   80.08    2.54 
  12   0   6   87.22    2.98 
 -13   0  -6   64.64    4.85 
 -13   0  -6   66.96    3.01 
  13   0   6   56.98    2.42 
  13   0   6   62.55    2.59 
 -14   0  -6   73.51    3.48 
  14   0   6   76.78    3.14 
  14   0   6   74.27    2.99 
 -15   0  -6   47.03    3.34 
  15   0   6   46.79    2.75 
  15   0   6   51.81    2.67 
  10  -1  -6    1.04    1.05 
  10  -1  -6   -0.31    1.52 
 -10   1   6    2.20    1.15 
 -10   1   6    0.91    1.50 
 -10   1   6    0.79    1.48 
   9  -1  -6    0.74    0.88 
   9  -1  -6    1.51    1.46 
   9  -1  -6    0.31    1.11 
  -9   1   6    0.22    1.25 
  -9   1   6   -0.49    1.02 
  -9   1   6   -2.98    1.17 
   8  -1  -6    0.49    0.82 
   8  -1  -6    0.44    1.00 
   8  -1  -6    1.53    1.18 
  -8   1   6   -0.24    0.90 
  -8   1   6   -0.79    1.08 
   7  -1  -6   23.09    1.93 
   7  -1  -6   24.29    2.04 
   7  -1  -6   22.57    1.52 
  -7   1   6   24.79    2.02 
  -7   1   6   24.62    2.04 
  -7   1   6   21.31    2.01 
   6  -1  -6   62.86    2.65 
   6  -1  -6   60.19    2.47 
   6  -1  -6   62.25    2.21 
  -6   1   6   60.63    2.44 
  -6   1   6   61.91    2.55 
  -6   1   6   57.41    3.88 
   5  -1  -6  139.85    3.89 
   5  -1  -6  142.76    4.28 
   5  -1  -6  145.47    4.17 
  -5   1   6  139.97    4.17 
  -5   1   6  137.36    4.19 
  -5   1   6  141.81    4.11 
   4  -1  -6  308.55    7.99 
   4  -1  -6  304.49    7.72 
   4  -1  -6  312.07    7.90 
  -4   1   6  305.89    7.90 
  -4   1   6  313.43    7.89 
  -4   1   6  310.17    7.95 
   3  -1  -6  235.29    5.75 
   3  -1  -6  230.89    5.95 
   3  -1  -6  215.32    6.34 
  -3   1   6  227.38    5.94 
   2  -1  -6  142.76    3.69 
   2  -1  -6  140.58    3.89 
   2  -1  -6  141.44    3.88 
  -2   1   6  139.91    3.86 
  -2   1   6  137.39    3.86 
  -2   1   6  139.21    3.87 
   1  -1  -6  387.83    9.35 
   1  -1  -6  391.34    9.18 
   1  -1  -6  383.32    9.36 
   1  -1  -6  369.80    9.32 
  -1   1   6  372.99    9.38 
  -1   1   6  373.90    9.36 
  -1   1   6  372.76    9.30 
   0  -1  -6  132.98    3.37 
   0  -1  -6  128.30    3.54 
   0  -1  -6  127.00    3.48 
   0  -1  -6  129.44    3.54 
   0   1   6  128.40    3.58 
   0   1   6  130.73    3.57 
   0   1   6  127.38    3.46 
  -1  -1  -6   12.17    0.87 
  -1  -1  -6   12.24    1.01 
  -1  -1  -6   12.40    0.79 
  -1  -1  -6   13.25    1.00 
   1   1   6   11.42    0.84 
   1   1   6   13.44    1.02 
   1   1   6   13.59    1.02 
  -2  -1  -6    4.64    0.60 
  -2  -1  -6    3.81    0.46 
  -2  -1  -6    4.85    0.61 
   2   1   6    4.33    0.58 
   2   1   6    4.88    0.60 
  -3  -1  -6   73.93    2.23 
  -3  -1  -6   73.41    2.08 
  -3  -1  -6   74.82    2.33 
   3   1   6   77.11    2.28 
   3   1   6   73.24    2.30 
  -4  -1  -6   23.38    1.11 
  -4  -1  -6   21.99    1.23 
   4   1   6   22.79    1.16 
   4   1   6   23.01    1.20 
  -5  -1  -6    9.40    0.84 
  -5  -1  -6   11.00    1.02 
   5   1   6   10.09    0.94 
   5   1   6   10.24    1.16 
  -6  -1  -6    0.47    0.45 
  -6  -1  -6    0.13    0.48 
   6   1   6    0.67    0.47 
   6   1   6    0.45    0.42 
  -7  -1  -6   12.85    0.95 
  -7  -1  -6   16.61    1.21 
   7   1   6   14.44    1.14 
   7   1   6   13.78    0.91 
  -8  -1  -6   57.08    2.21 
  -8  -1  -6   56.40    2.01 
   8   1   6   56.27    1.96 
   8   1   6   54.49    1.83 
  -9  -1  -6  103.81    3.34 
  -9  -1  -6  102.55    3.07 
   9   1   6  102.16    3.08 
   9   1   6   99.34    2.93 
 -10  -1  -6   86.29    2.85 
 -10  -1  -6   87.50    3.17 
  10   1   6   89.11    2.79 
 -11  -1  -6  133.46    4.33 
 -11  -1  -6  131.11    3.94 
  11   1   6  134.89    3.86 
  11   1   6  129.20    3.72 
 -12  -1  -6  102.18    3.39 
  12   1   6   92.42    2.97 
  12   1   6   98.24    3.15 
 -13  -1  -6   53.87    2.98 
 -13  -1  -6   61.62    2.77 
  13   1   6   59.93    2.29 
  13   1   6   63.60    2.46 
 -14  -1  -6   17.03    1.91 
  14   1   6   19.07    1.77 
  14   1   6   16.76    1.90 
  15   1   6   -0.70    1.05 
  11  -2  -6   -0.65    1.25 
  11  -2  -6    2.66    1.10 
 -11   2   6    2.96    1.59 
 -11   2   6    3.70    1.83 
  10  -2  -6    0.92    1.18 
  10  -2  -6   -1.11    0.93 
 -10   2   6    3.99    1.23 
 -10   2   6    0.28    1.39 
 -10   2   6   -2.13    1.41 
   9  -2  -6    7.21    1.10 
   9  -2  -6    6.52    1.46 
   9  -2  -6    5.79    1.21 
  -9   2   6    7.29    1.45 
  -9   2   6    6.00    1.38 
  -9   2   6    7.61    1.23 
   8  -2  -6   44.22    2.34 
   8  -2  -6   38.82    2.56 
   8  -2  -6   42.91    2.09 
  -8   2   6   43.62    2.57 
  -8   2   6   41.33    2.54 
  -8   2   6   44.05    2.18 
   7  -2  -6  101.24    3.37 
   7  -2  -6  102.49    3.26 
   7  -2  -6   99.65    3.65 
  -7   2   6  106.37    3.65 
  -7   2   6  102.00    3.35 
  -7   2   6  102.91    3.61 
   6  -2  -6  204.15    5.50 
   6  -2  -6  206.26    5.77 
   6  -2  -6  207.91    6.35 
  -6   2   6  192.61    5.73 
  -6   2   6  205.75    5.71 
  -6   2   6  194.21    5.42 
   5  -2  -6  186.63    4.92 
   5  -2  -6  192.25    5.25 
   5  -2  -6  188.10    4.98 
  -5   2   6  164.34    5.73 
  -5   2   6  184.39    5.16 
  -5   2   6  183.36    5.16 
   4  -2  -6  159.11    4.25 
   4  -2  -6  164.42    4.34 
   4  -2  -6  157.73    4.52 
  -4   2   6  157.41    4.47 
  -4   2   6  156.50    4.29 
  -4   2   6  155.27    4.48 
   3  -2  -6  179.94    4.92 
   3  -2  -6  182.68    4.78 
   3  -2  -6  183.03    4.72 
  -3   2   6  179.12    4.92 
  -3   2   6  181.62    4.91 
  -3   2   6  181.75    4.78 
   2  -2  -6  100.35    2.96 
   2  -2  -6  100.94    2.85 
   2  -2  -6   99.48    2.77 
  -2   2   6   95.09    2.96 
  -2   2   6   99.41    2.94 
  -2   2   6   99.55    2.85 
   1  -2  -6    0.34    0.44 
   1  -2  -6   -0.72    0.38 
   1  -2  -6    1.23    0.94 
  -1   2   6   -0.96    0.47 
  -1   2   6   -0.04    0.46 
  -1   2   6    0.08    0.43 
   0  -2  -6   25.03    1.06 
   0  -2  -6   24.62    1.17 
   0  -2  -6   24.84    1.23 
   0  -2  -6   25.55    1.18 
   0   2   6   24.32    1.32 
   0   2   6   25.73    1.15 
   0   2   6   24.14    1.20 
  -1  -2  -6   37.99    1.46 
  -1  -2  -6   37.06    1.31 
  -1  -2  -6   37.46    1.42 
  -1  -2  -6   37.86    1.35 
   1   2   6   36.76    1.52 
   1   2   6   37.14    1.43 
   1   2   6   36.31    1.31 
  -2  -2  -6   60.94    1.98 
  -2  -2  -6   61.28    1.82 
  -2  -2  -6   65.11    1.89 
   2   2   6   61.53    1.98 
   2   2   6   64.32    2.06 
  -3  -2  -6   39.91    1.45 
  -3  -2  -6   36.92    1.23 
  -3  -2  -6   37.75    1.52 
   3   2   6   40.18    1.51 
   3   2   6   38.43    1.50 
  -4  -2  -6    3.86    0.59 
  -4  -2  -6    3.76    0.38 
  -4  -2  -6    3.71    0.58 
   4   2   6    4.25    0.59 
   4   2   6    3.20    0.54 
  -5  -2  -6   -0.43    0.52 
  -5  -2  -6    0.49    0.48 
   5   2   6    0.63    0.47 
   5   2   6    0.55    0.44 
  -6  -2  -6  103.42    2.94 
  -6  -2  -6  103.22    3.04 
   6   2   6  101.68    3.00 
   6   2   6  102.83    2.90 
  -7  -2  -6  158.56    4.18 
  -7  -2  -6  167.70    4.47 
  -7  -2  -6  160.53    4.32 
   7   2   6  159.00    4.28 
   7   2   6  162.36    4.41 
  -8  -2  -6  310.72    7.86 
  -8  -2  -6  299.79    7.51 
   8   2   6  303.12    7.78 
  -9  -2  -6  252.72    6.35 
  -9  -2  -6  262.40    6.76 
   9   2   6  245.49    6.40 
   9   2   6  243.45    6.45 
 -10  -2  -6   91.97    3.20 
 -10  -2  -6   89.53    2.80 
  10   2   6   89.68    2.74 
  10   2   6   88.76    2.83 
 -11  -2  -6   63.04    2.28 
 -11  -2  -6   57.18    2.68 
  11   2   6   58.06    2.24 
  11   2   6   58.70    2.12 
 -12  -2  -6   30.03    1.89 
  12   2   6   33.55    1.83 
  12   2   6   31.41    1.60 
 -13  -2  -6   -0.59    1.25 
 -13  -2  -6    0.56    1.00 
  13   2   6    1.32    0.78 
  13   2   6    3.22    1.00 
 -14  -2  -6    4.60    1.27 
  14   2   6    7.24    0.92 
  14   2   6    6.67    1.16 
  11  -3  -6   12.19    1.47 
 -11   3   6   13.10    1.85 
  10  -3  -6   21.70    1.97 
  10  -3  -6   15.70    2.06 
 -10   3   6   18.35    1.97 
 -10   3   6   23.01    2.35 
   9  -3  -6   29.51    2.06 
   9  -3  -6   30.68    2.04 
   9  -3  -6   33.17    2.64 
  -9   3   6   30.50    2.21 
  -9   3   6   33.70    2.67 
   8  -3  -6   78.92    2.89 
   8  -3  -6   72.90    2.76 
   8  -3  -6   77.08    3.37 
  -8   3   6   78.79    2.98 
  -8   3   6   83.02    3.37 
   7  -3  -6  175.32    4.86 
   7  -3  -6  172.81    5.33 
   7  -3  -6  175.92    4.99 
  -7   3   6  181.56    5.31 
  -7   3   6  178.28    5.09 
   6  -3  -6   76.65    2.62 
   6  -3  -6   77.15    2.98 
   6  -3  -6   81.31    2.58 
  -6   3   6   77.53    2.99 
  -6   3   6   72.73    2.45 
  -6   3   6   78.37    2.76 
   5  -3  -6   25.30    1.70 
   5  -3  -6   27.52    1.41 
   5  -3  -6   25.92    1.45 
  -5   3   6   25.71    1.77 
  -5   3   6   25.66    1.76 
  -5   3   6   28.16    1.33 
   4  -3  -6    2.94    0.62 
   4  -3  -6    2.59    0.56 
   4  -3  -6    2.82    0.76 
  -4   3   6    3.10    0.56 
  -4   3   6    2.56    0.74 
  -4   3   6    2.68    0.72 
   3  -3  -6    5.32    0.77 
   3  -3  -6    6.84    0.85 
   3  -3  -6    4.70    0.76 
  -3   3   6    4.47    0.72 
  -3   3   6    5.12    0.73 
  -3   3   6    5.81    0.81 
   2  -3  -6    4.60    0.66 
   2  -3  -6    4.30    0.54 
   2  -3  -6    3.33    0.54 
  -2   3   6    3.84    0.53 
  -2   3   6    4.17    0.68 
  -2   3   6    3.17    0.64 
   1  -3  -6   43.08    1.63 
   1  -3  -6   42.44    1.49 
   1  -3  -6   43.55    1.50 
  -1   3   6   42.50    1.50 
  -1   3   6   41.42    1.69 
  -1   3   6   41.71    1.59 
   0  -3  -6   84.60    2.58 
   0  -3  -6   87.97    2.43 
   0  -3  -6   82.37    2.54 
   0  -3  -6   86.36    2.50 
   0   3   6   84.15    2.64 
   0   3   6   87.83    2.14 
   0   3   6   86.29    2.47 
   0   3   6   86.61    2.47 
  -1  -3  -6   11.04    0.80 
  -1  -3  -6   10.55    0.94 
  -1  -3  -6   13.26    0.84 
  -1  -3  -6   10.76    0.92 
  -1  -3  -6   11.91    0.49 
   1   3   6   11.73    1.04 
   1   3   6   12.65    0.89 
   1   3   6   10.91    0.80 
  -2  -3  -6   10.45    0.79 
  -2  -3  -6    9.57    0.94 
  -2  -3  -6   10.08    0.52 
  -2  -3  -6    9.34    0.73 
  -2  -3  -6    9.15    0.87 
   2   3   6    9.15    0.95 
   2   3   6   10.86    0.88 
   2   3   6    8.77    0.66 
  -3  -3  -6   28.86    1.15 
  -3  -3  -6   28.40    0.99 
  -3  -3  -6   27.09    1.25 
  -3  -3  -6   28.15    1.34 
   3   3   6   26.80    1.32 
   3   3   6   27.97    1.24 
  -4  -3  -6   53.10    1.46 
  -4  -3  -6   51.33    1.86 
  -4  -3  -6   51.56    1.80 
   4   3   6   55.12    1.82 
   4   3   6   51.00    1.75 
  -5  -3  -6  174.76    4.28 
  -5  -3  -6  179.31    4.67 
   5   3   6  178.78    4.64 
   5   3   6  173.04    4.61 
  -6  -3  -6  318.60    7.94 
  -6  -3  -6  325.39    8.02 
   6   3   6  326.56    7.94 
   6   3   6  296.29    8.11 
  -7  -3  -6  306.10    7.54 
  -7  -3  -6  289.30    7.11 
   7   3   6  292.69    7.46 
   7   3   6  289.93    7.45 
  -8  -3  -6  164.94    6.02 
  -8  -3  -6  201.96    4.89 
   8   3   6  208.38    5.28 
   8   3   6  202.96    5.24 
  -9  -3  -6    6.69    0.94 
  -9  -3  -6    6.80    0.67 
   9   3   6    6.52    0.93 
   9   3   6    7.00    0.88 
 -10  -3  -6   77.17    2.87 
 -10  -3  -6   74.73    2.35 
  10   3   6   73.97    2.29 
 -11  -3  -6   13.51    1.30 
 -11  -3  -6   13.88    1.88 
  11   3   6   11.46    1.46 
  11   3   6   13.39    1.09 
 -12  -3  -6    8.09    0.95 
  12   3   6    8.93    1.17 
  12   3   6    8.48    1.09 
 -13  -3  -6    3.35    1.00 
 -13  -3  -6    2.93    1.31 
  13   3   6    3.71    1.14 
 -14  -3  -6    7.09    1.11 
  14   3   6    5.99    1.31 
  11  -4  -6   58.51    2.99 
 -11   4   6   62.45    3.68 
  10  -4  -6   87.30    3.34 
  10  -4  -6   76.27    2.81 
 -10   4   6   84.94    3.88 
   9  -4  -6  107.37    4.67 
   9  -4  -6  107.57    3.70 
   9  -4  -6   95.24    3.18 
  -9   4   6  103.02    4.02 
  -9   4   6  108.96    3.77 
   8  -4  -6   56.62    2.50 
   8  -4  -6   53.66    2.85 
   8  -4  -6   52.79    2.12 
  -8   4   6   57.43    2.91 
  -8   4   6   60.95    2.67 
   7  -4  -6   83.08    2.64 
   7  -4  -6   83.74    2.99 
   7  -4  -6   89.82    3.38 
  -7   4   6   86.72    3.10 
  -7   4   6   84.04    3.33 
   6  -4  -6    0.73    0.86 
   6  -4  -6    0.26    0.68 
   6  -4  -6    0.35    0.54 
  -6   4   6   -1.01    0.87 
  -6   4   6    0.88    0.77 
   5  -4  -6   -0.17    0.69 
   5  -4  -6   -0.50    0.45 
   5  -4  -6    0.71    0.73 
  -5   4   6    0.99    0.81 
  -5   4   6   -0.44    0.65 
  -5   4   6   -0.27    0.42 
   4  -4  -6    1.16    0.57 
   4  -4  -6    1.50    0.45 
   4  -4  -6    0.88    0.61 
  -4   4   6    1.73    0.70 
  -4   4   6    0.95    0.41 
  -4   4   6    1.10    0.70 
   3  -4  -6   16.25    1.26 
   3  -4  -6   14.87    0.87 
   3  -4  -6   14.78    1.07 
  -3   4   6   13.78    0.86 
  -3   4   6   14.50    1.25 
  -3   4   6   13.31    1.28 
   2  -4  -6    7.59    0.96 
   2  -4  -6    8.33    0.85 
  -2   4   6    6.67    0.74 
  -2   4   6    7.69    0.74 
  -2   4   6    6.60    0.77 
   1  -4  -6    1.22    0.52 
   1  -4  -6    0.53    0.43 
   1  -4  -6    1.31    0.54 
  -1   4   6    1.73    0.43 
  -1   4   6    1.46    0.54 
  -1   4   6    1.80    0.55 
   0  -4  -6   37.43    1.53 
   0  -4  -6   39.21    1.46 
   0  -4  -6   35.89    1.36 
   0  -4  -6   36.34    1.45 
   0   4   6   36.32    1.34 
   0   4   6   36.64    1.41 
   0   4   6   36.44    1.57 
  -1  -4  -6  377.71    9.54 
  -1  -4  -6  388.70    9.60 
  -1  -4  -6  377.34    9.33 
  -1  -4  -6  398.99    9.46 
  -1  -4  -6  405.16    9.49 
   1   4   6  389.18    9.39 
   1   4   6  382.68    9.63 
   1   4   6  393.52    9.47 
   1   4   6  392.55    9.58 
  -2  -4  -6  675.45   16.03 
  -2  -4  -6  670.11   16.24 
  -2  -4  -6  666.16   16.24 
  -2  -4  -6  698.29   16.14 
  -2  -4  -6  695.42   15.97 
   2   4   6  666.58   15.98 
   2   4   6  667.76   16.25 
   2   4   6  671.16   16.28 
  -3  -4  -6  544.06   13.12 
  -3  -4  -6  553.86   12.99 
  -3  -4  -6  527.60   13.11 
  -3  -4  -6  554.87   12.85 
  -3  -4  -6  546.99   12.80 
   3   4   6  531.25   13.08 
   3   4   6  538.88   13.12 
   3   4   6  527.27   12.75 
  -4  -4  -6  229.68    5.77 
  -4  -4  -6  230.65    5.77 
   4   4   6  232.42    5.71 
   4   4   6  197.60    5.78 
  -5  -4  -6  477.68   11.79 
   5   4   6  486.93   11.71 
   5   4   6  478.45   11.83 
  -6  -4  -6  240.43    6.23 
   6   4   6  241.97    6.15 
   6   4   6  238.00    6.22 
  -7  -4  -6   69.11    2.39 
   7   4   6   66.95    2.31 
   7   4   6   67.11    2.24 
  -8  -4  -6   48.06    2.19 
   8   4   6   42.80    1.88 
   8   4   6   44.86    1.84 
  -9  -4  -6   26.35    1.70 
   9   4   6   21.43    1.54 
   9   4   6   22.95    1.10 
 -10  -4  -6    2.49    0.89 
 -10  -4  -6    2.22    0.53 
  10   4   6    1.44    0.82 
  10   4   6    1.70    0.49 
 -11  -4  -6   12.05    1.14 
 -11  -4  -6   13.94    1.87 
  11   4   6   15.56    1.63 
 -12  -4  -6    3.90    0.77 
 -12  -4  -6    4.11    1.53 
  12   4   6    6.22    1.21 
 -13  -4  -6   -1.17    1.27 
 -13  -4  -6   -1.44    0.75 
  13   4   6   -1.12    1.16 
 -14  -4  -6    2.92    0.95 
  14   4   6    1.99    1.54 
  14   4   6    4.25    1.64 
  11  -5  -6   31.87    2.48 
 -11   5   6   36.75    3.20 
 -11   5   6   32.96    2.97 
  10  -5  -6   35.46    2.38 
 -10   5   6   33.80    3.03 
   9  -5  -6   19.03    1.87 
  -9   5   6   19.89    2.55 
   8  -5  -6   -0.38    1.06 
   8  -5  -6   -0.45    0.83 
  -8   5   6    1.35    1.06 
  -8   5   6   -1.83    1.08 
   7  -5  -6    1.38    0.82 
  -7   5   6    1.48    0.97 
  -7   5   6    1.12    1.07 
   6  -5  -6   30.95    1.78 
  -6   5   6   29.60    1.86 
   5  -5  -6    6.84    0.95 
   5  -5  -6    4.98    0.78 
   5  -5  -6    4.78    0.92 
  -5   5   6    4.55    0.88 
  -5   5   6    5.84    1.00 
   4  -5  -6    0.64    0.63 
   4  -5  -6    0.74    0.68 
   4  -5  -6   -0.87    0.57 
  -4   5   6   -0.36    0.58 
  -4   5   6    0.63    0.70 
  -4   5   6   -0.07    0.67 
   3  -5  -6    0.52    0.55 
   3  -5  -6    0.36    0.51 
   3  -5  -6    0.26    0.62 
  -3   5   6    0.24    0.60 
  -3   5   6    0.44    0.59 
  -3   5   6    0.35    0.31 
   2  -5  -6   35.69    1.46 
   2  -5  -6   35.29    1.62 
   2  -5  -6   34.86    1.46 
  -2   5   6   36.23    1.59 
  -2   5   6   34.35    1.20 
  -2   5   6   34.90    1.64 
   1  -5  -6  144.50    3.94 
   1  -5  -6  143.04    3.98 
  -1   5   6  149.70    4.09 
  -1   5   6  144.61    3.94 
  -1   5   6  145.50    3.73 
   0  -5  -6  341.42    8.33 
   0  -5  -6  324.70    8.34 
   0  -5  -6  345.44    8.31 
   0   5   6  337.99    8.20 
   0   5   6  341.36    8.45 
   0   5   6  329.76    8.27 
  -1  -5  -6  594.48   14.39 
  -1  -5  -6  599.25   14.40 
  -1  -5  -6  611.81   14.29 
  -1  -5  -6  595.18   14.24 
  -1  -5  -6  610.58   14.12 
   1   5   6  605.46   14.20 
   1   5   6  548.32   14.60 
   1   5   6  595.95   14.45 
  -2  -5  -6  444.78   10.47 
  -2  -5  -6  445.54   10.58 
  -2  -5  -6  440.00   10.46 
  -2  -5  -6  431.48   10.68 
  -2  -5  -6  426.78   10.71 
   2   5   6  436.89   10.41 
   2   5   6  429.98   10.72 
  -3  -5  -6  610.30   14.85 
  -3  -5  -6  611.01   14.89 
  -3  -5  -6  634.71   14.73 
  -3  -5  -6  609.98   14.50 
   3   5   6  605.07   14.46 
   3   5   6  616.45   14.85 
   3   5   6  615.72   14.94 
  -4  -5  -6  133.59    3.78 
  -4  -5  -6  136.14    3.52 
  -4  -5  -6  133.07    3.70 
   4   5   6  133.78    3.67 
   4   5   6  133.07    3.75 
  -5  -5  -6   69.43    2.62 
  -5  -5  -6   77.86    2.50 
   5   5   6   78.49    2.34 
   5   5   6   76.77    2.46 
  -6  -5  -6    5.02    0.68 
   6   5   6    5.11    0.64 
   6   5   6    6.31    0.80 
  -7  -5  -6    7.62    0.84 
   7   5   6    9.22    1.03 
   7   5   6    6.61    1.43 
  -8  -5  -6   25.88    1.64 
   8   5   6   25.15    1.44 
   8   5   6   23.10    1.53 
  -9  -5  -6   39.98    2.04 
   9   5   6   36.82    1.97 
   9   5   6   35.11    1.25 
 -10  -5  -6    4.57    1.02 
  10   5   6    4.51    1.03 
 -11  -5  -6   -1.33    0.97 
  11   5   6    2.39    1.05 
 -12  -5  -6    0.07    1.16 
  13   5   6    2.28    1.28 
  13   5   6    4.72    1.53 
  14   5   6   35.73    3.47 
  14   5   6   33.47    2.77 
  11  -6  -6   -0.42    1.14 
  11  -6  -6    3.24    1.29 
 -11   6   6   -2.74    1.68 
  10  -6  -6   -0.33    1.14 
  10  -6  -6   -0.23    1.05 
 -10   6   6    1.41    1.58 
 -10   6   6    4.71    1.49 
   9  -6  -6    7.06    1.22 
   9  -6  -6    9.04    1.29 
  -9   6   6    7.69    1.63 
   8  -6  -6   27.35    1.92 
   8  -6  -6   30.56    2.02 
  -8   6   6   29.95    2.47 
   7  -6  -6   23.30    1.66 
   7  -6  -6   21.99    1.75 
  -7   6   6   24.43    2.01 
  -7   6   6   23.12    2.17 
   6  -6  -6    7.59    1.04 
   6  -6  -6    9.93    1.06 
  -6   6   6    7.88    1.15 
  -6   6   6    7.22    1.12 
   5  -6  -6    1.09    0.70 
   5  -6  -6    0.97    0.68 
   5  -6  -6   -0.28    0.77 
  -5   6   6    0.96    0.84 
  -5   6   6    0.63    0.78 
   4  -6  -6   31.61    1.48 
   4  -6  -6   27.48    1.51 
   4  -6  -6   30.53    1.78 
  -4   6   6   30.91    1.79 
  -4   6   6   32.40    1.74 
   3  -6  -6  132.20    3.62 
   3  -6  -6  106.34    4.60 
   3  -6  -6  131.59    3.66 
  -3   6   6  129.31    3.85 
  -3   6   6  133.43    3.80 
  -3   6   6  130.23    3.86 
   2  -6  -6  150.03    4.21 
   2  -6  -6  149.47    4.10 
   2  -6  -6  150.50    4.10 
  -2   6   6  149.73    4.19 
  -2   6   6  152.38    3.78 
  -2   6   6  150.83    4.27 
  -2   6   6  149.80    4.28 
   1  -6  -6  218.16    5.70 
   1  -6  -6  221.49    5.66 
  -1   6   6  217.41    5.69 
  -1   6   6  223.62    5.44 
  -1   6   6  219.07    5.81 
   0  -6  -6  219.98    5.71 
   0  -6  -6  223.19    5.63 
   0  -6  -6  210.39    5.60 
   0   6   6  222.28    5.73 
   0   6   6  226.11    5.78 
   0   6   6  219.00    5.60 
  -1  -6  -6  217.71    5.45 
  -1  -6  -6  217.32    5.39 
  -1  -6  -6  206.66    5.34 
  -1  -6  -6  210.38    5.58 
   1   6   6  211.90    5.62 
   1   6   6  215.15    5.37 
   1   6   6  216.29    5.56 
  -2  -6  -6  169.09    4.28 
  -2  -6  -6  168.36    4.53 
  -2  -6  -6  165.19    4.45 
  -2  -6  -6  168.91    4.20 
  -2  -6  -6  166.68    4.33 
   2   6   6  164.83    4.49 
   2   6   6  162.49    4.47 
   2   6   6  165.95    4.16 
  -3  -6  -6    5.81    0.59 
  -3  -6  -6    5.48    0.71 
  -3  -6  -6    5.61    0.64 
  -3  -6  -6    6.44    0.80 
   3   6   6    5.44    0.49 
   3   6   6    5.05    0.64 
   3   6   6    6.11    0.73 
  -4  -6  -6   21.37    1.28 
  -4  -6  -6   22.32    1.09 
  -4  -6  -6   20.12    1.19 
  -4  -6  -6   20.41    1.04 
   4   6   6   20.70    1.17 
   4   6   6   23.73    1.28 
  -5  -6  -6    0.50    0.46 
  -5  -6  -6   -0.23    0.55 
   5   6   6    0.28    0.43 
   5   6   6   -0.44    0.57 
  -6  -6  -6   36.93    1.62 
   6   6   6   36.36    1.74 
   6   6   6   36.30    1.50 
  -7  -6  -6   38.29    1.73 
   7   6   6   38.86    1.88 
   7   6   6   38.97    1.61 
  -8  -6  -6   21.87    1.60 
   8   6   6   20.36    1.37 
   8   6   6   22.95    1.66 
  -9  -6  -6    0.78    0.84 
   9   6   6    0.52    0.88 
 -10  -6  -6   35.11    2.19 
  10   6   6   32.04    2.14 
 -11  -6  -6   43.09    2.56 
 -12  -6  -6   35.41    2.71 
  12   6   6   28.86    2.47 
  12   6   6   42.59    3.08 
  13   6   6   54.01    3.67 
  13   6   6   52.75    3.09 
  10  -7  -6    7.96    1.37 
  10  -7  -6   10.88    1.30 
 -10   7   6    8.16    1.76 
   9  -7  -6    9.39    1.34 
   9  -7  -6   11.83    1.62 
  -9   7   6   11.76    1.74 
  -9   7   6   12.84    1.63 
   8  -7  -6   -0.20    0.81 
   8  -7  -6    0.37    1.13 
   8  -7  -6   -0.39    0.87 
  -8   7   6   -0.65    1.41 
  -8   7   6    0.53    1.20 
   7  -7  -6    5.64    0.92 
   7  -7  -6    4.80    0.99 
  -7   7   6    3.76    1.18 
   6  -7  -6   38.35    2.03 
   6  -7  -6   37.48    1.76 
  -6   7   6   42.54    2.28 
  -6   7   6   39.60    2.34 
   5  -7  -6  106.49    3.22 
   5  -7  -6  110.42    3.64 
   5  -7  -6  105.42    3.40 
  -5   7   6  107.35    3.61 
  -5   7   6  109.71    3.66 
   4  -7  -6  164.40    4.74 
   4  -7  -6  158.56    4.54 
   4  -7  -6  160.42    4.41 
  -4   7   6  159.90    4.74 
  -4   7   6  163.47    4.75 
   3  -7  -6  190.64    5.05 
   3  -7  -6  186.49    5.25 
   3  -7  -6  184.14    5.18 
  -3   7   6  186.90    5.28 
  -3   7   6  191.68    5.33 
  -3   7   6  194.81    5.26 
   2  -7  -6  202.56    5.27 
   2  -7  -6  198.85    5.36 
   2  -7  -6  195.32    5.24 
  -2   7   6  200.13    4.88 
  -2   7   6  198.65    5.42 
  -2   7   6  196.74    5.46 
  -2   7   6  196.47    5.34 
   1  -7  -6  125.21    3.61 
   1  -7  -6  127.15    3.56 
   1  -7  -6  129.12    3.63 
  -1   7   6  126.91    3.62 
  -1   7   6  126.24    3.73 
  -1   7   6  128.55    3.79 
  -1   7   6  130.44    3.62 
   0  -7  -6   27.70    1.25 
   0  -7  -6   23.93    1.09 
   0  -7  -6   24.21    1.27 
   0  -7  -6   23.55    1.32 
   0   7   6   26.36    1.40 
   0   7   6   26.58    1.26 
   0   7   6   26.28    1.28 
   0   7   6   24.84    1.37 
  -1  -7  -6    4.22    0.56 
  -1  -7  -6    4.08    0.68 
  -1  -7  -6    4.33    0.72 
  -1  -7  -6    4.14    0.55 
   1   7   6    4.63    0.55 
   1   7   6    3.35    0.62 
   1   7   6    4.17    0.67 
  -2  -7  -6    1.59    0.55 
  -2  -7  -6    2.31    0.48 
  -2  -7  -6    1.77    0.60 
   2   7   6    1.24    0.40 
   2   7   6    1.08    0.54 
   2   7   6    2.04    0.60 
  -3  -7  -6   94.16    2.72 
  -3  -7  -6   92.24    2.82 
  -3  -7  -6   93.91    2.95 
  -3  -7  -6   93.31    2.69 
   3   7   6   92.67    2.79 
   3   7   6   93.70    2.91 
  -4  -7  -6   38.51    1.48 
  -4  -7  -6   36.44    1.62 
  -4  -7  -6   35.21    1.47 
   4   7   6   37.03    1.52 
  -5  -7  -6    4.78    0.79 
  -5  -7  -6    6.94    0.73 
   5   7   6    7.17    0.94 
   5   7   6    6.09    0.66 
  -6  -7  -6    5.36    0.76 
  -6  -7  -6    5.15    0.74 
   6   7   6    5.22    0.66 
   6   7   6    6.73    0.97 
  -7  -7  -6    0.92    0.64 
  -7  -7  -6    0.87    0.64 
   7   7   6    0.28    0.39 
   7   7   6    0.55    0.81 
   7   7   6   -0.15    0.52 
  -8  -7  -6    8.01    0.96 
   8   7   6    8.80    1.23 
   8   7   6    8.86    1.16 
   9   7   6   97.96    3.52 
 -10  -7  -6  140.94    4.33 
  10   7   6  135.58    4.89 
 -11  -7  -6   62.88    2.99 
  11   7   6   68.13    3.11 
  11   7   6   74.79    3.64 
 -12  -7  -6   51.64    3.05 
  12   7   6   62.32    3.29 
  12   7   6   51.49    3.61 
  13   7   6   35.62    3.45 
  10  -8  -6    4.93    1.06 
  10  -8  -6    2.17    1.17 
 -10   8   6    4.24    1.68 
   9  -8  -6   14.30    1.57 
   9  -8  -6   12.78    1.51 
  -9   8   6   11.98    1.82 
   8  -8  -6   40.03    1.92 
   8  -8  -6   37.10    2.34 
  -8   8   6   41.13    2.60 
  -8   8   6   36.28    2.74 
   7  -8  -6  109.00    3.35 
   7  -8  -6  104.90    3.72 
  -7   8   6  112.44    4.07 
   6  -8  -6  151.49    4.26 
   6  -8  -6  147.73    4.55 
  -6   8   6  151.81    4.83 
   5  -8  -6  190.68    5.11 
   5  -8  -6  187.78    5.31 
   5  -8  -6  189.11    5.62 
  -5   8   6  187.84    5.56 
   4  -8  -6  155.55    4.30 
   4  -8  -6  152.27    4.67 
   4  -8  -6  151.29    4.43 
  -4   8   6  155.92    4.64 
  -4   8   6  155.87    4.69 
   3  -8  -6  125.20    3.77 
   3  -8  -6  127.01    3.98 
   3  -8  -6  129.35    3.71 
  -3   8   6  131.15    3.95 
  -3   8   6  127.77    3.96 
  -3   8   6  134.06    4.05 
   2  -8  -6   37.61    2.07 
   2  -8  -6   39.00    1.70 
   2  -8  -6   37.34    2.43 
  -2   8   6   40.02    1.92 
  -2   8   6   40.84    1.68 
  -2   8   6   40.38    1.85 
  -2   8   6   38.39    1.33 
  -2   8   6   39.61    1.88 
   1  -8  -6    0.88    0.54 
   1  -8  -6    0.05    0.55 
   1  -8  -6   -0.16    0.59 
  -1   8   6   -0.32    0.54 
  -1   8   6    0.36    0.59 
  -1   8   6    0.53    0.61 
  -1   8   6    0.26    0.59 
   0  -8  -6   23.04    1.22 
   0  -8  -6   22.35    1.34 
   0  -8  -6   22.34    1.12 
   0   8   6   21.61    1.25 
   0   8   6   23.49    1.37 
   0   8   6   19.80    1.59 
   0   8   6   21.48    1.28 
  -1  -8  -6   12.06    1.15 
  -1  -8  -6   11.49    0.97 
  -1  -8  -6   10.34    0.91 
   1   8   6   10.59    1.12 
   1   8   6   10.57    1.06 
   1   8   6   11.28    1.11 
   1   8   6   10.10    0.95 
  -2  -8  -6   20.10    1.12 
  -2  -8  -6   20.00    1.37 
  -2  -8  -6   21.42    1.14 
   2   8   6   19.36    1.28 
   2   8   6   19.50    1.24 
   2   8   6   19.64    1.01 
  -3  -8  -6    7.87    0.94 
  -3  -8  -6    7.47    0.80 
   3   8   6    7.92    0.97 
   3   8   6    8.86    1.13 
   3   8   6    7.06    0.97 
   3   8   6    7.82    0.71 
  -4  -8  -6   10.34    1.20 
  -4  -8  -6   10.32    1.02 
  -4  -8  -6   11.12    1.16 
   4   8   6   11.64    1.25 
   4   8   6   11.05    1.03 
   4   8   6   10.78    0.98 
  -5  -8  -6   32.77    1.55 
   5   8   6   32.75    1.81 
   5   8   6   33.64    1.41 
   5   8   6   33.49    1.38 
  -6  -8  -6   96.87    3.04 
  -6  -8  -6  100.39    3.25 
   6   8   6   98.01    2.87 
   6   8   6   94.72    2.74 
   6   8   6   99.77    3.38 
  -7  -8  -6  142.55    4.17 
  -7  -8  -6  145.63    4.08 
   7   8   6  144.89    4.48 
   7   8   6  143.39    3.92 
   7   8   6  139.18    3.66 
  -8  -8  -6  182.26    5.29 
  -8  -8  -6  184.53    5.16 
   8   8   6  185.11    4.99 
   8   8   6  188.57    5.83 
   8   8   6  200.91    5.94 
  -9  -8  -6  155.88    4.51 
  -9  -8  -6  147.53    5.24 
   9   8   6  160.15    5.22 
 -10  -8  -6   77.82    2.95 
  10   8   6   71.12    3.26 
  10   8   6   79.22    3.73 
 -11  -8  -6   42.49    2.54 
  11   8   6   49.38    3.42 
 -12  -8  -6   21.48    2.37 
  12   8   6   18.40    2.14 
  10  -9  -6   24.39    2.41 
 -10   9   6   25.17    3.19 
   9  -9  -6   87.69    3.64 
   9  -9  -6   89.33    2.98 
  -9   9   6   94.66    4.16 
   8  -9  -6  156.03    4.56 
   8  -9  -6  154.07    5.11 
  -8   9   6  155.02    5.46 
  -8   9   6  192.10    7.07 
   7  -9  -6  136.87    3.99 
   7  -9  -6  133.32    4.41 
  -7   9   6  134.15    4.61 
  -7   9   6  144.27    4.81 
   6  -9  -6   97.46    3.43 
   6  -9  -6  100.72    3.13 
  -6   9   6  100.67    3.77 
   5  -9  -6   44.36    1.91 
   5  -9  -6   44.29    2.13 
   5  -9  -6   41.47    2.36 
  -5   9   6   48.30    2.50 
   4  -9  -6   17.21    1.47 
   4  -9  -6   20.23    1.37 
  -4   9   6   15.69    2.04 
  -4   9   6   17.60    1.78 
   3  -9  -6   10.23    1.20 
   3  -9  -6   10.12    1.24 
  -3   9   6    8.37    1.07 
  -3   9   6   11.46    1.24 
  -3   9   6    8.83    1.04 
   2  -9  -6    5.18    0.83 
   2  -9  -6    5.41    0.78 
  -2   9   6    6.05    0.89 
  -2   9   6    4.34    0.52 
  -2   9   6    6.41    1.00 
  -2   9   6    6.87    0.87 
  -2   9   6    4.86    0.88 
   1  -9  -6    9.56    1.20 
  -1   9   6   10.96    1.28 
  -1   9   6   10.30    1.28 
  -1   9   6   12.49    1.30 
  -1   9   6   11.45    0.95 
  -1   9   6   11.96    1.41 
   0  -9  -6   19.99    1.41 
   0  -9  -6   18.17    1.17 
   0  -9  -6   19.39    1.21 
   0   9   6   18.40    1.45 
   0   9   6   20.54    1.38 
   0   9   6   17.22    1.56 
   0   9   6   18.20    1.19 
   0   9   6   18.98    1.33 
  -1  -9  -6    0.76    0.55 
  -1  -9  -6   -0.57    0.50 
   1   9   6   -0.25    0.59 
   1   9   6    0.47    0.64 
   1   9   6    0.32    0.54 
   1   9   6    0.25    0.55 
  -2  -9  -6   -0.13    0.55 
  -2  -9  -6    0.88    0.56 
   2   9   6    0.74    0.66 
   2   9   6    0.97    0.50 
   2   9   6    0.28    0.64 
   2   9   6    0.13    0.56 
   2   9   6   -0.12    0.60 
  -3  -9  -6   77.56    2.39 
  -3  -9  -6   77.31    2.50 
   3   9   6   77.22    2.75 
   3   9   6   78.60    2.56 
   3   9   6   78.27    2.82 
   3   9   6   74.99    2.48 
   3   9   6   75.29    2.21 
  -4  -9  -6  146.90    3.98 
  -4  -9  -6  142.33    4.14 
  -4  -9  -6  160.62    4.78 
   4   9   6  145.49    4.15 
   4   9   6  148.76    4.44 
   4   9   6  145.78    4.50 
   4   9   6  141.07    4.02 
  -5  -9  -6  195.53    5.53 
  -5  -9  -6  217.04    6.23 
   5   9   6  201.81    5.34 
   5   9   6  205.01    5.31 
   5   9   6  207.92    5.90 
   5   9   6  209.07    5.99 
  -6  -9  -6  290.96    7.51 
   6   9   6  297.36    7.20 
   6   9   6  287.03    7.12 
   6   9   6  266.85    9.47 
  -7  -9  -6  148.55    4.16 
  -7  -9  -6  145.44    4.40 
   7   9   6  148.55    4.06 
   7   9   6  160.74    5.02 
  -8  -9  -6   89.19    3.38 
  -8  -9  -6   95.08    3.01 
   8   9   6  100.20    3.89 
  -9  -9  -6   80.56    2.83 
  -9  -9  -6   75.64    3.06 
   9   9   6   82.49    3.77 
   9   9   6   79.02    3.41 
 -10  -9  -6   23.89    2.02 
 -10  -9  -6   25.98    2.49 
  10   9   6   25.24    2.89 
 -11  -9  -6    3.01    1.12 
 -11  -9  -6    3.32    1.24 
  11   9   6    3.15    1.56 
 -12  -9  -6    1.36    1.28 
  12   9   6    1.64    1.72 
   9 -10  -6   39.79    2.65 
   9 -10  -6   42.26    1.88 
  -9  10   6   40.30    3.40 
   8 -10  -6   51.39    2.19 
   8 -10  -6   51.14    2.75 
  -8  10   6   57.18    3.37 
   7 -10  -6   10.79    1.41 
   7 -10  -6    6.75    1.17 
  -7  10   6    5.52    1.49 
   6 -10  -6    0.39    0.77 
   6 -10  -6    0.32    0.83 
  -6  10   6    0.31    1.05 
  -6  10   6   -0.43    1.12 
   5 -10  -6   10.61    1.32 
   5 -10  -6   10.14    1.15 
  -5  10   6    9.83    1.40 
   4 -10  -6    4.90    0.90 
   4 -10  -6    5.36    0.93 
  -4  10   6    3.46    0.97 
  -4  10   6    4.52    1.16 
   3 -10  -6   26.40    1.61 
   3 -10  -6   27.82    1.59 
  -3  10   6   25.69    1.95 
  -3  10   6   26.75    1.83 
  -3  10   6   23.71    2.29 
  -3  10   6   26.26    1.94 
   2 -10  -6   21.02    1.50 
   2 -10  -6   18.59    1.39 
  -2  10   6   20.03    1.69 
  -2  10   6   19.03    1.59 
  -2  10   6   19.01    1.40 
  -2  10   6   18.45    1.09 
  -2  10   6   21.86    1.76 
   1 -10  -6    2.89    0.70 
  -1  10   6    3.33    0.81 
  -1  10   6    3.54    0.64 
  -1  10   6    2.93    0.80 
  -1  10   6    2.77    0.78 
  -1  10   6    3.50    0.90 
   0 -10  -6    2.05    0.89 
   0 -10  -6    0.85    0.63 
   0  10   6    1.16    0.77 
   0  10   6    2.76    0.70 
   0  10   6    2.34    0.77 
   0  10   6    2.49    0.73 
   0  10   6    0.81    0.65 
  -1 -10  -6  220.97    5.88 
  -1 -10  -6  225.91    5.82 
   1  10   6  225.21    5.83 
   1  10   6  225.12    5.98 
   1  10   6  214.82    6.06 
   1  10   6  222.63    6.07 
   1  10   6  221.12    5.99 
  -2 -10  -6   47.34    1.89 
  -2 -10  -6   48.85    1.80 
   2  10   6   45.12    2.06 
   2  10   6   45.24    1.94 
   2  10   6   46.22    1.76 
   2  10   6   45.92    2.13 
   2  10   6   45.27    2.15 
  -3 -10  -6   40.40    1.65 
  -3 -10  -6   39.50    1.79 
   3  10   6   40.67    1.54 
   3  10   6   42.49    1.74 
   3  10   6   38.59    2.05 
   3  10   6   39.82    1.84 
   3  10   6   39.18    2.17 
  -4 -10  -6  188.17    4.85 
  -4 -10  -6  180.61    5.09 
   4  10   6  184.94    5.38 
   4  10   6  178.74    4.86 
   4  10   6  184.97    4.98 
   4  10   6  180.63    5.46 
  -5 -10  -6  162.08    4.61 
   5  10   6  159.07    4.26 
   5  10   6  142.83    6.38 
   5  10   6  172.80    4.83 
  -6 -10  -6   46.45    2.13 
  -6 -10  -6   44.09    2.54 
   6  10   6   50.25    1.77 
   6  10   6   50.74    2.77 
   6  10   6   48.77    1.73 
  -7 -10  -6    8.46    1.39 
   7  10   6    7.18    0.74 
   7  10   6    7.22    1.39 
  -8 -10  -6   -1.19    0.90 
  -8 -10  -6    0.50    0.78 
   8  10   6    2.19    1.23 
   8  10   6   -0.69    1.09 
  -9 -10  -6    1.69    0.80 
  -9 -10  -6   -0.12    0.94 
   9  10   6    0.66    1.29 
 -10 -10  -6    7.67    1.38 
 -10 -10  -6    6.62    0.99 
  10  10   6    6.78    1.64 
 -11 -10  -6    3.69    1.29 
  11  10   6    7.45    1.77 
   9 -11  -6    2.01    1.32 
  -9  11   6    3.92    1.79 
   8 -11  -6    1.55    1.06 
  -8  11   6   -1.42    1.54 
   7 -11  -6   14.32    1.52 
  -7  11   6   13.82    1.85 
   6 -11  -6   19.82    1.89 
  -6  11   6   19.18    2.45 
   5 -11  -6   22.68    1.78 
  -5  11   6   24.07    2.28 
   4 -11  -6    0.10    0.76 
  -4  11   6    0.50    0.89 
  -4  11   6    1.07    1.12 
  -4  11   6    2.43    0.98 
   3 -11  -6   -0.18    0.72 
  -3  11   6    1.15    0.95 
  -3  11   6   -0.39    0.74 
  -3  11   6    0.65    0.94 
   2 -11  -6   17.09    1.41 
  -2  11   6   18.89    1.86 
  -2  11   6   18.17    1.18 
  -2  11   6   17.56    1.63 
  -2  11   6   18.58    1.76 
  -2  11   6   19.84    1.47 
   1 -11  -6  120.24    3.62 
  -1  11   6  118.06    3.51 
  -1  11   6  121.92    3.73 
  -1  11   6  119.04    4.00 
  -1  11   6  119.46    3.75 
  -1  11   6  126.57    3.83 
   0 -11  -6  208.93    5.65 
   0 -11  -6  209.11    5.60 
   0  11   6  207.51    5.65 
   0  11   6  206.59    5.78 
   0  11   6  216.64    5.72 
   0  11   6  207.14    5.69 
   0  11   6  203.56    5.92 
  -1 -11  -6  244.48    6.61 
  -1 -11  -6  249.71    6.69 
   1  11   6  256.91    6.80 
   1  11   6  247.51    6.85 
   1  11   6  252.20    6.87 
   1  11   6  258.69    6.73 
   1  11   6  260.86    6.65 
  -2 -11  -6  172.28    4.66 
  -2 -11  -6  168.78    4.78 
   2  11   6  165.45    5.01 
   2  11   6  166.75    4.87 
   2  11   6  168.83    5.01 
   2  11   6  172.11    4.63 
   2  11   6  173.06    4.75 
  -3 -11  -6  180.18    5.07 
  -3 -11  -6  184.04    4.85 
   3  11   6  183.38    5.43 
   3  11   6  178.35    4.91 
   3  11   6  181.71    4.79 
   3  11   6  182.55    5.39 
   3  11   6  180.59    5.07 
  -4 -11  -6  100.00    2.96 
  -4 -11  -6   97.46    3.22 
   4  11   6   99.29    2.95 
   4  11   6  101.49    3.60 
   4  11   6   97.73    2.80 
   4  11   6   95.63    4.12 
   4  11   6  101.03    3.14 
  -5 -11  -6   18.12    1.56 
   5  11   6   18.72    2.09 
   5  11   6   14.94    1.91 
   5  11   6   16.90    1.16 
   5  11   6   19.12    1.31 
  -6 -11  -6   -0.64    0.91 
   6  11   6    0.45    0.57 
   6  11   6    3.07    1.43 
   6  11   6    0.63    0.53 
   6  11   6    0.19    1.05 
  -7 -11  -6    3.67    1.02 
   7  11   6    3.25    1.34 
   7  11   6    0.42    1.36 
  -8 -11  -6    7.69    1.19 
   8  11   6    7.35    1.58 
  -9 -11  -6    4.03    1.14 
   9  11   6    4.27    1.66 
 -10 -11  -6    4.38    1.26 
  10  11   6    2.76    1.56 
   8 -12  -6    6.13    1.38 
  -8  12   6    6.42    1.81 
   7 -12  -6   12.54    1.49 
  -7  12   6   14.20    2.03 
   6 -12  -6   -0.71    0.92 
  -6  12   6    0.67    1.36 
   5 -12  -6    1.45    0.92 
  -5  12   6    0.80    1.08 
  -5  12   6    3.36    1.32 
   4 -12  -6   14.45    1.56 
  -4  12   6   14.15    1.90 
  -4  12   6   15.72    1.75 
  -4  12   6   15.86    2.13 
   3 -12  -6   39.00    2.01 
  -3  12   6   38.37    1.99 
  -3  12   6   43.10    2.58 
  -3  12   6   39.52    1.54 
  -3  12   6   42.69    2.45 
  -3  12   6   39.05    2.26 
   2 -12  -6  106.31    3.40 
  -2  12   6  110.83    3.45 
  -2  12   6  107.66    3.15 
  -2  12   6   97.16    5.03 
  -2  12   6  107.35    3.90 
   1 -12  -6  149.11    4.30 
  -1  12   6  146.99    4.26 
  -1  12   6  149.66    4.54 
  -1  12   6  144.65    4.73 
  -1  12   6  152.62    4.47 
  -1  12   6  149.42    4.45 
   0 -12  -6  175.87    4.87 
   0 -12  -6  173.67    4.97 
   0  12   6  170.30    5.25 
   0  12   6  173.54    4.97 
   0  12   6  176.22    4.99 
   0  12   6  175.27    5.12 
   0  12   6  179.87    5.05 
  -1 -12  -6   60.69    2.45 
  -1 -12  -6   62.84    2.30 
   1  12   6   63.64    2.61 
   1  12   6   63.86    2.69 
   1  12   6   63.25    2.48 
   1  12   6   63.11    2.66 
   1  12   6   64.24    2.45 
  -2 -12  -6   25.47    1.71 
  -2 -12  -6   29.50    1.53 
   2  12   6   30.27    1.68 
   2  12   6   28.30    1.65 
   2  12   6   27.11    2.02 
   2  12   6   26.30    1.99 
   2  12   6   25.96    1.83 
  -3 -12  -6   13.01    1.63 
  -3 -12  -6   11.93    1.36 
   3  12   6   15.25    1.89 
   3  12   6   11.59    1.24 
   3  12   6   11.74    1.38 
   3  12   6   11.47    1.25 
   3  12   6   11.03    1.47 
  -4 -12  -6    0.91    0.90 
   4  12   6    1.97    1.07 
   4  12   6   -0.15    0.59 
   4  12   6    0.67    0.76 
   4  12   6    0.71    1.12 
   4  12   6    0.11    0.59 
  -5 -12  -6    1.17    0.98 
   5  12   6    2.44    0.78 
   5  12   6    1.25    0.57 
   5  12   6    3.50    1.13 
   5  12   6    2.16    1.17 
  -6 -12  -6    7.92    1.17 
   6  12   6    7.85    1.45 
   6  12   6    8.46    1.17 
  -7 -12  -6    3.68    1.13 
   7  12   6    6.87    1.49 
  -8 -12  -6    1.19    0.99 
   8  12   6   -0.09    1.44 
  -9 -12  -6    1.77    1.20 
   9  12   6    5.73    1.74 
   7 -13  -6    6.71    1.36 
  -7  13   6    7.18    1.75 
  -7  13   6    6.64    1.68 
   6 -13  -6   24.26    2.11 
  -6  13   6   22.05    2.89 
  -6  13   6   21.72    2.64 
   5 -13  -6   72.41    3.04 
  -5  13   6   77.72    3.68 
  -5  13   6   76.59    3.42 
   4 -13  -6   98.74    3.56 
  -4  13   6  108.49    4.09 
  -4  13   6  105.81    3.86 
   3 -13  -6   78.79    2.96 
  -3  13   6   80.24    2.50 
  -3  13   6   79.48    3.18 
  -3  13   6   82.07    3.02 
  -3  13   6   81.17    3.41 
   2 -13  -6   58.76    2.43 
  -2  13   6   56.74    2.60 
  -2  13   6   58.57    2.26 
  -2  13   6   63.27    2.84 
  -2  13   6   60.37    2.54 
  -2  13   6   59.23    3.00 
   1 -13  -6   37.32    1.88 
  -1  13   6   36.15    1.99 
  -1  13   6   33.51    3.58 
  -1  13   6   35.27    2.43 
  -1  13   6   34.53    1.92 
  -1  13   6   38.58    2.16 
   0 -13  -6   16.50    1.65 
   0 -13  -6   14.11    1.37 
   0  13   6   13.84    1.66 
   0  13   6   12.34    1.31 
   0  13   6   16.59    1.93 
   0  13   6   11.74    1.60 
   0  13   6   12.44    1.75 
  -1 -13  -6    1.14    0.91 
  -1 -13  -6    1.06    0.79 
   1  13   6    2.61    0.92 
   1  13   6    1.82    1.08 
   1  13   6    1.62    0.84 
   1  13   6   -0.36    0.86 
   1  13   6    0.98    1.00 
  -2 -13  -6   14.39    1.63 
  -2 -13  -6   13.14    1.34 
   2  13   6   14.04    1.46 
   2  13   6   15.28    1.70 
   2  13   6   10.87    1.37 
   2  13   6   12.49    1.50 
   2  13   6   14.13    1.55 
  -3 -13  -6   23.22    1.80 
  -3 -13  -6   26.43    1.56 
   3  13   6   26.59    1.85 
   3  13   6   28.93    2.33 
   3  13   6   26.62    2.28 
   3  13   6   24.13    1.64 
   3  13   6   26.04    1.57 
  -4 -13  -6   15.83    1.63 
   4  13   6   17.33    1.59 
   4  13   6   15.70    1.74 
   4  13   6   15.92    1.24 
   4  13   6   15.34    1.37 
  -5 -13  -6    3.59    1.08 
   5  13   6    4.66    0.92 
   5  13   6    0.67    1.30 
  -6 -13  -6    2.84    1.07 
   6  13   6    1.44    1.40 
  -7 -13  -6   10.15    1.44 
   7  13   6   11.37    1.95 
  -8 -13  -6   34.24    2.43 
   8  13   6   28.37    3.47 
   6 -14  -6   84.17    3.50 
  -6  14   6   86.41    3.97 
  -6  14   6   86.19    4.23 
   5 -14  -6  100.98    3.79 
  -5  14   6  108.55    4.56 
  -5  14   6  109.78    4.21 
   4 -14  -6   68.25    2.83 
  -4  14   6   63.15    2.77 
  -4  14   6   64.61    3.10 
  -4  14   6   67.49    3.50 
   3 -14  -6   31.46    1.99 
  -3  14   6   40.02    2.72 
  -3  14   6   31.64    2.33 
  -3  14   6   31.53    1.69 
  -3  14   6   35.67    2.27 
   2 -14  -6    4.96    0.99 
  -2  14   6    2.91    1.04 
  -2  14   6    2.55    1.17 
  -2  14   6    2.99    1.26 
  -2  14   6    5.63    0.97 
   1 -14  -6   -0.08    0.83 
  -1  14   6   -0.31    1.10 
  -1  14   6    0.98    0.92 
  -1  14   6    2.36    1.16 
  -1  14   6    0.39    0.94 
  -1  14   6    0.73    1.20 
   0  14   6    0.48    1.09 
   0  14   6    2.66    1.22 
   0  14   6    2.99    1.16 
   0  14   6    3.13    1.00 
   0  14   6    2.07    1.02 
  -1 -14  -6   11.04    1.11 
  -1 -14  -6    8.82    1.21 
   1  14   6    9.83    1.37 
   1  14   6    8.03    1.38 
   1  14   6   10.24    1.50 
   1  14   6   10.94    1.21 
   1  14   6    9.45    1.27 
  -2 -14  -6   15.32    1.51 
  -2 -14  -6   17.15    1.47 
   2  14   6   16.92    1.80 
   2  14   6   16.36    1.97 
   2  14   6   15.56    1.60 
   2  14   6   16.69    1.67 
  -3 -14  -6   -0.70    0.97 
  -3 -14  -6    0.75    0.83 
   3  14   6    0.79    1.04 
   3  14   6    0.40    0.73 
   3  14   6   -1.16    0.87 
   3  14   6   -1.06    1.19 
  -4 -14  -6    4.47    1.15 
   4  14   6    1.93    1.37 
   4  14   6    5.70    1.11 
   4  14   6    5.18    0.95 
  -5 -14  -6   15.23    1.65 
   5  14   6   14.32    1.49 
   5  14   6   16.16    2.07 
  -6 -14  -6   38.59    2.45 
   6  14   6   42.48    3.47 
   4 -15  -6    0.75    0.96 
  -4  15   6    1.26    1.26 
  -4  15   6    0.14    1.52 
   3 -15  -6    1.32    0.96 
  -3  15   6    2.08    1.54 
  -3  15   6    1.01    1.17 
   2 -15  -6   12.80    1.32 
  -2  15   6   14.39    1.98 
  -2  15   6   13.99    1.57 
  -2  15   6   13.35    1.85 
  -2  15   6   12.84    1.72 
   1 -15  -6   10.22    1.17 
  -1  15   6    9.90    1.37 
  -1  15   6   10.80    1.60 
  -1  15   6   12.27    1.41 
  -1  15   6   12.36    1.56 
   0 -15  -6   10.05    1.15 
   0  15   6    7.25    1.35 
   0  15   6    8.15    1.47 
   0  15   6    9.58    1.33 
  -1 -15  -6    5.96    1.24 
  -1 -15  -6    5.86    1.01 
   1  15   6    3.26    1.31 
   1  15   6    5.23    1.31 
   1  15   6    5.51    1.12 
   1  15   6    5.63    1.39 
  -2 -15  -6   17.98    2.00 
  -2 -15  -6   16.09    1.61 
   2  15   6   16.21    1.61 
   2  15   6   20.08    2.27 
   2  15   6   14.48    1.50 
   2  15   6   16.86    1.84 
  -3 -15  -6   34.27    1.88 
  -3 -15  -6   35.86    2.35 
   3  15   6   28.90    2.30 
   3  15   6   32.01    2.13 
   3  15   6   31.81    2.94 
  -4 -15  -6   43.67    2.59 
   4  15   6   42.53    3.31 
  -1  10  -7   -2.08    1.58 
   1 -10   7    0.82    1.70 
  -2  10  -7   -0.97    1.59 
   2 -10   7   -2.50    1.58 
  -3  10  -7    6.38    1.79 
   3 -10   7    8.25    1.90 
  -4  10  -7   19.07    2.16 
   4 -10   7   20.24    2.26 
  -5  10  -7   75.50    3.94 
   5 -10   7   82.91    4.14 
   5 -10   7   76.85    2.64 
  -6  10  -7   88.75    4.10 
  -6  10  -7   90.87    4.01 
   6 -10   7   96.53    3.20 
   6 -10   7   98.63    4.44 
  -7  10  -7   80.19    3.85 
  -7  10  -7   70.92    3.41 
   7 -10   7   78.07    3.02 
   7 -10   7   85.84    4.20 
  -2  -9   7    6.64    1.28 
  -2  -9   7    4.85    1.59 
   1   9  -7    0.78    1.58 
  -1  -9   7    0.10    1.47 
   0   9  -7   -0.80    1.49 
   0  -9   7   -1.15    1.40 
  -1   9  -7    5.20    1.60 
   1  -9   7    5.19    1.52 
  -2   9  -7   24.79    2.83 
   2  -9   7   18.41    1.98 
  -3   9  -7   45.15    3.17 
  -3   9  -7   44.50    2.08 
   3  -9   7   46.14    3.07 
  -4   9  -7   71.74    3.53 
  -4   9  -7   65.66    2.75 
   4  -9   7   67.47    2.30 
   4  -9   7   69.71    3.55 
  -5   9  -7   98.78    3.59 
  -5   9  -7   98.78    4.15 
   5  -9   7  105.39    3.22 
   5  -9   7  104.08    4.30 
  -6   9  -7   44.97    2.66 
  -6   9  -7   54.08    3.07 
   6  -9   7   49.78    3.23 
   6  -9   7   48.66    2.26 
   6  -9   7   53.03    3.35 
  -7   9  -7   16.63    1.76 
  -7   9  -7   14.70    1.60 
   7  -9   7   15.13    1.78 
   7  -9   7   18.54    2.09 
   7  -9   7   19.88    1.99 
  -8   9  -7   11.05    1.58 
  -8   9  -7    9.40    1.45 
   8  -9   7    6.78    1.22 
   8  -9   7    7.21    1.71 
   8  -9   7   13.74    1.88 
   9  -9   7   -0.61    1.62 
   9  -9   7    1.89    1.14 
   9  -9   7    2.57    1.51 
   3   8  -7   -2.10    1.68 
  -3  -8   7    0.38    1.27 
  -3  -8   7   -1.04    0.94 
   2   8  -7   -1.06    1.51 
  -2  -8   7   -0.20    0.86 
  -2  -8   7   -1.52    1.24 
   1   8  -7   22.21    2.86 
  -1  -8   7   18.08    2.29 
  -1  -8   7   20.20    1.59 
   0   8  -7   43.39    3.16 
   0  -8   7   34.88    2.62 
  -1   8  -7   85.21    3.89 
   1  -8   7   81.41    3.54 
  -2   8  -7   82.09    3.69 
   2  -8   7   81.10    3.66 
   2  -8   7   78.81    3.46 
  -3   8  -7  110.77    4.26 
  -3   8  -7  111.44    3.49 
   3  -8   7  114.88    3.14 
   3  -8   7  114.87    4.19 
   3  -8   7  108.99    4.23 
  -4   8  -7   60.39    2.58 
  -4   8  -7   61.16    3.15 
   4  -8   7   63.78    2.23 
   4  -8   7   64.33    3.12 
   4  -8   7   57.00    3.11 
  -5   8  -7   17.95    1.95 
  -5   8  -7   23.47    2.34 
   5  -8   7   18.22    1.53 
   5  -8   7   15.97    1.67 
   5  -8   7   21.96    2.34 
  -6   8  -7    1.33    1.05 
  -6   8  -7    3.13    1.21 
   6  -8   7    2.06    0.91 
   6  -8   7    0.80    1.17 
   6  -8   7    3.20    1.29 
  -7   8  -7   -1.59    1.01 
  -7   8  -7    2.13    1.18 
   7  -8   7    1.25    0.94 
   7  -8   7    2.82    1.31 
   7  -8   7   -0.62    1.12 
  -8   8  -7    2.58    1.21 
   8  -8   7   -0.75    1.19 
   8  -8   7    4.96    1.13 
   8  -8   7    7.00    1.49 
  -9   8  -7    4.03    1.79 
   9  -8   7    3.94    1.16 
   9  -8   7    4.49    1.52 
 -11   8  -7    3.26    1.88 
  11  -8   7    1.64    1.55 
  11  -8   7   -3.73    1.50 
  11  -8   7    0.49    1.10 
   5   7  -7    0.97    2.06 
  -5  -7   7   -1.33    1.72 
  -5  -7   7    0.35    1.83 
   4   7  -7    2.54    1.71 
  -4  -7   7    2.89    1.23 
  -4  -7   7    1.35    0.95 
   3   7  -7   21.60    2.28 
  -3  -7   7   28.14    1.72 
  -3  -7   7   26.23    2.65 
   2   7  -7   35.89    3.08 
  -2  -7   7   34.55    1.83 
   1   7  -7   78.03    3.07 
   1   7  -7   80.50    3.66 
  -1  -7   7   61.33    3.05 
  -1  -7   7   77.93    2.57 
   0   7  -7   75.55    3.00 
   0   7  -7   77.66    3.53 
   0  -7   7   69.57    3.11 
   0  -7   7   67.77    3.34 
  -1   7  -7   74.20    3.41 
  -1   7  -7   70.52    2.91 
  -1   7  -7   67.48    2.23 
   1  -7   7   72.60    3.29 
   1  -7   7   73.23    3.15 
  -2   7  -7   56.84    2.97 
  -2   7  -7   54.91    2.19 
  -2   7  -7   54.28    2.51 
   2  -7   7   58.26    1.81 
   2  -7   7   54.51    2.79 
  -3   7  -7   59.83    2.39 
  -3   7  -7   62.82    3.03 
   3  -7   7   65.41    2.12 
   3  -7   7   63.10    3.00 
  -4   7  -7    8.82    1.31 
  -4   7  -7    9.56    1.08 
   4  -7   7   10.21    0.98 
   4  -7   7    8.58    1.39 
  -5   7  -7    4.91    1.15 
  -5   7  -7    4.56    0.98 
   5  -7   7    7.71    1.36 
   5  -7   7    3.78    1.48 
  -6   7  -7   -0.12    1.04 
  -6   7  -7    3.00    0.95 
   6  -7   7    3.42    1.12 
   6  -7   7    1.62    0.86 
  -7   7  -7    6.37    1.21 
  -7   7  -7    5.62    1.05 
   7  -7   7    5.37    1.07 
   7  -7   7    7.39    1.36 
   7  -7   7    6.67    2.08 
  -8   7  -7    2.62    1.20 
   8  -7   7    2.06    1.53 
   8  -7   7    4.42    1.29 
   8  -7   7    4.82    1.04 
  -9   7  -7    5.22    1.24 
   9  -7   7    5.49    1.37 
   9  -7   7    5.68    1.14 
  10  -7   7   -0.02    1.27 
  10  -7   7   -0.50    1.01 
 -11   7  -7   20.22    2.36 
  11  -7   7   23.51    2.77 
  11  -7   7   23.56    2.17 
 -12   7  -7   36.50    3.60 
  12  -7   7   46.83    2.66 
  12  -7   7   41.52    3.14 
   6   6  -7   14.62    2.17 
  -6  -6   7   21.65    2.77 
   5   6  -7   13.49    2.01 
  -5  -6   7   16.44    1.66 
  -5  -6   7   14.05    1.75 
   4   6  -7   60.26    3.68 
  -4  -6   7   58.63    2.64 
  -4  -6   7   58.19    2.29 
   3   6  -7   79.89    3.23 
   3   6  -7   84.69    4.00 
  -3  -6   7   85.12    2.69 
  -3  -6   7   67.47    3.00 
   2   6  -7   60.91    3.38 
   2   6  -7   64.19    2.80 
  -2  -6   7   64.65    2.33 
   1   6  -7   55.90    3.04 
   1   6  -7   52.69    2.53 
  -1  -6   7   47.16    2.48 
  -1  -6   7   53.82    2.00 
   0   6  -7   29.68    2.38 
   0   6  -7   26.26    1.89 
   0  -6   7   21.83    1.91 
   0  -6   7   26.30    1.45 
  -1   6  -7    8.83    1.35 
  -1   6  -7   10.57    1.13 
  -1   6  -7   11.83    1.12 
   1  -6   7   10.35    1.46 
  -2   6  -7    1.19    0.66 
  -2   6  -7    0.20    0.74 
  -2   6  -7   -0.20    0.96 
  -3   6  -7   23.02    1.60 
  -3   6  -7   23.91    2.10 
   3  -6   7   26.22    2.00 
   3  -6   7   22.63    2.03 
  -4   6  -7    3.65    1.06 
   4  -6   7    2.15    0.92 
   4  -6   7    4.04    1.08 
  -5   6  -7    1.16    0.81 
  -5   6  -7    0.26    1.07 
   5  -6   7    0.80    0.95 
   5  -6   7    1.33    0.95 
  -6   6  -7    0.73    0.85 
  -6   6  -7    2.83    1.68 
   6  -6   7    1.49    0.94 
   6  -6   7    0.53    0.99 
  -7   6  -7    1.85    0.88 
   7  -6   7    2.07    1.01 
   7  -6   7   -0.60    0.91 
  -8   6  -7   36.20    1.39 
  -8   6  -7   34.02    2.24 
   8  -6   7   35.01    2.31 
   8  -6   7   36.67    2.35 
  -9   6  -7   65.00    3.05 
   9  -6   7   67.86    3.06 
   9  -6   7   73.28    2.84 
   9  -6   7   70.59    3.16 
 -10   6  -7   69.59    3.21 
  10  -6   7   71.39    2.94 
  10  -6   7   71.34    3.19 
  10  -6   7   74.86    3.39 
 -11   6  -7  123.68    4.93 
  11  -6   7  126.16    4.55 
  11  -6   7  116.59    4.30 
  11  -6   7  114.85    4.09 
 -12   6  -7   88.77    4.36 
  12  -6   7   82.74    3.44 
  12  -6   7   88.26    3.98 
 -13   6  -7   56.75    3.68 
  13  -6   7   53.08    3.51 
   7   5  -7   11.41    2.09 
  -7  -5   7   17.36    2.65 
   6   5  -7   48.21    3.67 
  -6  -5   7   51.37    2.32 
   5   5  -7   62.81    3.63 
  -5  -5   7   58.64    2.36 
   4   5  -7   98.87    4.11 
   4   5  -7   84.48    3.48 
  -4  -5   7   91.47    4.03 
  -4  -5   7   89.99    2.94 
   3   5  -7   46.14    2.96 
   3   5  -7   44.62    2.45 
  -3  -5   7   40.12    2.86 
  -3  -5   7   47.53    1.89 
   2   5  -7   11.67    1.50 
   2   5  -7   14.10    1.73 
  -2  -5   7    9.12    1.37 
  -2  -5   7   12.58    1.17 
   1   5  -7    1.14    0.85 
   1   5  -7    2.31    1.07 
  -1  -5   7    2.04    0.66 
  -1  -5   7    2.37    0.56 
   0   5  -7   -0.28    0.73 
   0   5  -7   -0.77    0.48 
   0   5  -7   -0.34    0.92 
   0  -5   7    0.37    0.51 
   0  -5   7    0.40    0.57 
  -1   5  -7   17.00    1.93 
  -1   5  -7   19.13    1.29 
  -1   5  -7   20.93    1.60 
   1  -5   7   19.35    1.21 
  -2   5  -7   69.74    2.46 
  -2   5  -7   63.83    4.28 
  -2   5  -7   69.74    2.58 
   2  -5   7   73.59    2.32 
   2  -5   7   69.61    2.88 
  -3   5  -7    8.58    1.17 
  -3   5  -7    7.63    0.90 
   3  -5   7    7.95    1.10 
   3  -5   7    8.65    1.11 
  -4   5  -7    3.34    0.94 
  -4   5  -7    1.46    0.78 
   4  -5   7    4.09    0.92 
   4  -5   7    3.61    0.95 
  -5   5  -7    1.16    0.85 
  -5   5  -7    1.28    0.77 
   5  -5   7    2.58    0.89 
  -6   5  -7   26.22    1.71 
  -6   5  -7   25.37    1.91 
   6  -5   7   26.64    1.95 
   6  -5   7   24.94    1.90 
  -7   5  -7   57.13    2.43 
  -7   5  -7   56.50    1.96 
   7  -5   7   57.67    2.60 
   7  -5   7   56.02    2.54 
  -8   5  -7  116.33    3.87 
  -8   5  -7  116.27    3.12 
   8  -5   7  120.77    3.99 
   8  -5   7  117.27    3.87 
  -9   5  -7  104.70    3.82 
   9  -5   7  112.37    3.91 
   9  -5   7  115.26    3.86 
 -10   5  -7   64.20    3.06 
  10  -5   7   67.24    3.04 
  10  -5   7   63.33    2.90 
 -11   5  -7   51.76    3.28 
  11  -5   7   48.58    2.71 
  11  -5   7   51.02    2.52 
  11  -5   7   49.08    2.89 
 -12   5  -7   23.57    2.19 
  12  -5   7   28.30    2.09 
  12  -5   7   22.02    2.41 
  12  -5   7   24.37    2.61 
 -13   5  -7    3.53    1.75 
  13  -5   7    1.54    1.48 
  13  -5   7    1.15    1.18 
   7   4  -7   57.44    3.80 
  -7  -4   7   56.05    2.46 
   6   4  -7   71.71    3.76 
  -6  -4   7   64.81    2.49 
  -6  -4   7   68.52    2.52 
   5   4  -7   42.66    2.97 
   5   4  -7   37.06    2.48 
  -5  -4   7   40.16    1.90 
  -5  -4   7   38.90    2.93 
  -5  -4   7   39.08    1.83 
   4   4  -7   14.56    1.90 
   4   4  -7   10.74    1.55 
  -4  -4   7   11.85    1.34 
  -4  -4   7   11.35    1.55 
   3   4  -7   -1.15    1.06 
   3   4  -7    0.08    0.89 
  -3  -4   7   -0.04    0.65 
  -3  -4   7   -0.51    0.56 
  -3  -4   7    0.87    1.07 
   2   4  -7    1.72    0.88 
   2   4  -7    2.07    1.06 
  -2  -4   7    1.59    1.03 
  -2  -4   7    3.37    0.64 
  -2  -4   7    2.22    0.56 
   1   4  -7   -0.36    0.72 
   1   4  -7    0.38    0.99 
  -1  -4   7   -0.06    0.50 
  -1  -4   7    0.54    0.87 
  -1  -4   7    0.40    0.57 
   0   4  -7    8.44    1.16 
   0   4  -7    8.05    0.99 
   0   4  -7    8.43    0.97 
   0  -4   7    8.48    0.90 
   0  -4   7    9.94    0.98 
   0  -4   7    8.42    1.14 
  -1   4  -7    6.97    0.76 
  -1   4  -7    7.13    1.05 
  -1   4  -7    6.99    0.88 
   1  -4   7    8.26    0.96 
   1  -4   7    6.10    0.98 
  -2   4  -7    1.87    0.87 
  -2   4  -7    1.61    0.65 
  -2   4  -7    1.30    0.72 
   2  -4   7    2.11    0.59 
   2  -4   7    1.89    0.78 
  -3   4  -7   70.02    2.42 
  -3   4  -7   66.65    2.66 
   3  -4   7   70.18    2.29 
   3  -4   7   66.94    2.65 
  -4   4  -7   69.00    2.48 
  -4   4  -7   70.04    2.70 
   4  -4   7   67.88    2.67 
   4  -4   7   71.09    2.36 
  -5   4  -7  109.38    3.57 
  -5   4  -7  108.98    3.38 
   5  -4   7  113.20    3.57 
   5  -4   7  108.27    3.57 
  -6   4  -7  119.92    3.78 
  -6   4  -7  117.21    3.61 
   6  -4   7  121.08    3.79 
   6  -4   7  117.44    3.76 
  -7   4  -7  135.88    3.71 
  -7   4  -7  139.07    4.16 
   7  -4   7  139.51    4.25 
  -8   4  -7  140.89    4.32 
  -8   4  -7  137.22    3.62 
   8  -4   7  140.22    4.38 
   8  -4   7  140.05    4.27 
  -9   4  -7   51.30    2.51 
   9  -4   7   51.48    2.43 
   9  -4   7   50.24    2.47 
 -10   4  -7   13.76    1.47 
  10  -4   7   13.10    1.82 
  10  -4   7   12.94    1.79 
 -11   4  -7    7.71    1.50 
 -11   4  -7    5.52    1.26 
  11  -4   7    5.91    1.30 
  11  -4   7    5.30    1.17 
 -12   4  -7   -2.94    1.35 
  12  -4   7   -0.08    0.92 
  12  -4   7    1.61    1.18 
  12  -4   7    1.45    1.10 
 -13   4  -7    3.11    1.65 
  13  -4   7    4.39    1.42 
  13  -4   7    3.20    1.12 
 -14   4  -7    7.32    2.02 
  14  -4   7    6.63    1.63 
   8   3  -7   31.80    3.42 
  -8  -3   7   34.72    2.46 
  -8  -3   7   34.99    2.10 
   7   3  -7   23.95    2.96 
  -7  -3   7   23.52    2.19 
  -7  -3   7   23.87    1.67 
   6   3  -7   12.30    1.68 
   6   3  -7   12.87    1.51 
  -6  -3   7   10.79    1.62 
  -6  -3   7   14.33    1.43 
  -6  -3   7   12.99    1.23 
   5   3  -7   -1.93    1.11 
   5   3  -7    1.20    1.04 
  -5  -3   7   -0.27    1.20 
  -5  -3   7   -0.70    0.74 
  -5  -3   7   -0.26    0.79 
   4   3  -7    0.59    0.89 
   4   3  -7    1.66    1.10 
  -4  -3   7    0.62    1.10 
  -4  -3   7    1.20    0.74 
  -4  -3   7    0.50    0.68 
   3   3  -7   19.50    2.09 
   3   3  -7   20.56    1.74 
  -3  -3   7   21.32    2.06 
  -3  -3   7   20.50    1.40 
  -3  -3   7   21.49    1.23 
   2   3  -7    2.98    0.99 
   2   3  -7    3.16    0.85 
  -2  -3   7    3.49    0.68 
  -2  -3   7    3.30    1.00 
  -2  -3   7    4.18    0.62 
   1   3  -7    5.58    1.02 
   1   3  -7    5.72    0.67 
   1   3  -7    5.17    0.83 
  -1  -3   7    4.99    0.98 
  -1  -3   7    6.96    0.74 
  -1  -3   7    6.43    0.68 
   0   3  -7    9.34    0.97 
   0   3  -7    8.05    0.87 
   0   3  -7    6.28    1.02 
   0  -3   7    8.38    0.77 
   0  -3   7    7.06    0.98 
   0  -3   7    9.29    0.93 
  -1   3  -7    9.77    1.07 
  -1   3  -7   12.42    1.50 
  -1   3  -7   11.92    1.21 
   1  -3   7   11.34    1.42 
   1  -3   7   11.41    0.99 
  -2   3  -7   92.72    3.15 
  -2   3  -7   93.63    2.88 
   2  -3   7   94.44    2.74 
   2  -3   7   91.90    3.13 
  -3   3  -7  188.88    5.08 
  -3   3  -7  188.20    5.27 
   3  -3   7  192.44    4.97 
   3  -3   7  185.39    5.28 
  -4   3  -7  192.61    5.30 
  -4   3  -7  196.18    5.43 
   4  -3   7  193.73    5.43 
   4  -3   7  203.97    5.21 
  -5   3  -7  180.95    5.06 
   5  -3   7  184.14    4.90 
   5  -3   7  177.18    5.07 
  -6   3  -7   52.24    2.11 
  -6   3  -7   52.67    1.84 
   6  -3   7   54.08    2.20 
   6  -3   7   50.27    2.18 
  -7   3  -7   94.75    2.72 
  -7   3  -7   95.41    3.17 
   7  -3   7   95.46    3.22 
   7  -3   7  100.23    3.24 
  -8   3  -7   12.72    0.90 
  -8   3  -7   12.54    1.51 
   8  -3   7   13.57    1.53 
   8  -3   7   12.60    1.56 
  -9   3  -7    3.29    0.97 
   9  -3   7    3.53    0.90 
 -10   3  -7    8.75    1.25 
 -10   3  -7    8.81    1.53 
  10  -3   7    9.82    1.24 
  10  -3   7    9.94    1.17 
 -11   3  -7    2.53    1.23 
 -11   3  -7   -0.97    0.96 
  11  -3   7   -0.06    0.90 
  11  -3   7    1.03    1.02 
 -12   3  -7    7.13    1.41 
  12  -3   7    5.11    1.27 
  12  -3   7    3.71    1.11 
  13  -3   7    2.21    1.23 
  13  -3   7   -1.54    0.91 
 -14   3  -7    8.25    1.92 
  14  -3   7    6.09    1.22 
  14  -3   7    7.93    1.60 
   9   2  -7    8.18    1.91 
  -9  -2   7    5.06    1.56 
   8   2  -7    3.25    1.57 
   8   2  -7    5.14    0.91 
  -8  -2   7    5.48    1.39 
  -8  -2   7    6.35    1.42 
   7   2  -7    0.93    1.30 
   7   2  -7    1.93    0.75 
   7   2  -7   -1.37    1.21 
  -7  -2   7    1.31    0.83 
  -7  -2   7    0.61    1.33 
  -7  -2   7    0.96    1.12 
  -7  -2   7    0.38    1.14 
   6   2  -7    0.62    1.14 
   6   2  -7    1.28    1.16 
   6   2  -7    2.54    0.71 
  -6  -2   7    1.76    1.11 
  -6  -2   7    1.30    0.82 
  -6  -2   7    0.83    1.02 
  -6  -2   7    0.80    1.23 
   5   2  -7    7.98    1.23 
   5   2  -7    7.25    0.77 
   5   2  -7    8.71    1.33 
  -5  -2   7    9.74    1.14 
  -5  -2   7    7.07    1.20 
  -5  -2   7    7.98    1.06 
  -5  -2   7    8.62    1.28 
   4   2  -7    2.12    1.20 
   4   2  -7    3.59    0.61 
   4   2  -7    2.78    0.99 
  -4  -2   7    2.97    0.91 
  -4  -2   7    3.35    1.03 
  -4  -2   7    4.70    0.86 
  -4  -2   7    4.43    0.69 
   3   2  -7    0.17    0.50 
   3   2  -7   -0.90    0.86 
   3   2  -7    1.59    0.79 
  -3  -2   7    0.52    0.84 
  -3  -2   7    0.56    0.51 
  -3  -2   7   -0.22    0.67 
   2   2  -7   18.47    1.00 
   2   2  -7   17.49    1.73 
   2   2  -7   18.29    1.47 
  -2  -2   7   17.56    1.30 
  -2  -2   7   18.67    1.73 
  -2  -2   7   17.60    1.01 
   1   2  -7   63.74    2.10 
   1   2  -7   62.25    2.57 
   1   2  -7   62.46    2.30 
  -1  -2   7   67.39    2.57 
  -1  -2   7   64.13    2.17 
  -1  -2   7   62.45    1.83 
   0   2  -7  127.05    3.66 
   0   2  -7  135.58    4.08 
   0   2  -7  132.26    3.82 
   0  -2   7  138.54    3.69 
   0  -2   7  134.05    4.06 
   0  -2   7  140.04    3.40 
  -1   2  -7   70.03    2.35 
  -1   2  -7   69.23    2.31 
  -1   2  -7   72.25    2.59 
   1  -2   7   72.18    2.57 
   1  -2   7   72.48    2.21 
  -2   2  -7  177.18    5.98 
  -2   2  -7  218.49    5.63 
   2  -2   7  219.03    5.32 
  -3   2  -7  125.85    3.66 
  -3   2  -7  129.40    3.80 
   3  -2   7  129.32    3.55 
  -4   2  -7   70.19    2.44 
  -4   2  -7   68.69    2.35 
   4  -2   7   65.05    2.21 
  -5   2  -7    4.93    0.72 
  -5   2  -7    4.98    0.76 
   5  -2   7    5.37    0.68 
  -6   2  -7    5.37    0.78 
  -6   2  -7    6.24    0.71 
   6  -2   7    5.30    0.73 
   6  -2   7    5.71    0.80 
  -7   2  -7    0.13    0.49 
  -7   2  -7    0.34    0.59 
   7  -2   7    0.22    0.67 
   7  -2   7    0.11    0.66 
  -8   2  -7   31.92    1.83 
  -8   2  -7   28.94    1.25 
   8  -2   7   29.65    1.77 
   8  -2   7   30.54    1.75 
  -9   2  -7   16.18    1.70 
   9  -2   7   17.38    1.64 
   9  -2   7   17.82    1.64 
 -10   2  -7   37.28    2.33 
  10  -2   7   34.61    2.01 
  10  -2   7   34.40    2.05 
 -11   2  -7    2.10    1.47 
  11  -2   7    1.56    0.91 
  11  -2   7    1.96    1.01 
 -12   2  -7   11.91    1.53 
  12  -2   7   12.63    1.42 
  12  -2   7    9.90    1.27 
 -13   2  -7   23.29    2.59 
  13  -2   7   26.37    2.27 
 -14   2  -7   33.51    3.15 
  14  -2   7   42.87    2.74 
  14  -2   7   39.14    2.42 
   9   1  -7   -1.41    1.55 
   9   1  -7    0.66    0.96 
  -9  -1   7   -1.62    1.36 
  -9  -1   7   -0.46    1.46 
   8   1  -7    3.17    1.47 
   8   1  -7    4.54    0.94 
  -8  -1   7    4.07    1.08 
  -8  -1   7    5.83    1.39 
  -8  -1   7    5.76    1.34 
   7   1  -7    2.18    1.27 
   7   1  -7    4.09    1.28 
   7   1  -7    4.26    0.85 
  -7  -1   7    4.10    1.18 
  -7  -1   7    2.24    1.26 
  -7  -1   7    4.93    1.17 
   6   1  -7   -0.05    0.71 
   6   1  -7   -0.01    1.02 
   6   1  -7   -0.62    1.07 
  -6  -1   7   -1.42    0.91 
  -6  -1   7    0.56    0.96 
  -6  -1   7   -0.25    1.08 
   5   1  -7    0.46    0.98 
   5   1  -7    1.55    0.97 
   5   1  -7    2.59    0.70 
  -5  -1   7    0.85    0.87 
  -5  -1   7    1.57    0.95 
  -5  -1   7    2.04    1.00 
   4   1  -7    3.72    0.93 
   4   1  -7    3.74    1.05 
   4   1  -7    4.00    0.63 
  -4  -1   7    3.88    0.98 
  -4  -1   7    3.92    0.63 
  -4  -1   7    4.73    0.87 
  -4  -1   7    1.17    1.47 
   3   1  -7   79.70    2.33 
   3   1  -7   79.03    2.97 
   3   1  -7   81.35    2.82 
  -3  -1   7   79.69    2.97 
  -3  -1   7   77.80    2.55 
  -3  -1   7   80.53    2.70 
  -3  -1   7   79.96    2.76 
   2   1  -7  132.42    3.92 
   2   1  -7  130.53    4.06 
   2   1  -7  135.96    3.52 
  -2  -1   7  134.39    3.42 
  -2  -1   7  134.54    4.07 
  -2  -1   7  135.43    3.82 
  -2  -1   7  133.76    3.87 
   1   1  -7  201.39    4.99 
   1   1  -7  200.78    5.50 
   1   1  -7  202.90    5.34 
   1   1  -7  195.78    5.19 
  -1  -1   7  204.31    5.26 
  -1  -1   7  189.01    4.94 
   0   1  -7  236.68    6.26 
   0   1  -7  227.33    6.00 
   0  -1   7  240.39    6.05 
   0  -1   7  234.61    6.27 
  -1   1  -7   47.32    1.81 
  -1   1  -7   47.45    1.97 
  -1   1  -7   48.69    1.78 
   1  -1   7   49.88    2.00 
   1  -1   7   52.14    1.79 
  -2   1  -7  314.62    7.82 
  -2   1  -7  311.55    7.99 
   2  -1   7  313.71    8.02 
   2  -1   7  314.17    7.80 
  -3   1  -7   23.14    1.39 
  -3   1  -7   22.32    1.16 
  -3   1  -7   23.86    1.35 
   3  -1   7   23.94    1.21 
   3  -1   7   25.16    1.40 
  -4   1  -7   14.91    1.23 
  -4   1  -7   14.49    1.17 
   4  -1   7   14.22    1.05 
   4  -1   7   14.18    1.21 
  -5   1  -7   20.57    1.13 
  -5   1  -7   20.26    1.33 
   5  -1   7   22.34    1.24 
   5  -1   7   20.07    1.36 
  -6   1  -7    5.30    0.63 
   6  -1   7    3.75    0.66 
   6  -1   7    4.14    0.70 
  -7   1  -7    1.63    0.52 
  -7   1  -7    1.58    0.70 
   7  -1   7    1.04    0.63 
   7  -1   7    2.25    0.77 
  -8   1  -7    7.09    0.90 
  -8   1  -7    6.40    0.87 
   8  -1   7    6.09    0.87 
   8  -1   7    5.30    0.83 
  -9   1  -7   -0.83    0.86 
   9  -1   7    0.54    0.73 
   9  -1   7    0.03    0.76 
 -10   1  -7   11.41    1.27 
  10  -1   7   12.22    1.57 
  10  -1   7   13.58    1.52 
 -11   1  -7   89.62    3.24 
  11  -1   7   81.49    3.14 
  11  -1   7   86.09    3.07 
 -12   1  -7   75.66    3.35 
 -12   1  -7   81.98    3.32 
  12  -1   7   76.49    3.51 
  12  -1   7   83.44    3.16 
 -13   1  -7   64.26    3.24 
  13  -1   7   69.96    2.95 
 -14   1  -7   80.55    3.76 
  14  -1   7   85.74    3.38 
  14  -1   7   70.66    3.41 
  14  -1   7   81.77    3.26 
   9   0  -7    0.94    1.46 
   9   0  -7    3.19    1.00 
  -9   0   7    2.81    1.50 
  -9   0   7    0.64    1.09 
  -9   0   7    1.02    1.42 
   8   0  -7    1.43    1.29 
   8   0  -7    2.03    0.86 
  -8   0   7    0.53    1.07 
  -8   0   7    1.31    1.24 
  -8   0   7    1.96    1.28 
   7   0  -7    6.89    1.31 
   7   0  -7    7.83    1.59 
   7   0  -7    9.57    0.99 
  -7   0   7    9.81    1.44 
  -7   0   7    7.92    1.28 
  -7   0   7    8.52    1.24 
   6   0  -7   37.52    1.74 
   6   0  -7   37.53    2.42 
   6   0  -7   37.25    2.34 
  -6   0   7   39.31    2.23 
  -6   0   7   37.49    2.26 
  -6   0   7   32.60    2.25 
   5   0  -7   46.08    2.37 
   5   0  -7   48.11    1.82 
   5   0  -7   46.75    2.43 
  -5   0   7   46.30    2.34 
  -5   0   7   48.26    2.20 
  -5   0   7   45.51    2.28 
   4   0  -7   51.08    2.08 
   4   0  -7   51.74    2.31 
   4   0  -7   52.51    2.33 
  -4   0   7   50.67    2.17 
  -4   0   7   51.72    2.27 
  -4   0   7   51.79    2.33 
   3   0  -7  169.58    4.86 
   3   0  -7  169.33    4.79 
   3   0  -7  167.19    4.41 
  -3   0   7  169.78    4.75 
  -3   0   7  172.86    4.77 
   2   0  -7  105.39    3.30 
   2   0  -7  104.46    2.88 
   2   0  -7  101.63    3.18 
  -2   0   7  104.62    3.18 
  -2   0   7  104.14    3.27 
  -2   0   7  104.71    3.15 
   1   0  -7   85.32    2.37 
   1   0  -7   82.91    2.76 
  -1   0   7   80.27    2.62 
  -1   0   7   83.86    2.59 
  -1   0   7   82.07    2.74 
   0   0  -7   21.88    1.22 
   0   0  -7   21.03    1.36 
   0   0  -7   20.53    1.22 
   0   0  -7   22.19    1.02 
   0   0   7   20.67    1.27 
   0   0   7   22.78    1.38 
  -1   0  -7   -0.38    0.44 
  -1   0  -7   -0.30    0.51 
  -1   0  -7   -0.29    0.43 
   1   0   7    0.00    0.49 
   1   0   7    0.70    0.50 
  -2   0  -7    9.35    1.06 
  -2   0  -7    9.54    1.24 
  -2   0  -7    8.38    0.87 
   2   0   7    7.98    0.95 
   2   0   7    8.41    1.05 
  -3   0  -7   37.77    1.65 
  -3   0  -7   38.81    1.57 
  -3   0  -7   39.44    1.65 
   3   0   7   38.26    1.64 
   3   0   7   38.96    1.53 
  -4   0  -7   20.47    1.27 
  -4   0  -7   20.88    1.15 
   4   0   7   20.43    1.18 
   4   0   7   22.02    1.29 
  -5   0  -7   15.78    1.25 
  -5   0  -7   15.28    0.99 
   5   0   7   14.54    1.12 
   5   0   7   15.32    1.19 
  -6   0  -7   -0.07    0.47 
  -6   0  -7    0.13    0.55 
   6   0   7   -0.15    0.51 
   6   0   7   -0.02    0.49 
  -7   0  -7   23.97    1.18 
  -7   0  -7   22.29    1.45 
   7   0   7   24.34    1.39 
  -8   0  -7   38.85    1.89 
  -8   0  -7   41.62    1.57 
   8   0   7   41.37    1.87 
   8   0   7   42.69    1.79 
   8   0   7   40.78    1.92 
  -9   0  -7   74.79    2.72 
   9   0   7   78.50    2.68 
   9   0   7   79.37    2.81 
 -10   0  -7  125.61    5.31 
 -10   0  -7  133.75    4.02 
  10   0   7  134.38    3.98 
  10   0   7  135.95    4.13 
 -11   0  -7  137.76    4.25 
  11   0   7  140.59    4.17 
  11   0   7  138.31    4.36 
 -12   0  -7   78.30    3.06 
 -12   0  -7   69.75    3.21 
  12   0   7   77.15    2.87 
  12   0   7   71.07    3.00 
 -13   0  -7   41.42    2.62 
  13   0   7   42.89    2.29 
 -14   0  -7   21.21    2.60 
  14   0   7   18.67    2.56 
  14   0   7   18.13    2.35 
 -15   0  -7    0.85    1.59 
  15   0   7    3.16    1.35 
  15   0   7    3.48    1.27 
  10  -1  -7    0.71    1.10 
  10  -1  -7   -0.64    1.53 
 -10   1   7    3.00    1.55 
 -10   1   7    1.87    1.74 
   9  -1  -7    4.31    1.44 
   9  -1  -7    4.04    1.05 
  -9   1   7    6.61    1.34 
  -9   1   7    5.96    1.48 
  -9   1   7    4.04    1.56 
   8  -1  -7   27.89    2.79 
   8  -1  -7   25.25    2.43 
   8  -1  -7   25.87    1.83 
  -8   1   7   26.99    2.49 
  -8   1   7   25.98    2.01 
  -8   1   7   23.61    2.39 
   7  -1  -7   66.39    2.97 
   7  -1  -7   64.94    3.08 
   7  -1  -7   66.97    2.52 
  -7   1   7   67.37    2.99 
  -7   1   7   73.83    3.02 
  -7   1   7   67.71    2.87 
   6  -1  -7  138.70    4.49 
   6  -1  -7  140.96    4.36 
  -6   1   7  137.33    4.38 
  -6   1   7  137.88    4.30 
  -6   1   7  139.18    4.35 
   5  -1  -7  187.48    4.88 
   5  -1  -7  182.02    5.30 
   5  -1  -7  190.53    5.21 
  -5   1   7  152.32    6.31 
  -5   1   7  190.50    5.21 
   4  -1  -7  146.88    4.23 
   4  -1  -7  140.54    4.27 
   4  -1  -7  142.73    3.89 
  -4   1   7  137.92    4.18 
  -4   1   7  144.06    4.17 
  -4   1   7  140.79    4.21 
   3  -1  -7   31.97    1.72 
   3  -1  -7   33.19    1.44 
   3  -1  -7   30.20    1.69 
  -3   1   7   30.51    1.68 
  -3   1   7   32.34    1.67 
  -3   1   7   29.59    1.67 
   2  -1  -7    3.65    0.70 
   2  -1  -7    3.64    0.71 
   2  -1  -7    3.39    0.56 
  -2   1   7    3.46    0.67 
  -2   1   7    2.71    0.70 
  -2   1   7    4.22    0.69 
   1  -1  -7    5.54    0.69 
   1  -1  -7    5.16    0.73 
   1  -1  -7    5.85    0.60 
   1  -1  -7    5.55    0.70 
  -1   1   7    5.13    0.67 
  -1   1   7    5.47    0.73 
  -1   1   7    5.35    0.73 
   0  -1  -7   15.18    1.17 
   0  -1  -7   15.97    0.93 
   0  -1  -7   14.59    1.04 
   0  -1  -7   12.83    1.70 
   0   1   7   14.20    1.04 
   0   1   7   15.65    1.17 
   0   1   7   15.79    1.20 
  -1  -1  -7   20.74    1.34 
  -1  -1  -7   20.17    1.21 
  -1  -1  -7   22.54    1.03 
  -1  -1  -7   21.25    1.12 
   1   1   7   21.08    1.26 
   1   1   7   21.91    1.46 
  -2  -1  -7   42.21    1.50 
  -2  -1  -7   40.06    2.35 
   2   1   7   45.33    1.72 
   2   1   7   43.68    1.75 
  -3  -1  -7   32.67    1.41 
  -3  -1  -7   32.37    1.27 
  -3  -1  -7   34.36    1.76 
   3   1   7   35.82    1.45 
  -4  -1  -7    1.43    0.51 
  -4  -1  -7    0.89    0.38 
  -4  -1  -7    1.15    0.55 
   4   1   7    1.52    0.54 
   4   1   7    1.12    0.48 
  -5  -1  -7    5.43    0.74 
  -5  -1  -7    6.21    0.84 
   5   1   7    5.35    0.69 
   5   1   7    4.95    0.62 
  -6  -1  -7  117.39    3.29 
  -6  -1  -7  118.70    3.50 
   6   1   7  118.97    3.48 
   6   1   7  118.57    3.42 
  -7  -1  -7  153.58    4.34 
  -7  -1  -7  155.13    4.11 
   7   1   7  153.82    4.27 
   7   1   7  149.62    4.73 
  -8  -1  -7  156.31    4.26 
  -8  -1  -7  164.86    4.59 
   8   1   7  155.50    4.24 
   8   1   7  159.83    4.49 
  -9  -1  -7  189.63    5.32 
  -9  -1  -7  188.63    5.08 
   9   1   7  188.73    5.08 
   9   1   7  183.96    4.99 
 -10  -1  -7   75.81    2.97 
 -10  -1  -7   78.97    2.67 
  10   1   7   79.72    2.85 
  10   1   7   73.17    2.63 
 -11  -1  -7   48.38    2.19 
  11   1   7   47.29    2.06 
  11   1   7   46.53    1.83 
 -12  -1  -7    2.79    1.12 
 -12  -1  -7    7.42    1.15 
  12   1   7    6.86    0.87 
  12   1   7    6.68    1.00 
 -13  -1  -7   -1.47    1.07 
 -13  -1  -7   -2.53    1.42 
  13   1   7    0.31    0.79 
  13   1   7    1.65    0.94 
 -14  -1  -7    5.75    1.34 
  14   1   7    6.53    1.21 
  14   1   7    7.31    1.12 
 -15  -1  -7   11.10    1.66 
  15   1   7   11.40    1.46 
  10  -2  -7   22.58    2.63 
  10  -2  -7   25.56    2.18 
 -10   2   7   25.20    2.52 
 -10   2   7   26.53    2.86 
 -10   2   7   33.97    3.35 
   9  -2  -7   45.14    2.76 
   9  -2  -7   41.94    2.39 
  -9   2   7   41.95    3.01 
  -9   2   7   51.48    3.17 
  -9   2   7   49.78    2.64 
   8  -2  -7   59.45    2.55 
   8  -2  -7   61.83    2.85 
   8  -2  -7   58.50    3.08 
  -8   2   7   65.18    3.10 
  -8   2   7   65.90    3.17 
  -8   2   7   60.77    2.73 
   7  -2  -7   90.00    3.60 
   7  -2  -7   96.39    3.36 
   7  -2  -7   95.18    3.14 
  -7   2   7   98.20    3.31 
  -7   2   7   99.19    3.58 
  -7   2   7   90.80    4.05 
  -7   2   7   88.20    3.59 
   6  -2  -7  123.66    4.25 
   6  -2  -7  138.62    4.07 
   6  -2  -7  132.12    3.88 
  -6   2   7  132.53    4.25 
  -6   2   7  129.36    4.23 
  -6   2   7  133.49    4.00 
   5  -2  -7   32.04    2.01 
   5  -2  -7   30.61    1.57 
   5  -2  -7   30.31    1.81 
  -5   2   7   28.16    1.97 
  -5   2   7   29.18    1.70 
  -5   2   7   30.08    1.93 
   4  -2  -7   19.67    1.58 
   4  -2  -7   20.41    1.26 
   4  -2  -7   22.32    1.51 
  -4   2   7   17.58    1.59 
  -4   2   7   20.08    1.45 
  -4   2   7   19.03    1.64 
   3  -2  -7   19.48    1.43 
   3  -2  -7   21.17    1.17 
   3  -2  -7   23.20    1.41 
  -3   2   7   19.81    1.57 
  -3   2   7   21.40    1.45 
  -3   2   7   17.31    1.49 
   2  -2  -7    0.13    0.50 
   2  -2  -7   -0.17    0.51 
   2  -2  -7   -0.47    0.62 
  -2   2   7   -0.04    0.58 
  -2   2   7    0.72    0.58 
  -2   2   7    0.26    0.61 
   1  -2  -7   40.59    1.61 
   1  -2  -7   39.79    1.62 
   1  -2  -7   40.01    1.45 
  -1   2   7   37.93    1.73 
  -1   2   7   38.37    1.58 
  -1   2   7   39.79    1.61 
   0  -2  -7   30.93    1.65 
   0  -2  -7   32.17    1.25 
   0  -2  -7   28.98    1.37 
   0  -2  -7   30.44    1.35 
   0   2   7   31.21    1.33 
   0   2   7   30.57    1.41 
   0   2   7   29.02    1.50 
  -1  -2  -7    4.30    0.54 
  -1  -2  -7    3.30    0.60 
  -1  -2  -7    4.30    0.55 
   1   2   7    4.14    0.59 
   1   2   7    3.87    0.54 
   1   2   7    3.36    0.61 
  -2  -2  -7   18.81    0.99 
  -2  -2  -7   16.56    0.95 
  -2  -2  -7   16.98    1.11 
   2   2   7   17.89    1.19 
   2   2   7   15.78    1.14 
  -3  -2  -7  106.29    2.96 
  -3  -2  -7  118.21    3.57 
  -3  -2  -7  110.63    3.15 
   3   2   7  115.18    3.94 
   3   2   7  109.36    3.22 
  -4  -2  -7  113.72    3.33 
  -4  -2  -7  112.27    2.99 
  -4  -2  -7  113.05    3.21 
   4   2   7  117.69    3.31 
   4   2   7  114.67    3.25 
  -5  -2  -7   89.79    2.80 
  -5  -2  -7   89.90    2.67 
   5   2   7   89.39    2.71 
   5   2   7   88.75    2.76 
   5   2   7   88.50    2.63 
  -6  -2  -7  233.50    5.92 
  -6  -2  -7  230.73    6.08 
   6   2   7  223.46    5.88 
   6   2   7  231.19    5.98 
  -7  -2  -7  164.48    4.41 
  -7  -2  -7  157.34    5.53 
   7   2   7  168.28    4.51 
   7   2   7  160.85    5.05 
  -8  -2  -7  177.32    4.88 
  -8  -2  -7  168.67    4.53 
   8   2   7  172.36    4.77 
   8   2   7  170.62    4.60 
  -9  -2  -7   87.10    2.65 
  -9  -2  -7   87.90    3.05 
   9   2   7   88.37    2.72 
   9   2   7   85.33    2.70 
 -10  -2  -7   -0.45    0.80 
 -10  -2  -7    0.25    0.68 
  10   2   7    1.18    0.66 
  10   2   7    0.36    0.67 
 -11  -2  -7   -0.65    0.75 
 -11  -2  -7    1.06    1.09 
  11   2   7   -0.03    0.69 
  11   2   7   -0.64    0.65 
 -12  -2  -7    3.93    0.97 
  12   2   7    4.25    0.88 
  12   2   7    3.34    1.02 
 -13  -2  -7   11.48    1.51 
 -13  -2  -7   12.95    1.31 
  13   2   7   11.81    1.52 
  13   2   7   14.10    1.52 
 -14  -2  -7   11.08    1.40 
  14   2   7   11.55    1.25 
  14   2   7   12.73    1.22 
 -15  -2  -7   -0.09    1.44 
  10  -3  -7   52.26    2.74 
  10  -3  -7   51.74    2.62 
 -10   3   7   44.42    3.54 
 -10   3   7   56.84    3.41 
   9  -3  -7   34.49    2.42 
   9  -3  -7   43.23    2.31 
  -9   3   7   45.56    2.64 
  -9   3   7   39.03    2.94 
  -9   3   7   44.26    3.05 
   8  -3  -7   44.18    2.79 
   8  -3  -7   45.01    2.25 
   8  -3  -7   42.02    2.34 
  -8   3   7   49.38    2.51 
  -8   3   7   46.59    2.80 
  -8   3   7   48.80    2.85 
   7  -3  -7   49.06    2.26 
   7  -3  -7   41.94    2.60 
   7  -3  -7   48.21    2.18 
  -7   3   7   46.52    2.35 
  -7   3   7   46.65    2.65 
  -7   3   7   48.18    2.65 
   6  -3  -7    5.53    0.88 
   6  -3  -7    2.30    0.97 
   6  -3  -7    4.49    0.88 
  -6   3   7    4.74    1.12 
  -6   3   7    3.42    1.06 
  -6   3   7    4.62    0.80 
   5  -3  -7    4.56    0.96 
   5  -3  -7    4.93    0.80 
   5  -3  -7    4.69    0.80 
  -5   3   7    4.85    1.27 
  -5   3   7    4.10    0.98 
  -5   3   7    4.47    0.97 
   4  -3  -7    5.82    0.76 
   4  -3  -7    5.03    0.73 
   4  -3  -7    3.77    0.86 
  -4   3   7    4.76    0.92 
  -4   3   7    4.40    0.87 
  -4   3   7    3.66    0.66 
   3  -3  -7    3.95    0.64 
   3  -3  -7    5.41    0.67 
   3  -3  -7    4.30    0.80 
  -3   3   7    3.16    0.75 
  -3   3   7    4.36    0.64 
  -3   3   7    4.49    0.75 
   2  -3  -7    1.90    0.53 
   2  -3  -7    1.50    0.62 
   2  -3  -7    2.20    0.54 
  -2   3   7    1.61    0.60 
  -2   3   7    2.08    0.66 
  -2   3   7    1.60    0.52 
   1  -3  -7    1.37    0.49 
   1  -3  -7    1.26    0.56 
   1  -3  -7    0.29    0.44 
  -1   3   7    1.19    0.56 
  -1   3   7    0.71    0.29 
  -1   3   7    0.65    0.57 
  -1   3   7    1.52    0.51 
   0  -3  -7   27.73    1.38 
   0  -3  -7   28.43    1.20 
   0  -3  -7   28.32    1.39 
   0   3   7   26.84    1.48 
   0   3   7   26.67    1.29 
   0   3   7   27.65    1.27 
  -1  -3  -7  113.09    3.43 
  -1  -3  -7  107.76    2.97 
  -1  -3  -7  108.34    3.00 
  -1  -3  -7  105.56    3.10 
   1   3   7  105.89    2.94 
   1   3   7  107.68    3.20 
   1   3   7  106.31    3.06 
  -2  -3  -7  278.26    7.13 
  -2  -3  -7  285.29    6.99 
  -2  -3  -7  299.01    6.75 
  -2  -3  -7  283.90    7.04 
   2   3   7  279.23    6.94 
   2   3   7  279.29    7.12 
   2   3   7  281.14    7.23 
  -3  -3  -7  239.49    5.93 
  -3  -3  -7  236.39    5.79 
  -3  -3  -7  245.96    6.35 
  -3  -3  -7  226.08    5.99 
   3   3   7  226.15    6.31 
   3   3   7  234.46    6.10 
  -4  -3  -7  253.24    6.43 
  -4  -3  -7  254.22    6.14 
  -4  -3  -7  245.70    6.48 
   4   3   7  248.20    7.08 
   4   3   7  256.32    6.44 
  -5  -3  -7  125.19    3.58 
  -5  -3  -7  122.59    3.50 
  -5  -3  -7  122.74    3.14 
   5   3   7  124.87    3.51 
  -6  -3  -7   98.97    2.98 
  -6  -3  -7   98.88    3.08 
   6   3   7   98.65    2.92 
   6   3   7  102.71    3.00 
  -7  -3  -7   32.76    1.51 
  -7  -3  -7   28.05    1.98 
   7   3   7   31.79    1.52 
   7   3   7   31.22    1.42 
  -8  -3  -7    5.41    0.86 
  -8  -3  -7    6.91    0.81 
   8   3   7    5.87    0.80 
   8   3   7    6.12    0.82 
  -9  -3  -7   23.70    1.21 
  -9  -3  -7   23.27    1.71 
   9   3   7   24.62    1.44 
   9   3   7   25.91    1.62 
 -10  -3  -7    3.77    0.65 
 -10  -3  -7    3.93    0.93 
  10   3   7    4.09    0.74 
 -11  -3  -7   10.76    1.28 
 -11  -3  -7   12.65    1.25 
  11   3   7   11.56    1.40 
  11   3   7   11.55    1.17 
 -12  -3  -7   11.30    1.41 
  12   3   7   11.74    1.54 
  12   3   7   11.57    1.24 
 -13  -3  -7    0.69    1.25 
 -13  -3  -7   -0.58    0.88 
  13   3   7    0.17    0.74 
  13   3   7    0.60    1.01 
 -14  -3  -7    1.20    0.99 
  14   3   7    3.36    1.21 
  14   3   7    0.82    0.74 
  10  -4  -7   24.86    2.14 
 -10   4   7   29.87    3.03 
 -10   4   7   26.00    3.20 
 -10   4   7   24.37    2.66 
   9  -4  -7    7.49    1.26 
   9  -4  -7    6.90    1.04 
  -9   4   7    6.82    1.62 
  -9   4   7   10.43    1.72 
   8  -4  -7    0.49    0.89 
   8  -4  -7    0.02    0.79 
   8  -4  -7    0.69    1.13 
  -8   4   7   -0.64    1.20 
  -8   4   7   -0.71    1.13 
  -8   4   7   -0.17    1.09 
   7  -4  -7    0.14    0.70 
   7  -4  -7    0.29    0.99 
   7  -4  -7   -0.05    0.78 
  -7   4   7    1.19    1.12 
  -7   4   7    0.75    1.00 
  -7   4   7    0.07    0.94 
   6  -4  -7   60.65    2.38 
   6  -4  -7   59.72    2.17 
  -6   4   7   61.66    2.55 
  -6   4   7   60.46    2.73 
  -6   4   7   57.24    2.04 
   5  -4  -7   10.39    1.40 
   5  -4  -7   10.64    1.32 
   5  -4  -7   10.05    1.17 
  -5   4   7    9.25    1.14 
  -5   4   7    9.71    1.06 
  -5   4   7    8.23    1.10 
   4  -4  -7    1.39    0.56 
   4  -4  -7    1.20    0.73 
  -4   4   7    1.54    0.78 
  -4   4   7    0.95    0.74 
  -4   4   7    1.04    0.52 
   3  -4  -7    0.61    0.63 
   3  -4  -7    1.15    0.57 
   3  -4  -7    1.05    0.50 
  -3   4   7    0.74    0.67 
  -3   4   7    0.44    0.46 
  -3   4   7    1.40    0.68 
   2  -4  -7   59.76    1.90 
   2  -4  -7   58.33    1.99 
   2  -4  -7   57.73    2.17 
  -2   4   7   59.95    2.17 
  -2   4   7   57.56    1.90 
  -2   4   7   59.88    2.21 
   1  -4  -7   22.85    1.18 
   1  -4  -7   22.11    1.29 
   1  -4  -7   22.27    1.31 
  -1   4   7   20.81    1.24 
  -1   4   7   21.06    1.13 
  -1   4   7   23.23    1.37 
   0  -4  -7  143.50    4.17 
   0  -4  -7  154.48    4.16 
   0  -4  -7  151.52    4.05 
   0  -4  -7  144.95    4.09 
   0   4   7  153.02    3.99 
   0   4   7  149.01    4.21 
   0   4   7  150.15    3.96 
  -1  -4  -7  353.49    8.30 
  -1  -4  -7  359.00    8.60 
  -1  -4  -7  352.26    8.75 
  -1  -4  -7  337.60    8.68 
  -1  -4  -7  352.51    8.59 
   1   4   7  347.75    8.61 
   1   4   7  346.81    8.79 
   1   4   7  344.50    8.52 
  -2  -4  -7  367.54    8.96 
  -2  -4  -7  357.63    9.06 
  -2  -4  -7  373.06    9.18 
  -2  -4  -7  379.34    8.89 
   2   4   7  363.67    9.01 
   2   4   7  356.95    9.13 
   2   4   7  359.14    8.81 
  -3  -4  -7  150.76    3.72 
  -3  -4  -7  142.02    3.99 
  -3  -4  -7  154.53    3.66 
  -3  -4  -7  146.09    3.88 
  -3  -4  -7  145.18    4.07 
   3   4   7  140.72    3.98 
   3   4   7  142.29    3.65 
   3   4   7  141.24    4.03 
  -4  -4  -7   39.78    1.21 
  -4  -4  -7   34.79    1.62 
  -4  -4  -7   37.05    1.57 
   4   4   7   37.11    1.58 
   4   4   7   37.05    1.52 
  -5  -4  -7    9.22    1.06 
  -5  -4  -7   10.14    1.03 
   5   4   7    9.63    1.00 
   5   4   7    8.64    0.95 
  -6  -4  -7    4.76    0.73 
  -6  -4  -7    5.52    0.76 
   6   4   7    5.70    0.71 
   6   4   7    4.81    0.66 
  -7  -4  -7   30.31    1.62 
   7   4   7   29.23    1.47 
   7   4   7   27.89    1.48 
  -8  -4  -7   40.82    2.00 
   8   4   7   41.06    1.81 
   8   4   7   39.50    1.83 
  -9  -4  -7  102.61    3.43 
   9   4   7   99.67    3.24 
   9   4   7  103.16    3.25 
 -10  -4  -7    4.96    1.04 
  10   4   7    4.55    0.69 
  10   4   7    6.41    1.00 
 -11  -4  -7    0.22    0.99 
  11   4   7    1.57    0.61 
  11   4   7    2.07    0.94 
 -12  -4  -7   16.51    1.32 
  12   4   7   22.08    1.85 
  12   4   7   18.15    1.21 
 -13  -4  -7   26.78    1.58 
 -13  -4  -7   19.15    2.54 
  13   4   7   29.08    2.15 
 -14  -4  -7    5.07    1.02 
  10  -5  -7    0.02    1.05 
 -10   5   7    3.85    1.69 
 -10   5   7   -1.62    1.66 
 -10   5   7   -1.77    1.50 
   9  -5  -7    1.85    1.03 
  -9   5   7    0.34    1.26 
  -9   5   7    1.15    1.41 
  -9   5   7    0.60    1.39 
   8  -5  -7    7.66    1.35 
   8  -5  -7    7.98    1.16 
  -8   5   7    8.48    1.48 
  -8   5   7    7.88    1.44 
   7  -5  -7    2.13    0.58 
   7  -5  -7    0.38    0.82 
  -7   5   7    0.01    1.10 
  -7   5   7    2.82    1.07 
  -7   5   7    2.05    1.12 
   6  -5  -7   22.16    1.66 
   6  -5  -7   23.22    1.21 
  -6   5   7   21.84    2.06 
  -6   5   7   24.01    1.84 
  -6   5   7   23.39    2.10 
   5  -5  -7   23.92    1.57 
   5  -5  -7   24.23    2.32 
  -5   5   7   26.32    2.00 
  -5   5   7   24.96    1.16 
  -5   5   7   23.63    1.92 
  -5   5   7   27.25    1.76 
   4  -5  -7   47.29    1.96 
   4  -5  -7   48.92    2.11 
   4  -5  -7   50.71    2.25 
  -4   5   7   48.08    1.62 
  -4   5   7   49.47    2.25 
  -4   5   7   50.99    2.28 
   3  -5  -7  114.67    3.44 
   3  -5  -7  119.25    3.51 
   3  -5  -7  115.36    3.60 
  -3   5   7  117.77    3.58 
  -3   5   7  113.54    3.12 
  -3   5   7  118.08    3.65 
   2  -5  -7  263.01    6.79 
   2  -5  -7  257.21    6.71 
   2  -5  -7  256.16    6.61 
  -2   5   7  258.22    6.43 
  -2   5   7  260.26    6.83 
  -2   5   7  258.10    6.71 
   1  -5  -7  231.02    5.91 
   1  -5  -7  231.21    6.02 
   1  -5  -7  227.01    5.97 
  -1   5   7  228.83    5.94 
  -1   5   7  229.39    6.10 
  -1   5   7  233.42    5.78 
   0  -5  -7  329.33    8.14 
   0  -5  -7  327.49    8.18 
   0  -5  -7  323.32    8.22 
   0   5   7  335.53    8.35 
   0   5   7  326.27    8.11 
   0   5   7  323.29    8.04 
  -1  -5  -7  175.79    4.28 
  -1  -5  -7  172.84    4.51 
  -1  -5  -7  164.20    4.61 
  -1  -5  -7  176.13    4.69 
   1   5   7  175.98    4.75 
   1   5   7  174.81    4.51 
   1   5   7  169.56    4.43 
  -2  -5  -7  104.49    3.09 
  -2  -5  -7  100.91    3.18 
  -2  -5  -7  103.89    2.87 
  -2  -5  -7  107.58    2.75 
   2   5   7  106.18    3.16 
   2   5   7  107.29    2.80 
   2   5   7  105.00    3.09 
  -3  -5  -7   71.56    1.97 
  -3  -5  -7   70.16    2.29 
  -3  -5  -7   68.94    1.95 
  -3  -5  -7   65.95    2.27 
   3   5   7   67.64    2.24 
   3   5   7   68.65    2.31 
   3   5   7   67.54    1.86 
  -4  -5  -7    0.59    0.30 
  -4  -5  -7    0.52    0.49 
  -4  -5  -7    0.19    0.35 
  -4  -5  -7    0.72    0.56 
   4   5   7   -0.15    0.51 
   4   5   7    0.49    0.50 
  -5  -5  -7    0.54    0.59 
  -5  -5  -7    0.06    0.52 
   5   5   7    0.80    0.48 
   5   5   7    0.34    0.52 
  -6  -5  -7   11.23    1.18 
  -6  -5  -7    8.57    1.12 
   6   5   7   10.24    1.04 
   6   5   7    9.62    1.07 
  -7  -5  -7    5.27    0.80 
   7   5   7    5.46    0.99 
   7   5   7    4.75    0.70 
  -8  -5  -7    1.97    0.80 
   8   5   7    2.53    0.79 
   8   5   7    0.95    0.65 
  -9  -5  -7    0.48    0.85 
   9   5   7   -0.80    0.75 
   9   5   7    0.66    0.69 
 -10  -5  -7   78.16    3.05 
  10   5   7   72.16    2.83 
  10   5   7   70.74    2.18 
 -11  -5  -7   63.93    3.00 
  11   5   7   65.34    2.77 
  12   5   7   78.74    3.18 
  14   5   7   70.19    4.10 
  14   5   7   70.68    3.33 
  10  -6  -7    0.91    1.12 
  10  -6  -7    1.79    1.46 
 -10   6   7    2.25    1.57 
   9  -6  -7    0.70    1.49 
   9  -6  -7   -0.99    0.92 
  -9   6   7    2.03    1.37 
  -9   6   7    3.20    1.53 
   8  -6  -7   -0.35    0.86 
   8  -6  -7    1.15    1.14 
   8  -6  -7    1.17    1.99 
  -8   6   7    1.75    1.61 
  -8   6   7   -2.07    1.25 
   7  -6  -7   21.95    1.80 
   7  -6  -7   20.56    1.83 
  -7   6   7   22.98    2.67 
  -7   6   7   21.59    2.24 
   6  -6  -7   23.81    1.77 
   6  -6  -7   18.34    1.63 
  -6   6   7   22.08    1.91 
  -6   6   7   21.29    2.05 
  -6   6   7   23.59    2.07 
   5  -6  -7   99.40    3.22 
   5  -6  -7   95.19    3.15 
   5  -6  -7   95.75    3.42 
  -5   6   7   86.01    4.60 
  -5   6   7  100.15    3.36 
   4  -6  -7  232.05    6.08 
   4  -6  -7  225.46    6.06 
   4  -6  -7  223.67    6.26 
  -4   6   7  228.16    6.25 
  -4   6   7  223.27    6.29 
  -4   6   7  225.11    6.21 
   3  -6  -7  323.21    8.23 
   3  -6  -7  315.18    8.02 
   3  -6  -7  310.75    8.03 
  -3   6   7  311.79    8.24 
  -3   6   7  313.43    8.14 
  -3   6   7  316.57    7.64 
   2  -6  -7  155.81    4.39 
   2  -6  -7  154.00    4.24 
   2  -6  -7  154.40    4.26 
  -2   6   7  152.51    4.42 
  -2   6   7  151.38    3.93 
  -2   6   7  152.33    4.31 
   1  -6  -7  136.88    3.80 
   1  -6  -7  134.43    3.84 
   1  -6  -7  133.53    3.73 
  -1   6   7  134.32    3.54 
  -1   6   7  134.42    3.77 
  -1   6   7  132.95    3.92 
   0  -6  -7   64.79    2.24 
   0  -6  -7   66.62    2.20 
   0  -6  -7   69.49    2.19 
   0   6   7   68.02    2.05 
   0   6   7   68.14    2.14 
   0   6   7   65.42    2.34 
  -1  -6  -7    7.40    0.92 
  -1  -6  -7    6.55    0.78 
  -1  -6  -7    6.61    0.85 
  -1  -6  -7    6.11    0.70 
  -1  -6  -7    5.17    0.62 
   1   6   7    6.34    0.77 
   1   6   7    5.21    0.76 
   1   6   7    6.78    0.81 
  -2  -6  -7    0.25    0.39 
  -2  -6  -7   -0.05    0.39 
  -2  -6  -7    0.54    0.47 
  -2  -6  -7    0.06    0.47 
  -2  -6  -7   -0.19    0.53 
   2   6   7    0.80    0.55 
   2   6   7    0.61    0.54 
   2   6   7    0.41    0.36 
  -3  -6  -7   54.71    1.59 
  -3  -6  -7   51.59    1.92 
  -3  -6  -7   53.04    1.70 
  -3  -6  -7   54.16    2.01 
  -3  -6  -7   54.53    1.83 
   3   6   7   53.38    1.96 
   3   6   7   54.43    2.00 
   3   6   7   54.21    1.53 
  -4  -6  -7   28.57    1.43 
  -4  -6  -7   28.46    1.29 
  -4  -6  -7   28.76    1.19 
  -4  -6  -7   28.46    1.50 
   4   6   7   27.23    1.41 
   4   6   7   27.55    1.40 
  -5  -6  -7    6.22    0.64 
  -5  -6  -7    6.22    0.85 
  -5  -6  -7    6.68    0.77 
   5   6   7    5.31    0.66 
  -6  -6  -7    4.28    0.72 
   6   6   7    4.23    0.78 
   6   6   7    3.62    0.64 
  -7  -6  -7   18.47    1.46 
   7   6   7   20.08    1.49 
   7   6   7   21.01    1.34 
  -8  -6  -7   26.80    1.97 
   8   6   7   24.09    1.69 
   8   6   7   25.04    1.50 
  -9  -6  -7  122.24    3.82 
   9   6   7  116.05    3.57 
   9   6   7  116.22    3.85 
 -10  -6  -7  210.12    5.95 
  10   6   7  203.08    5.96 
 -11  -6  -7  104.57    3.89 
  13   6   7   38.52    2.78 
  13   6   7   41.48    3.43 
  14   6   7   26.41    3.35 
  10  -7  -7    2.74    2.29 
  10  -7  -7    2.95    1.17 
 -10   7   7   -1.35    1.69 
   9  -7  -7   16.87    2.01 
   9  -7  -7   22.84    2.09 
  -9   7   7   21.17    2.93 
  -9   7   7   17.66    2.01 
   8  -7  -7   86.15    3.22 
   8  -7  -7   90.32    3.40 
  -8   7   7   90.22    3.69 
  -8   7   7   91.99    3.83 
   7  -7  -7  107.91    3.71 
   7  -7  -7  107.35    3.52 
  -7   7   7  112.78    4.08 
   6  -7  -7  173.53    5.16 
   6  -7  -7  180.03    5.03 
  -6   7   7  178.27    5.42 
  -6   7   7  179.02    5.50 
  -6   7   7  176.75    5.48 
   5  -7  -7  228.19    6.47 
   5  -7  -7  224.63    6.23 
   5  -7  -7  233.61    6.13 
  -5   7   7  225.22    6.48 
  -5   7   7  226.38    6.51 
  -5   7   7  231.82    6.45 
   4  -7  -7  119.69    3.70 
   4  -7  -7  120.79    3.92 
   4  -7  -7  122.64    3.62 
  -4   7   7  117.99    3.92 
  -4   7   7  123.40    3.90 
  -4   7   7  124.94    3.92 
   3  -7  -7   96.50    2.97 
   3  -7  -7   93.44    2.99 
   3  -7  -7   94.73    3.19 
  -3   7   7   95.21    3.19 
  -3   7   7   92.36    3.22 
  -3   7   7   92.35    3.15 
   2  -7  -7   35.98    1.68 
   2  -7  -7   38.11    1.69 
   2  -7  -7   30.18    2.60 
  -2   7   7   36.85    1.78 
  -2   7   7   37.78    1.87 
  -2   7   7   37.32    1.30 
  -2   7   7   36.84    1.80 
   1  -7  -7    3.82    0.64 
   1  -7  -7    3.65    0.72 
   1  -7  -7    4.61    0.75 
  -1   7   7    4.74    0.76 
  -1   7   7    3.58    0.68 
  -1   7   7    3.80    0.50 
   0  -7  -7    2.24    0.65 
   0  -7  -7    1.61    0.58 
   0   7   7    1.47    0.62 
   0   7   7    2.32    0.58 
   0   7   7    2.36    0.66 
  -1  -7  -7   13.48    0.86 
  -1  -7  -7   14.13    1.04 
  -1  -7  -7   13.69    0.99 
  -1  -7  -7   13.24    1.14 
   1   7   7   12.30    1.09 
   1   7   7   14.26    0.95 
   1   7   7   13.09    1.23 
  -2  -7  -7   23.38    1.08 
  -2  -7  -7   23.88    1.32 
  -2  -7  -7   22.91    1.37 
  -2  -7  -7   24.29    1.20 
  -2  -7  -7   22.78    1.08 
   2   7   7   22.50    1.32 
   2   7   7   23.08    1.01 
   2   7   7   23.75    1.42 
  -3  -7  -7   37.14    1.59 
  -3  -7  -7   34.66    1.46 
  -3  -7  -7   36.71    1.41 
  -3  -7  -7   36.43    1.68 
   3   7   7   34.79    1.15 
   3   7   7   36.39    1.63 
  -4  -7  -7   11.30    1.00 
  -4  -7  -7   10.62    0.91 
  -4  -7  -7   10.81    1.19 
  -4  -7  -7    9.78    1.03 
   4   7   7   10.27    1.13 
   4   7   7   10.78    1.13 
  -5  -7  -7   49.29    1.79 
  -5  -7  -7   49.51    1.94 
   5   7   7   50.69    1.86 
   5   7   7   51.07    2.08 
  -6  -7  -7  114.18    3.34 
  -6  -7  -7  116.56    3.48 
   6   7   7  117.60    3.66 
   6   7   7  116.16    3.35 
  -7  -7  -7  113.38    3.43 
  -7  -7  -7  114.26    3.53 
   7   7   7  118.92    3.75 
   7   7   7  116.38    3.40 
   8   7   7   89.29    2.89 
   8   7   7   93.58    3.29 
  -9  -7  -7  171.17    4.99 
   9   7   7  169.82    5.18 
   9   7   7  173.19    4.78 
 -10  -7  -7   78.58    3.09 
 -11  -7  -7   17.23    2.14 
  11   7   7   10.27    1.49 
 -12  -7  -7    5.51    1.46 
  12   7   7    8.16    1.46 
  12   7   7    5.59    1.62 
  13   7   7    1.95    1.65 
  10  -8  -7   49.02    2.94 
  10  -8  -7   53.46    2.53 
 -10   8   7   63.49    5.72 
   9  -8  -7   74.24    3.24 
   9  -8  -7   70.40    2.89 
  -9   8   7   76.48    3.91 
   8  -8  -7  103.94    3.86 
   8  -8  -7  104.69    3.57 
  -8   8   7  115.83    4.24 
  -8   8   7  115.18    4.38 
   7  -8  -7  100.51    3.23 
   7  -8  -7   99.80    3.52 
   7  -8  -7   81.71    3.69 
  -7   8   7  101.85    3.92 
   6  -8  -7   86.69    3.20 
   6  -8  -7   90.85    3.01 
  -6   8   7   88.69    3.58 
  -6   8   7   89.19    3.54 
   5  -8  -7   50.36    2.09 
   5  -8  -7   45.71    2.47 
   5  -8  -7   44.09    2.16 
  -5   8   7   47.61    2.51 
  -5   8   7   46.44    2.51 
  -5   8   7   49.03    2.51 
   4  -8  -7    3.98    0.97 
   4  -8  -7    4.03    0.83 
   4  -8  -7    2.75    0.77 
  -4   8   7    3.02    0.98 
  -4   8   7    2.27    0.90 
   3  -8  -7    0.00    0.71 
   3  -8  -7    0.50    0.68 
   3  -8  -7    0.23    0.63 
  -3   8   7   -0.57    0.73 
  -3   8   7   -0.02    0.78 
  -3   8   7   -0.38    0.73 
   2  -8  -7   28.63    1.65 
   2  -8  -7   26.20    1.53 
   2  -8  -7   25.04    1.51 
  -2   8   7   30.76    1.75 
  -2   8   7   28.02    1.69 
  -2   8   7   28.26    1.77 
  -2   8   7   28.85    1.11 
   1  -8  -7   29.92    1.61 
   1  -8  -7   35.30    1.67 
   1  -8  -7   37.56    1.71 
  -1   8   7   36.30    1.81 
  -1   8   7   34.50    1.68 
  -1   8   7   33.15    1.71 
   0  -8  -7   24.86    1.16 
   0  -8  -7   25.14    1.47 
   0  -8  -7   25.45    1.35 
   0  -8  -7   25.47    1.40 
   0   8   7   24.18    1.52 
   0   8   7   24.83    1.53 
   0   8   7   25.05    1.37 
  -1  -8  -7    6.67    0.90 
  -1  -8  -7    7.49    0.95 
  -1  -8  -7    5.78    0.73 
  -1  -8  -7    7.31    0.82 
   1   8   7    6.52    0.68 
   1   8   7    6.94    1.02 
   1   8   7    5.83    0.84 
   1   8   7    6.49    0.99 
  -2  -8  -7    2.19    0.54 
  -2  -8  -7    1.64    0.69 
  -2  -8  -7    2.77    0.60 
   2   8   7    3.02    0.50 
   2   8   7    2.48    0.67 
   2   8   7    1.82    0.65 
  -3  -8  -7   33.84    1.75 
  -3  -8  -7   37.73    1.51 
  -3  -8  -7   36.50    1.52 
  -3  -8  -7   35.25    1.61 
   3   8   7   36.46    1.66 
   3   8   7   35.48    1.21 
   3   8   7   34.20    1.71 
  -4  -8  -7  107.00    3.11 
  -4  -8  -7  109.41    3.21 
  -4  -8  -7  106.55    3.12 
   4   8   7  108.94    3.41 
   4   8   7  105.64    3.22 
  -5  -8  -7  127.52    3.67 
  -5  -8  -7  129.45    3.69 
   5   8   7  129.16    3.95 
   5   8   7  129.05    3.64 
  -6  -8  -7  208.77    5.56 
  -6  -8  -7  201.67    5.51 
   6   8   7  214.77    5.88 
   6   8   7  209.25    5.44 
   6   8   7  200.45    5.35 
  -7  -8  -7  122.49    3.71 
  -7  -8  -7  123.95    3.67 
   7   8   7  123.07    4.00 
   7   8   7  116.90    3.33 
   7   8   7  127.21    3.56 
  -8  -8  -7   86.12    3.37 
  -8  -8  -7   86.91    2.94 
   8   8   7   84.46    2.40 
   8   8   7   86.18    2.76 
   8   8   7   85.09    3.26 
  -9  -8  -7   15.43    1.55 
  -9  -8  -7   17.20    1.73 
   9   8   7   15.31    1.47 
 -10  -8  -7   -1.54    0.97 
  10   8   7    0.09    1.13 
 -11  -8  -7    2.85    1.21 
  11   8   7    2.90    1.30 
  11   8   7    4.27    1.34 
 -12  -8  -7    5.61    1.49 
  12   8   7    4.23    1.60 
  13   8   7   15.00    2.09 
   9  -9  -7   48.56    2.80 
   9  -9  -7   52.90    2.42 
  -9   9   7   50.22    3.59 
   8  -9  -7   27.34    1.89 
   8  -9  -7   22.90    2.08 
  -8   9   7   17.09    1.95 
   7  -9  -7    1.72    0.96 
   7  -9  -7    3.73    0.98 
   7  -9  -7    4.89    2.25 
  -7   9   7    1.86    1.35 
  -7   9   7    2.55    1.27 
   6  -9  -7    1.98    1.10 
   6  -9  -7    3.93    0.96 
   6  -9  -7    4.68    0.98 
  -6   9   7    0.65    1.04 
  -6   9   7    1.54    1.13 
  -6   9   7    7.14    1.38 
   5  -9  -7   30.92    1.75 
   5  -9  -7   30.89    1.88 
  -5   9   7   29.93    2.29 
  -5   9   7   31.63    2.24 
   4  -9  -7   46.00    2.44 
   4  -9  -7   48.30    2.16 
   4  -9  -7   46.90    2.02 
  -4   9   7   44.50    2.38 
   3  -9  -7   36.17    1.85 
   3  -9  -7   37.82    1.82 
   3  -9  -7   38.87    2.12 
  -3   9   7   35.35    2.09 
  -3   9   7   36.38    2.08 
   2  -9  -7   54.28    2.29 
   2  -9  -7   54.87    2.18 
   2  -9  -7   52.66    2.12 
  -2   9   7   52.96    1.71 
  -2   9   7   51.89    2.33 
  -2   9   7   53.18    2.29 
  -2   9   7   55.82    2.44 
  -2   9   7   53.33    1.67 
   1  -9  -7   11.27    1.17 
   1  -9  -7   10.63    1.07 
   1  -9  -7    9.78    1.16 
  -1   9   7   12.60    1.33 
  -1   9   7    8.91    1.00 
  -1   9   7    9.52    1.11 
  -1   9   7    9.85    1.20 
   0  -9  -7   -0.53    0.56 
   0  -9  -7    0.27    0.55 
   0  -9  -7    0.52    0.67 
   0   9   7    1.39    0.64 
   0   9   7    0.06    0.62 
   0   9   7    0.02    0.62 
   0   9   7   -0.44    0.67 
  -1  -9  -7   36.05    1.54 
  -1  -9  -7   35.82    1.82 
  -1  -9  -7   37.67    1.86 
   1   9   7   37.32    1.83 
   1   9   7   36.01    1.76 
   1   9   7   38.06    1.57 
   1   9   7   37.60    1.84 
  -2  -9  -7   49.97    1.82 
  -2  -9  -7   48.14    2.13 
  -2  -9  -7   46.83    1.82 
   2   9   7   48.01    2.04 
   2   9   7   49.02    2.06 
   2   9   7   48.50    1.71 
  -3  -9  -7  139.15    3.82 
  -3  -9  -7  132.19    3.77 
   3   9   7  134.74    3.51 
   3   9   7  132.75    3.93 
   3   9   7  135.59    3.91 
   3   9   7  137.16    4.09 
  -4  -9  -7   82.07    2.56 
  -4  -9  -7   79.89    2.63 
  -4  -9  -7   82.06    2.64 
   4   9   7   79.40    2.89 
   4   9   7   82.24    2.66 
   4   9   7   80.66    2.64 
  -5  -9  -7   94.25    2.94 
  -5  -9  -7   88.46    2.95 
   5   9   7   95.80    2.89 
   5   9   7   94.01    2.90 
   5   9   7  100.63    3.61 
  -6  -9  -7   87.42    2.80 
  -6  -9  -7   87.06    2.87 
   6   9   7   83.87    2.63 
   6   9   7   88.23    2.70 
  -7  -9  -7   -0.64    0.65 
  -7  -9  -7    0.69    0.73 
   7   9   7    0.93    0.63 
   7   9   7    1.08    0.53 
  -8  -9  -7    0.14    0.77 
  -8  -9  -7   -0.76    0.73 
   8   9   7   -0.42    0.63 
   8   9   7   -1.56    0.99 
  -9  -9  -7    3.10    0.97 
  -9  -9  -7    2.88    1.03 
   9   9   7    2.77    1.21 
   9   9   7    2.16    1.23 
 -10  -9  -7    5.01    1.14 
 -10  -9  -7    6.80    1.23 
  10   9   7   10.39    2.09 
  10   9   7    8.82    1.61 
 -11  -9  -7   19.68    2.26 
 -11  -9  -7   21.70    2.12 
  11   9   7   22.57    3.07 
 -12  -9  -7    3.12    1.31 
  12   9   7    3.74    1.68 
   9 -10  -7    6.60    1.37 
   9 -10  -7    9.90    1.48 
  -9  10   7    3.52    1.84 
   8 -10  -7   -0.60    1.00 
   8 -10  -7    0.29    0.99 
  -8  10   7   -0.27    1.51 
   7 -10  -7    6.18    1.11 
   7 -10  -7    5.14    1.21 
  -7  10   7    2.78    1.47 
   6 -10  -7   14.87    1.72 
   6 -10  -7   16.42    1.59 
  -6  10   7   12.69    1.60 
  -6  10   7   13.48    1.66 
  -6  10   7   14.05    1.64 
   5 -10  -7    5.77    1.00 
   5 -10  -7    3.89    0.98 
  -5  10   7    4.22    1.13 
  -5  10   7    3.49    1.22 
   4 -10  -7    2.22    0.82 
   4 -10  -7    2.04    0.86 
  -4  10   7    1.25    0.97 
  -4  10   7    3.61    1.03 
   3 -10  -7    8.36    1.01 
   3 -10  -7    8.51    1.05 
  -3  10   7    7.12    1.12 
  -3  10   7    6.68    1.08 
   2 -10  -7   59.36    2.36 
   2 -10  -7   59.65    2.31 
  -2  10   7   59.66    2.32 
  -2  10   7   59.07    2.66 
  -2  10   7   58.37    1.88 
  -2  10   7   58.54    2.49 
  -2  10   7   59.76    2.52 
   1 -10  -7  125.06    3.84 
   1 -10  -7  123.23    3.70 
  -1  10   7  126.66    3.82 
  -1  10   7  124.36    3.88 
  -1  10   7  125.36    3.80 
  -1  10   7  122.74    3.49 
  -1  10   7  124.34    4.05 
   0 -10  -7  300.76    7.65 
   0 -10  -7  300.66    7.74 
   0 -10  -7  301.03    7.92 
   0  10   7  299.55    7.87 
   0  10   7  302.14    7.68 
   0  10   7  300.24    7.85 
   0  10   7  301.97    7.74 
   0  10   7  297.02    8.02 
  -1 -10  -7  689.74   16.70 
  -1 -10  -7  679.32   16.68 
   1  10   7  695.13   16.81 
   1  10   7  684.67   16.64 
   1  10   7  693.78   16.90 
   1  10   7  679.69   16.97 
   1  10   7  697.73   16.89 
  -2 -10  -7  116.58    3.47 
   2  10   7  120.50    3.75 
   2  10   7  116.37    3.69 
   2  10   7  120.47    3.65 
   2  10   7  114.73    3.32 
   2  10   7  120.87    3.75 
  -3 -10  -7  162.59    4.63 
  -3 -10  -7  158.56    4.43 
   3  10   7  161.05    4.76 
   3  10   7  163.41    4.73 
   3  10   7  160.75    4.46 
   3  10   7  139.56    4.82 
   3  10   7  157.72    4.11 
  -4 -10  -7  128.55    3.91 
  -4 -10  -7  130.99    3.81 
   4  10   7  139.60    4.26 
   4  10   7  132.21    3.91 
   4  10   7  135.52    3.87 
   4  10   7  133.85    4.31 
  -5 -10  -7   40.91    1.90 
  -5 -10  -7   42.66    1.82 
   5  10   7   41.50    1.79 
   5  10   7   41.67    1.75 
  -6 -10  -7    4.46    0.90 
  -6 -10  -7    4.50    0.77 
   6  10   7    3.15    1.12 
   6  10   7    3.77    0.69 
  -7 -10  -7    4.91    0.98 
  -7 -10  -7    5.67    0.84 
   7  10   7    5.12    1.25 
   7  10   7    6.15    0.69 
   7  10   7    5.46    0.77 
  -8 -10  -7    4.05    0.86 
  -8 -10  -7    3.73    1.01 
   8  10   7    3.05    1.25 
   8  10   7    3.75    0.75 
   8  10   7    5.46    1.29 
  -9 -10  -7    1.99    1.54 
  -9 -10  -7    1.92    1.01 
   9  10   7    2.52    1.33 
 -10 -10  -7   -0.05    1.03 
 -10 -10  -7   -1.18    0.96 
  10  10   7   -2.29    1.40 
 -11 -10  -7    4.82    1.32 
  11  10   7    1.45    1.62 
   8 -11  -7    2.90    1.20 
   8 -11  -7    6.27    1.09 
  -8  11   7    0.59    1.66 
   7 -11  -7    9.58    1.22 
   7 -11  -7    7.64    1.29 
  -7  11   7    5.63    1.62 
  -7  11   7   11.99    1.83 
   6 -11  -7   -0.27    0.92 
   6 -11  -7    0.15    0.95 
  -6  11   7   -1.07    1.32 
  -6  11   7    1.08    1.28 
   5 -11  -7   14.01    1.38 
   5 -11  -7   12.61    1.61 
  -5  11   7   17.27    2.24 
  -5  11   7   15.54    1.61 
   4 -11  -7   90.44    3.25 
   4 -11  -7   94.22    3.18 
  -4  11   7   94.60    3.56 
  -4  11   7   90.77    3.52 
   3 -11  -7   88.51    3.12 
   3 -11  -7   90.24    3.12 
  -3  11   7   93.45    3.39 
  -3  11   7   93.47    3.57 
  -3  11   7   86.77    3.33 
   2 -11  -7  183.65    5.29 
   2 -11  -7  191.91    5.41 
  -2  11   7  189.71    5.33 
  -2  11   7  186.90    4.91 
  -2  11   7  197.21    5.51 
  -2  11   7  190.56    5.70 
   1 -11  -7  257.77    6.87 
  -1  11   7  264.43    6.97 
  -1  11   7  256.08    7.24 
  -1  11   7  260.79    7.05 
  -1  11   7  265.42    7.01 
  -1  11   7  258.30    6.69 
   0 -11  -7  276.81    7.15 
   0 -11  -7  272.89    7.12 
   0  11   7  275.87    7.28 
   0  11   7  270.71    7.17 
   0  11   7  263.55    7.44 
   0  11   7  274.02    7.11 
   0  11   7  274.83    7.30 
  -1 -11  -7  221.69    5.87 
  -1 -11  -7  219.90    5.90 
   1  11   7  222.36    6.00 
   1  11   7  223.99    6.06 
   1  11   7  218.03    5.84 
   1  11   7  218.00    6.08 
   1  11   7  210.90    6.14 
  -2 -11  -7   60.98    2.21 
  -2 -11  -7   59.58    2.29 
   2  11   7   62.09    2.55 
   2  11   7   59.43    2.56 
   2  11   7   60.76    2.46 
   2  11   7   61.34    2.41 
   2  11   7   57.25    2.12 
  -3 -11  -7   67.76    2.47 
  -3 -11  -7   67.30    2.34 
   3  11   7   68.71    2.45 
   3  11   7   67.65    2.84 
   3  11   7   63.51    2.74 
   3  11   7   65.30    2.53 
   3  11   7   67.51    2.16 
  -4 -11  -7    0.13    0.70 
  -4 -11  -7   -0.11    0.77 
   4  11   7   -0.45    1.55 
   4  11   7    0.55    0.77 
   4  11   7    0.07    0.66 
   4  11   7   -0.53    0.88 
  -5 -11  -7    3.67    0.89 
   5  11   7    2.08    1.09 
   5  11   7    4.16    0.72 
   5  11   7    4.60    0.82 
   5  11   7    3.50    1.06 
   6  11   7    9.05    1.18 
   6  11   7    8.89    1.44 
   6  11   7   10.98    1.17 
  -7 -11  -7    4.74    1.05 
  -7 -11  -7    4.61    0.83 
   7  11   7    5.60    0.76 
   7  11   7    1.98    1.06 
   7  11   7    4.99    1.33 
   7  11   7    8.44    1.02 
  -8 -11  -7    0.44    0.89 
  -8 -11  -7    0.43    0.80 
   8  11   7    0.57    1.26 
   8  11   7    0.58    0.67 
  -9 -11  -7    5.14    1.26 
  -9 -11  -7    4.28    0.91 
   9  11   7    7.08    1.62 
 -10 -11  -7   18.00    2.00 
  10  11   7   12.18    1.99 
  -8  12   7   -1.29    2.09 
  -8  12   7   -3.04    2.63 
   7 -12  -7    5.86    1.28 
  -7  12   7    7.57    1.85 
  -7  12   7    7.82    1.69 
   6 -12  -7   50.55    2.67 
  -6  12   7   54.69    3.35 
  -6  12   7   52.64    3.18 
   5 -12  -7   76.60    3.09 
  -5  12   7   77.41    3.47 
  -5  12   7   78.52    3.54 
   4 -12  -7  102.19    3.56 
  -4  12   7  104.64    3.90 
  -4  12   7  103.47    3.86 
   3 -12  -7   91.06    3.21 
  -3  12   7   91.93    3.18 
  -3  12   7   94.56    3.71 
  -3  12   7   92.12    3.51 
  -3  12   7   88.94    3.45 
   2 -12  -7   94.87    3.21 
  -2  12   7   97.48    3.44 
  -2  12   7   91.72    2.81 
  -2  12   7   91.55    4.07 
  -2  12   7   96.07    3.28 
  -2  12   7   95.29    3.69 
   1 -12  -7   53.15    2.22 
  -1  12   7   50.20    2.79 
  -1  12   7   52.74    2.32 
  -1  12   7   51.54    2.70 
  -1  12   7   54.96    2.11 
  -1  12   7   54.64    2.48 
   0 -12  -7   23.12    1.54 
   0  12   7   20.74    1.78 
   0  12   7   23.84    1.62 
   0  12   7   18.23    1.94 
   0  12   7   26.88    1.84 
   0  12   7   23.34    1.78 
  -1 -12  -7    2.63    0.79 
  -1 -12  -7    2.95    0.83 
   1  12   7    2.53    0.84 
   1  12   7    3.84    0.88 
   1  12   7    3.83    1.05 
   1  12   7    4.64    1.05 
   1  12   7    3.00    0.89 
  -2 -12  -7   11.25    1.28 
  -2 -12  -7    9.22    1.11 
   2  12   7   11.34    1.57 
   2  12   7    9.68    1.00 
   2  12   7   10.92    1.49 
   2  12   7   10.57    1.23 
   2  12   7   10.02    1.29 
  -3 -12  -7    7.66    0.92 
  -3 -12  -7    9.27    1.13 
   3  12   7    7.28    1.21 
   3  12   7    6.88    0.83 
   3  12   7    8.04    1.08 
   3  12   7    6.36    0.89 
  -4 -12  -7   11.94    1.30 
   4  12   7   11.72    1.48 
   4  12   7   11.15    1.32 
   4  12   7   13.19    1.54 
   4  12   7   14.94    2.01 
  -5 -12  -7    2.05    0.90 
   5  12   7    1.48    0.83 
   5  12   7    1.69    1.14 
   5  12   7    0.24    1.11 
   5  12   7    0.69    0.64 
  -6 -12  -7    2.55    0.98 
   6  12   7    1.33    0.73 
   6  12   7    1.66    1.22 
   6  12   7    1.10    0.67 
  -7 -12  -7    5.65    1.17 
   7  12   7    5.05    0.76 
   7  12   7    6.04    1.56 
   7  12   7    5.78    0.77 
  -8 -12  -7   26.07    2.07 
   8  12   7   25.44    3.07 
  -9 -12  -7   46.68    2.68 
   9  12   7   48.93    3.63 
   7 -13  -7   70.80    3.58 
  -7  13   7   78.10    3.97 
  -7  13   7   71.94    4.01 
   6 -13  -7   89.58    3.60 
  -6  13   7   91.68    4.09 
  -6  13   7   95.52    4.30 
   5 -13  -7  142.02    4.64 
  -5  13   7  144.30    5.04 
  -5  13   7  140.15    4.97 
   4 -13  -7   80.79    3.12 
  -4  13   7   81.36    3.46 
  -4  13   7   80.67    3.58 
   3 -13  -7   21.94    1.77 
  -3  13   7   22.24    2.32 
  -3  13   7   22.75    2.13 
  -3  13   7   23.86    1.99 
   2 -13  -7    4.20    0.96 
  -2  13   7    3.00    1.17 
  -2  13   7    2.64    0.74 
  -2  13   7    4.11    1.04 
  -2  13   7    6.44    1.19 
  -2  13   7    2.39    1.24 
   1 -13  -7    1.53    0.82 
  -1  13   7    1.99    0.89 
  -1  13   7    1.55    1.14 
  -1  13   7    0.39    0.97 
  -1  13   7   -0.23    1.85 
  -1  13   7    0.45    0.76 
   0 -13  -7    6.08    0.93 
   0  13   7    5.44    1.24 
   0  13   7    5.23    0.98 
   0  13   7    4.67    1.06 
   0  13   7    4.70    1.02 
   0  13   7    7.21    1.22 
  -1 -13  -7   31.50    1.91 
  -1 -13  -7   35.10    1.86 
   1  13   7   32.92    2.05 
   1  13   7   32.88    2.29 
   1  13   7   34.26    2.23 
   1  13   7   35.47    2.09 
   1  13   7   32.65    1.95 
  -2 -13  -7   24.42    1.61 
  -2 -13  -7   23.07    1.85 
   2  13   7   25.78    1.82 
   2  13   7   26.82    2.59 
   2  13   7   25.87    1.72 
   2  13   7   26.47    2.12 
   2  13   7   25.02    2.03 
  -3 -13  -7    4.74    0.86 
  -3 -13  -7    4.52    1.02 
   3  13   7    3.39    0.85 
   3  13   7    3.27    1.14 
   3  13   7    4.52    1.06 
   3  13   7    3.45    0.81 
   3  13   7    2.40    1.19 
  -4 -13  -7    0.99    0.75 
  -4 -13  -7    3.41    0.93 
   4  13   7    1.94    1.65 
   4  13   7    2.01    0.67 
   4  13   7    2.42    0.80 
   4  13   7    2.82    0.98 
   4  13   7    1.64    1.17 
  -5 -13  -7   14.88    1.70 
   5  13   7   17.35    1.35 
   5  13   7   19.79    2.46 
   5  13   7   16.66    1.59 
  -6 -13  -7   21.23    1.95 
   6  13   7   24.27    1.44 
   6  13   7   29.94    2.84 
   6  13   7   26.77    2.20 
  -7 -13  -7   88.78    3.52 
   7  13   7   97.36    4.40 
  -8 -13  -7   91.01    3.59 
   8  13   7   86.98    4.51 
   5 -14  -7   17.57    2.01 
  -5  14   7   15.02    1.83 
  -5  14   7   15.09    1.97 
   4 -14  -7   -1.19    0.92 
  -4  14   7   -1.35    1.42 
  -4  14   7    1.17    1.21 
   3 -14  -7    2.51    0.98 
  -3  14   7    1.92    1.16 
  -3  14   7    1.29    1.20 
  -3  14   7    0.84    1.31 
   2 -14  -7   22.91    1.74 
  -2  14   7   25.30    2.11 
  -2  14   7   21.20    1.64 
  -2  14   7   20.17    2.40 
  -2  14   7   20.15    2.09 
   1 -14  -7    8.33    1.09 
  -1  14   7   10.46    1.45 
  -1  14   7    8.39    1.09 
  -1  14   7    8.51    1.24 
  -1  14   7    8.03    1.38 
   0 -14  -7    5.62    1.01 
   0  14   7    4.50    2.08 
   0  14   7    4.38    1.26 
   0  14   7    4.87    1.09 
   0  14   7    6.94    1.36 
   0  14   7    6.46    1.41 
  -1 -14  -7    7.85    1.21 
  -1 -14  -7    7.44    1.03 
   1  14   7    6.68    1.33 
   1  14   7    7.12    1.18 
   1  14   7    6.05    1.21 
   1  14   7    7.06    1.42 
   1  14   7    4.96    1.11 
  -2 -14  -7    3.34    1.06 
  -2 -14  -7    3.33    0.88 
   2  14   7    6.08    1.27 
   2  14   7    2.62    2.10 
   2  14   7    3.84    1.00 
   2  14   7    2.07    0.96 
   2  14   7    2.16    1.13 
  -3 -14  -7   43.71    2.39 
  -3 -14  -7   43.80    2.08 
   3  14   7   48.25    2.86 
   3  14   7   46.92    2.19 
   3  14   7   46.51    2.48 
   3  14   7   47.79    2.14 
  -4 -14  -7   55.01    2.54 
   4  14   7   53.34    2.46 
   4  14   7   47.37    2.03 
   4  14   7   48.87    2.10 
   4  14   7   53.44    3.18 
  -5 -14  -7   81.89    3.24 
   5  14   7   83.93    2.96 
   5  14   7   77.99    3.98 
  -6 -14  -7   72.24    3.16 
   6  14   7   74.07    4.03 
  -7 -14  -7   55.64    2.81 
   7  14   7   47.70    3.78 
  -4  15   7   14.94    2.09 
   3 -15  -7    9.60    1.26 
  -3  15   7    9.22    1.42 
  -3  15   7   10.55    1.49 
  -3  15   7    9.54    1.79 
   2 -15  -7    5.10    1.09 
  -2  15   7    6.70    1.29 
  -2  15   7    5.63    1.03 
  -2  15   7    8.10    1.47 
  -2  15   7    4.92    1.61 
   1 -15  -7    5.18    1.03 
  -1  15   7    4.24    1.37 
  -1  15   7    4.71    1.25 
  -1  15   7    4.64    1.10 
  -1  15   7    4.62    1.33 
   0 -15  -7    0.43    0.91 
   0  15   7   -0.07    1.10 
   0  15   7    0.57    1.15 
   0  15   7    1.98    1.24 
  -1 -15  -7   34.15    1.93 
  -1 -15  -7   33.30    2.25 
   1  15   7   36.90    2.37 
   1  15   7   34.05    2.55 
   1  15   7   30.48    2.70 
  -2 -15  -7  115.59    3.99 
  -2 -15  -7  120.09    3.67 
   2  15   7  118.41    4.32 
   2  15   7  114.37    3.83 
   2  15   7  108.69    4.11 
   2  15   7  111.72    3.74 
  -3 -15  -7   94.01    3.13 
  -3 -15  -7   89.75    3.52 
   3  15   7   93.55    3.09 
   3  15   7   93.93    4.00 
   3  15   7   90.26    3.51 
   3  15   7   89.34    3.16 
  -4 -15  -7   69.30    3.11 
   4  15   7   68.36    3.72 
   4  15   7   78.87    3.64 
  -5 -15  -7   68.00    3.06 
  -1   9  -8   85.70    4.24 
   1  -9   8   67.53    3.89 
  -2   9  -8   96.93    4.40 
   2  -9   8   90.32    4.24 
  -3   9  -8  100.78    4.51 
   3  -9   8  107.21    4.52 
  -4   9  -8   88.52    4.19 
   4  -9   8   84.86    4.10 
  -5   9  -8   51.66    2.72 
  -5   9  -8   44.63    3.40 
   5  -9   8   52.55    2.19 
   5  -9   8   57.59    3.48 
  -6   9  -8   10.13    1.75 
  -6   9  -8   10.45    1.50 
   6  -9   8   14.00    1.95 
   6  -9   8   14.17    1.71 
  -7   9  -8   -1.64    1.44 
  -7   9  -8   -0.95    1.39 
   7  -9   8    0.82    1.55 
   7  -9   8    0.23    0.98 
  -8   9  -8    3.53    1.54 
   8  -9   8    0.38    1.04 
   8  -9   8    1.61    2.64 
  -2  -8   8   39.42    2.13 
  -2  -8   8   47.09    3.01 
   1   8  -8  100.68    4.59 
  -1  -8   8   83.68    3.90 
   0  -8   8   68.37    3.51 
  -1   8  -8   83.37    4.00 
   1  -8   8   68.95    3.57 
  -2   8  -8   53.37    2.04 
  -2   8  -8   51.70    3.32 
   2  -8   8   56.17    3.15 
  -3   8  -8   43.72    3.45 
  -3   8  -8   49.92    3.16 
   3  -8   8   47.45    3.05 
  -4   8  -8   -1.31    0.98 
  -4   8  -8    1.29    1.39 
   4  -8   8   -2.16    1.22 
   4  -8   8    1.46    0.79 
  -5   8  -8    0.76    1.14 
  -5   8  -8   -0.47    1.25 
   5  -8   8   -0.33    1.23 
   5  -8   8    0.14    0.85 
  -6   8  -8    6.76    1.48 
  -6   8  -8    7.32    1.35 
   6  -8   8    8.79    1.79 
   6  -8   8    6.33    1.10 
   6  -8   8    9.95    1.65 
  -7   8  -8   18.90    2.40 
  -7   8  -8   20.07    2.59 
   7  -8   8   18.49    2.52 
   7  -8   8   21.11    2.67 
   7  -8   8   12.38    1.35 
  -8   8  -8    0.24    1.29 
  -8   8  -8    1.67    0.92 
   8  -8   8    2.82    1.52 
   8  -8   8    0.69    1.04 
   8  -8   8    0.83    1.41 
   9  -8   8    6.10    1.58 
   9  -8   8    1.50    1.55 
   9  -8   8    6.06    1.28 
  10  -8   8   -3.48    1.86 
  10  -8   8    0.23    1.12 
  10  -8   8    1.72    1.88 
   3   7  -8   70.15    4.12 
  -3  -7   8   71.79    3.32 
  -3  -7   8   66.74    2.56 
   2   7  -8   66.42    3.88 
  -2  -7   8   63.53    2.36 
  -2  -7   8   58.05    3.11 
   1   7  -8   74.05    3.85 
  -1  -7   8   52.19    3.02 
   0   7  -8   15.69    1.83 
   0  -7   8   16.37    2.26 
  -1   7  -8    5.79    1.46 
   1  -7   8    6.86    1.45 
  -2   7  -8    2.40    1.24 
  -2   7  -8    3.23    0.82 
   2  -7   8    2.00    1.41 
   2  -7   8    2.39    1.19 
  -3   7  -8    2.02    1.12 
  -3   7  -8    0.96    1.16 
   3  -7   8    0.55    1.13 
   3  -7   8    0.01    1.17 
   3  -7   8    0.82    0.72 
  -4   7  -8   15.12    1.81 
  -4   7  -8   15.40    1.69 
   4  -7   8   11.54    1.37 
   4  -7   8   13.21    1.53 
   4  -7   8   17.64    2.25 
  -5   7  -8    5.77    1.30 
  -5   7  -8    5.73    1.18 
   5  -7   8    3.01    0.93 
   5  -7   8    5.24    1.30 
   5  -7   8    6.26    1.32 
  -6   7  -8   -0.85    1.08 
  -6   7  -8   -1.69    1.08 
   6  -7   8   -0.21    1.11 
   6  -7   8    0.00    1.12 
   6  -7   8   -0.75    0.84 
  -7   7  -8   -1.77    1.04 
  -7   7  -8    2.94    1.19 
   7  -7   8    0.64    0.91 
   7  -7   8   -0.01    1.22 
   7  -7   8    1.80    1.24 
  -8   7  -8   25.43    1.55 
  -8   7  -8   17.70    2.25 
   8  -7   8   22.53    2.44 
   8  -7   8   19.29    1.86 
   8  -7   8   18.94    1.81 
  -9   7  -8   47.98    2.85 
   9  -7   8   49.23    3.05 
   9  -7   8   47.09    3.05 
   9  -7   8   49.40    2.52 
  10  -7   8   49.29    3.31 
  10  -7   8   53.26    2.72 
  10  -7   8   52.78    3.28 
 -11   7  -8   87.70    4.33 
  11  -7   8   74.03    3.88 
  11  -7   8   81.16    3.90 
  11  -7   8   82.16    3.42 
   5   6  -8   41.00    4.46 
   4   6  -8   57.28    3.84 
  -4  -6   8   56.14    2.23 
  -4  -6   8   44.71    3.04 
   3   6  -8   33.35    3.30 
  -3  -6   8   33.09    2.38 
  -3  -6   8   39.34    1.91 
   2   6  -8   13.61    1.86 
  -2  -6   8   15.33    1.43 
   1   6  -8    1.88    1.35 
   1   6  -8    1.08    1.11 
  -1  -6   8   -0.08    0.74 
   0   6  -8    4.27    1.31 
   0   6  -8    5.92    1.15 
   0  -6   8    5.95    1.26 
  -1   6  -8    8.83    1.42 
  -1   6  -8    7.68    1.16 
   1  -6   8    5.41    1.43 
   1  -6   8    7.39    1.29 
  -2   6  -8   44.15    2.74 
  -2   6  -8   44.63    2.05 
   2  -6   8   48.38    2.55 
  -3   6  -8   39.62    2.52 
  -3   6  -8   39.85    2.35 
   3  -6   8   38.27    2.34 
  -4   6  -8   -0.15    0.85 
  -4   6  -8    1.29    1.04 
   4  -6   8   -0.72    0.96 
  -5   6  -8    7.78    1.27 
  -5   6  -8    6.77    1.11 
   5  -6   8   11.02    1.44 
  -6   6  -8   16.63    2.04 
  -6   6  -8   13.98    1.82 
   6  -6   8   15.19    2.08 
  -7   6  -8   71.02    2.96 
  -7   6  -8   71.89    3.13 
   7  -6   8   69.83    3.11 
  -8   6  -8  112.06    3.19 
  -8   6  -8  106.26    3.83 
   8  -6   8  109.89    4.00 
  -9   6  -8  117.53    4.15 
   9  -6   8  116.85    4.29 
  10  -6   8  104.33    3.67 
  10  -6   8   99.39    4.09 
 -11   6  -8   69.64    3.84 
  11  -6   8   68.72    3.04 
  11  -6   8   67.52    3.57 
 -12   6  -8   30.42    3.55 
  12  -6   8   25.35    2.92 
  12  -6   8   26.77    2.23 
  12  -6   8   17.32    1.92 
   6   5  -8   40.34    3.81 
   5   5  -8   20.76    2.31 
  -5  -5   8   22.50    1.69 
   4   5  -8   11.30    1.87 
  -4  -5   8   16.06    1.50 
   3   5  -8   -1.71    1.30 
   3   5  -8   -0.52    1.59 
  -3  -5   8    0.06    0.77 
   2   5  -8    7.03    1.28 
   2   5  -8    8.02    1.50 
  -2  -5   8    6.76    1.41 
  -2  -5   8   10.56    1.24 
   1   5  -8   10.74    1.28 
   1   5  -8    9.02    1.46 
  -1  -5   8    9.59    0.88 
  -1  -5   8    8.43    1.09 
   0   5  -8    8.67    1.11 
   0   5  -8    8.95    1.15 
   0   5  -8    7.27    1.36 
   0  -5   8    9.98    1.13 
  -1   5  -8   10.67    1.17 
  -1   5  -8   10.12    1.16 
  -1   5  -8   11.68    1.43 
   1  -5   8   11.36    1.21 
  -2   5  -8    0.59    0.72 
  -2   5  -8   -0.66    0.98 
   2  -5   8    0.70    0.64 
  -3   5  -8    6.57    0.96 
  -3   5  -8    6.53    1.18 
   3  -5   8    7.80    0.89 
   3  -5   8    7.37    1.39 
  -4   5  -8    8.72    1.10 
  -4   5  -8    9.82    1.28 
   4  -5   8   12.87    1.40 
   4  -5   8   10.14    1.21 
  -5   5  -8   85.22    3.26 
  -5   5  -8   81.64    3.05 
   5  -5   8   80.73    3.26 
   5  -5   8   92.75    3.28 
  -6   5  -8  160.20    4.82 
  -6   5  -8  169.32    5.02 
   6  -5   8  164.19    5.07 
   6  -5   8  161.85    5.06 
  -7   5  -8  108.82    3.69 
  -7   5  -8  114.16    3.85 
   7  -5   8  108.87    3.87 
   7  -5   8  111.06    3.94 
  -8   5  -8  112.49    3.88 
  -8   5  -8  116.17    3.22 
   8  -5   8  117.44    4.04 
   8  -5   8  111.82    3.99 
  -9   5  -8   55.55    2.81 
   9  -5   8   61.50    2.92 
   9  -5   8   61.02    2.88 
 -10   5  -8   11.81    1.45 
  10  -5   8   13.81    1.60 
 -11   5  -8    2.44    1.53 
  11  -5   8    5.32    1.38 
 -12   5  -8    2.24    1.70 
  12  -5   8   -1.95    1.25 
  12  -5   8   -0.60    1.32 
  12  -5   8   -0.78    0.95 
 -13   5  -8    5.86    1.88 
  13  -5   8    7.15    1.37 
  13  -5   8    6.65    1.67 
  13  -5   8    1.56    1.47 
   6   4  -8    4.64    1.81 
  -6  -4   8    7.21    1.09 
   5   4  -8    2.54    1.55 
  -5  -4   8    1.93    0.89 
   4   4  -8   10.17    1.39 
   4   4  -8    8.25    1.61 
  -4  -4   8    9.39    1.30 
  -4  -4   8    9.09    1.74 
  -4  -4   8   11.56    1.36 
   3   4  -8   11.48    1.58 
   3   4  -8   15.29    1.95 
  -3  -4   8   12.26    1.62 
  -3  -4   8   16.18    1.25 
  -3  -4   8   13.29    1.27 
   2   4  -8    3.86    1.08 
   2   4  -8    2.73    1.20 
  -2  -4   8    4.26    0.72 
  -2  -4   8    2.72    1.24 
  -2  -4   8    3.16    0.68 
   1   4  -8    0.10    1.08 
   1   4  -8   -0.43    0.82 
  -1  -4   8   -0.51    0.59 
  -1  -4   8    2.43    1.08 
  -1  -4   8    0.45    0.58 
   0   4  -8    1.86    1.02 
   0   4  -8    0.53    0.78 
   0  -4   8    1.22    0.60 
  -1   4  -8   36.51    1.66 
  -1   4  -8   35.72    2.33 
   1  -4   8   38.88    1.64 
  -2   4  -8   67.24    2.48 
  -2   4  -8   68.29    3.31 
   2  -4   8   73.73    2.36 
  -3   4  -8  194.74    5.23 
  -3   4  -8  175.10    6.53 
   3  -4   8  183.57    5.51 
   3  -4   8  201.24    5.11 
  -4   4  -8  181.33    5.33 
  -4   4  -8  176.23    5.12 
   4  -4   8  178.63    5.29 
   4  -4   8  181.08    4.91 
  -5   4  -8  165.79    4.82 
  -5   4  -8  164.97    4.97 
   5  -4   8  168.11    5.02 
   5  -4   8  167.53    4.67 
  -6   4  -8  106.59    3.47 
  -6   4  -8  106.92    3.58 
   6  -4   8  104.57    3.58 
   6  -4   8  102.39    3.57 
  -7   4  -8   59.65    2.55 
  -7   4  -8   60.38    2.13 
   7  -4   8   61.40    2.68 
   7  -4   8   58.36    2.64 
  -8   4  -8   21.47    1.24 
  -8   4  -8   20.75    1.86 
   8  -4   8   19.63    1.89 
   8  -4   8   24.96    2.02 
  -9   4  -8   -1.29    0.91 
   9  -4   8    0.47    0.92 
   9  -4   8    0.76    0.93 
 -10   4  -8    0.90    1.01 
  10  -4   8    0.96    1.00 
  10  -4   8    1.22    1.08 
 -11   4  -8    5.59    1.47 
  11  -4   8    3.11    1.23 
 -12   4  -8    9.72    1.68 
 -13   4  -8   -0.24    1.69 
  13  -4   8   -1.22    1.36 
  13  -4   8    0.73    1.05 
  13  -4   8    1.20    1.38 
   7   3  -8   -1.98    1.63 
  -7  -3   8   -1.62    1.13 
  -7  -3   8   -0.13    0.96 
   6   3  -8    2.98    1.57 
  -6  -3   8    2.32    1.10 
  -6  -3   8    4.68    0.99 
   5   3  -8    3.40    1.48 
   5   3  -8    4.29    1.57 
  -5  -3   8    5.24    1.06 
  -5  -3   8    7.10    0.97 
  -5  -3   8    3.73    1.48 
   4   3  -8    2.35    1.12 
   4   3  -8    1.72    1.26 
  -4  -3   8    4.56    0.82 
  -4  -3   8    3.05    0.89 
  -4  -3   8    1.64    1.29 
   3   3  -8    4.76    1.23 
   3   3  -8    6.08    1.11 
  -3  -3   8    4.46    0.89 
  -3  -3   8    3.61    1.23 
  -3  -3   8    5.07    0.77 
   2   3  -8    5.36    1.21 
   2   3  -8    6.06    1.06 
  -2  -3   8    8.00    1.26 
  -2  -3   8    6.71    0.83 
  -2  -3   8    7.26    0.73 
   1   3  -8   54.00    2.36 
   1   3  -8   54.71    2.69 
  -1  -3   8   57.96    2.02 
  -1  -3   8   53.90    2.68 
  -1  -3   8   55.31    1.79 
   0   3  -8   70.30    2.34 
   0   3  -8   63.91    3.56 
   0   3  -8   70.54    2.60 
   0  -3   8   71.40    2.30 
   0  -3   8   70.74    2.90 
  -1   3  -8  192.22    5.33 
  -1   3  -8  192.23    5.17 
  -1   3  -8  192.24    5.61 
   1  -3   8  193.74    5.61 
   1  -3   8  199.44    5.11 
  -2   3  -8  137.94    4.08 
  -2   3  -8  144.63    4.09 
  -2   3  -8  143.43    4.38 
   2  -3   8  144.50    3.94 
   2  -3   8  140.24    4.37 
  -3   3  -8  153.99    4.38 
  -3   3  -8  156.32    4.43 
  -3   3  -8  157.35    4.66 
   3  -3   8  156.11    4.27 
   3  -3   8  153.36    4.65 
  -4   3  -8  100.84    4.49 
  -4   3  -8  115.61    3.70 
   4  -3   8  118.91    3.39 
   4  -3   8  118.73    3.74 
  -5   3  -8   32.42    1.95 
  -5   3  -8   35.49    1.87 
   5  -3   8   32.22    1.90 
   5  -3   8   32.12    1.66 
  -6   3  -8    1.53    0.77 
  -6   3  -8    0.42    0.80 
   6  -3   8    0.81    0.74 
   6  -3   8    1.58    0.70 
  -7   3  -8    2.08    0.67 
  -7   3  -8    1.53    0.82 
   7  -3   8    1.51    0.80 
   7  -3   8    0.29    1.49 
  -8   3  -8   16.16    1.13 
  -8   3  -8   14.38    1.69 
   8  -3   8   14.12    1.67 
   8  -3   8   13.70    1.65 
  -9   3  -8   16.81    1.84 
  -9   3  -8   17.23    1.06 
   9  -3   8   15.45    1.81 
   9  -3   8   16.22    1.80 
 -10   3  -8    3.93    1.12 
  10  -3   8    5.32    1.09 
  10  -3   8    5.45    1.11 
 -11   3  -8   -0.08    1.00 
 -11   3  -8   -0.16    1.23 
  11  -3   8   -0.13    1.02 
  11  -3   8    0.08    0.99 
 -12   3  -8    2.74    1.39 
  12  -3   8    0.89    1.18 
 -13   3  -8   39.19    3.20 
  13  -3   8   39.85    2.80 
 -14   3  -8   49.46    3.70 
  14  -3   8   46.95    3.23 
  14  -3   8   60.87    3.34 
  14  -3   8   53.51    3.51 
   8   2  -8   -0.44    1.79 
  -8  -2   8    1.82    1.03 
  -8  -2   8    3.04    1.52 
  -8  -2   8   -0.09    1.38 
   7   2  -8    4.51    1.64 
  -7  -2   8    2.04    1.30 
  -7  -2   8    3.57    0.94 
  -7  -2   8    4.32    1.35 
   6   2  -8   -1.24    1.29 
  -6  -2   8   -0.66    1.10 
  -6  -2   8   -1.76    0.79 
  -6  -2   8   -2.55    1.33 
   5   2  -8   -0.79    0.65 
   5   2  -8   -0.68    1.18 
   5   2  -8    0.80    1.13 
  -5  -2   8    0.06    1.17 
  -5  -2   8   -0.90    0.72 
  -5  -2   8   -1.29    0.96 
   4   2  -8   18.31    1.22 
   4   2  -8   17.34    1.99 
   4   2  -8   17.58    2.24 
  -4  -2   8   18.47    1.78 
  -4  -2   8   18.99    2.22 
  -4  -2   8   17.37    1.25 
   3   2  -8   35.07    1.47 
   3   2  -8   35.65    2.10 
   3   2  -8   35.52    2.39 
  -3  -2   8   35.52    2.40 
  -3  -2   8   32.36    1.43 
  -3  -2   8   38.30    1.91 
   2   2  -8  108.31    4.41 
   2   2  -8  111.54    3.67 
  -2  -2   8  118.54    3.97 
  -2  -2   8  115.59    3.21 
  -2  -2   8  116.43    3.46 
   1   2  -8  158.54    4.60 
   1   2  -8  160.04    4.84 
  -1  -2   8  158.37    4.82 
  -1  -2   8  158.26    4.00 
  -1  -2   8  157.83    4.39 
   0   2  -8  110.16    3.66 
   0   2  -8  108.35    3.36 
   0   2  -8  104.22    3.18 
   0  -2   8  110.47    3.60 
   0  -2   8  108.85    3.17 
  -1   2  -8  126.71    3.69 
  -1   2  -8  125.63    3.94 
  -1   2  -8  123.95    3.60 
   1  -2   8  126.35    3.53 
   1  -2   8  123.73    3.92 
  -2   2  -8   88.32    3.08 
  -2   2  -8   88.43    2.83 
  -2   2  -8   90.19    2.86 
   2  -2   8   89.55    2.71 
   2  -2   8   87.43    3.06 
  -3   2  -8   16.56    1.24 
  -3   2  -8   16.40    1.36 
  -3   2  -8   16.46    1.51 
   3  -2   8   15.82    1.17 
   3  -2   8   16.85    1.47 
  -4   2  -8   -0.17    0.61 
  -4   2  -8    0.33    0.67 
   4  -2   8   -0.46    0.64 
   4  -2   8   -0.11    0.51 
  -5   2  -8   23.45    1.69 
  -5   2  -8   24.80    1.63 
   5  -2   8   25.94    1.43 
   5  -2   8   24.60    1.63 
  -6   2  -8   42.72    2.02 
  -6   2  -8   42.08    1.71 
   6  -2   8   43.43    2.05 
   6  -2   8   41.28    1.88 
  -7   2  -8    9.51    1.06 
  -7   2  -8    7.96    1.02 
   7  -2   8    9.46    1.31 
   7  -2   8   10.87    1.42 
  -8   2  -8   11.40    1.54 
  -8   2  -8   11.75    1.05 
   8  -2   8   11.85    1.49 
   8  -2   8   13.80    1.60 
  -9   2  -8    1.88    0.59 
  -9   2  -8    0.76    0.90 
   9  -2   8    1.49    0.80 
 -10   2  -8    0.59    0.90 
  10  -2   8    0.71    0.89 
  10  -2   8    1.31    0.90 
 -11   2  -8   38.60    2.60 
  11  -2   8   45.86    2.39 
  11  -2   8   38.66    2.36 
 -12   2  -8   55.13    3.04 
  12  -2   8   60.66    2.87 
 -13   2  -8   86.99    3.81 
  13  -2   8   87.54    3.60 
 -14   2  -8   75.33    3.88 
  14  -2   8   75.23    3.47 
  14  -2   8   64.40    3.42 
   8   1  -8    0.51    0.88 
   8   1  -8    0.07    1.57 
  -8  -1   8    0.96    1.41 
  -8  -1   8    1.30    1.54 
   7   1  -8    4.13    1.52 
   7   1  -8   -1.38    1.29 
  -7  -1   8    0.45    1.39 
  -7  -1   8    2.41    1.31 
  -7  -1   8    1.04    1.29 
   6   1  -8   21.08    1.47 
   6   1  -8   20.75    2.50 
   6   1  -8   18.46    2.33 
  -6  -1   8   22.25    2.31 
  -6  -1   8   24.72    2.55 
  -6  -1   8   20.58    1.46 
  -6  -1   8   23.54    2.22 
   5   1  -8   40.66    2.65 
   5   1  -8   39.38    1.74 
   5   1  -8   37.90    2.54 
  -5  -1   8   41.77    2.38 
  -5  -1   8   41.17    2.58 
  -5  -1   8   40.76    1.67 
  -5  -1   8   41.41    2.38 
   4   1  -8  104.50    3.64 
   4   1  -8   97.81    3.16 
  -4  -1   8  103.38    2.90 
  -4  -1   8  105.81    3.46 
  -4  -1   8  103.57    3.51 
  -4  -1   8  103.13    3.75 
   3   1  -8  129.18    4.07 
   3   1  -8  131.63    4.23 
   3   1  -8  126.28    3.49 
  -3  -1   8  128.21    4.19 
  -3  -1   8  124.78    3.86 
  -3  -1   8  131.14    3.90 
  -3  -1   8  127.29    3.96 
   2   1  -8  140.72    3.76 
   2   1  -8  141.69    4.42 
   2   1  -8  138.74    4.22 
  -2  -1   8  142.88    3.60 
  -2  -1   8  140.10    4.39 
  -2  -1   8  144.33    4.11 
   1   1  -8   92.71    2.98 
   1   1  -8   91.36    3.19 
   1   1  -8   90.31    2.83 
   1   1  -8   89.27    2.60 
  -1  -1   8   93.08    3.21 
  -1  -1   8   92.56    2.93 
  -1  -1   8   88.48    2.39 
   0   1  -8   11.84    1.15 
   0   1  -8   11.46    1.47 
   0   1  -8   11.59    1.20 
   0  -1   8   11.99    1.43 
   0  -1   8   10.53    1.23 
  -1   1  -8   17.77    1.49 
  -1   1  -8   18.09    1.23 
  -1   1  -8   16.40    1.24 
   1  -1   8   16.61    1.23 
   1  -1   8   15.76    1.46 
  -2   1  -8   56.21    2.26 
  -2   1  -8   56.03    2.11 
  -2   1  -8   57.55    2.03 
   2  -1   8   56.86    2.26 
   2  -1   8   57.37    2.00 
  -3   1  -8   23.78    1.54 
  -3   1  -8   19.48    1.90 
  -3   1  -8   26.81    1.50 
   3  -1   8   25.34    1.57 
   3  -1   8   27.85    1.36 
  -4   1  -8   39.49    1.81 
  -4   1  -8   35.85    1.75 
   4  -1   8   37.85    1.61 
   4  -1   8   34.32    1.78 
  -5   1  -8    6.60    1.04 
  -5   1  -8    7.51    1.02 
   5  -1   8    6.82    0.80 
   5  -1   8    6.60    0.83 
  -6   1  -8    0.07    0.67 
  -6   1  -8    0.18    0.55 
   6  -1   8    0.91    0.63 
   6  -1   8    0.92    0.68 
  -7   1  -8   23.78    1.67 
  -7   1  -8   26.31    1.34 
   7  -1   8   27.99    1.69 
   7  -1   8   27.40    1.59 
  -8   1  -8   25.74    1.33 
  -8   1  -8   28.23    1.81 
   8  -1   8   26.63    1.77 
   8  -1   8   27.34    1.70 
  -9   1  -8   70.21    3.06 
  -9   1  -8   69.72    2.25 
   9  -1   8   74.99    2.71 
   9  -1   8   69.20    2.78 
 -10   1  -8  167.55    4.99 
  10  -1   8  168.79    5.00 
  10  -1   8  170.07    5.03 
 -11   1  -8  168.18    5.11 
  11  -1   8  160.42    6.24 
  11  -1   8  172.27    5.09 
 -12   1  -8   66.48    3.54 
 -12   1  -8   65.51    4.53 
  12  -1   8   71.88    2.96 
 -13   1  -8   57.25    3.09 
  13  -1   8   62.72    2.90 
 -14   1  -8   25.90    2.93 
  14  -1   8   35.77    2.59 
  14  -1   8   27.62    2.68 
   9   0  -8    7.01    1.16 
   9   0  -8    4.69    1.74 
  -9   0   8    7.79    1.70 
  -9   0   8    9.03    1.76 
   8   0  -8   33.26    2.97 
   8   0  -8   33.17    1.97 
  -8   0   8   33.45    2.86 
  -8   0   8   28.99    2.81 
  -8   0   8   29.13    2.30 
   7   0  -8   51.39    3.01 
   7   0  -8   52.31    2.25 
  -7   0   8   53.33    2.94 
  -7   0   8   47.84    4.23 
  -7   0   8   54.37    3.03 
   6   0  -8   86.72    3.62 
   6   0  -8   86.62    3.60 
   6   0  -8   90.34    3.93 
  -6   0   8   91.46    3.60 
  -6   0   8   89.83    3.48 
  -6   0   8   92.40    3.41 
   5   0  -8   69.49    2.38 
   5   0  -8   71.57    3.06 
   5   0  -8   73.64    3.08 
  -5   0   8   68.99    2.92 
  -5   0   8   70.72    2.99 
  -5   0   8   71.10    2.92 
   4   0  -8   73.05    2.36 
   4   0  -8   74.55    3.01 
   4   0  -8   72.33    2.92 
  -4   0   8   70.33    2.82 
  -4   0   8   72.67    2.94 
  -4   0   8   74.58    2.84 
   3   0  -8   84.24    3.12 
   3   0  -8   80.78    2.96 
  -3   0   8   82.57    3.01 
  -3   0   8   84.75    3.09 
  -3   0   8   82.94    2.31 
  -3   0   8   87.39    2.97 
   2   0  -8   18.62    1.64 
   2   0  -8   16.82    1.10 
   2   0  -8   16.68    1.44 
  -2   0   8   18.36    1.47 
  -2   0   8   16.24    1.51 
  -2   0   8   16.56    1.61 
   1   0  -8    4.11    0.61 
   1   0  -8    4.06    0.82 
   1   0  -8    4.07    0.69 
   1   0  -8    4.72    0.77 
  -1   0   8    3.83    0.70 
  -1   0   8    3.65    0.76 
  -1   0   8    3.48    0.81 
   0   0  -8   28.63    1.44 
   0   0  -8   26.04    1.22 
   0   0  -8   27.30    1.60 
   0   0  -8   25.38    1.45 
   0   0   8   26.05    1.50 
   0   0   8   19.52    2.55 
  -1   0  -8   19.63    1.41 
  -1   0  -8   17.87    1.23 
   1   0   8   16.38    1.62 
   1   0   8   19.94    1.33 
  -2   0  -8   10.79    1.17 
  -2   0  -8   11.78    1.01 
  -2   0  -8   11.84    1.23 
   2   0   8   13.26    1.14 
   2   0   8   10.42    1.24 
  -3   0  -8   18.36    1.32 
  -3   0  -8   18.71    1.34 
  -3   0  -8   18.36    1.11 
   3   0   8   16.24    1.34 
   3   0   8   18.08    1.19 
  -4   0  -8    3.87    0.69 
  -4   0  -8    4.42    0.59 
  -4   0  -8    3.56    0.67 
   4   0   8    4.00    1.16 
   4   0   8    3.42    0.59 
  -5   0  -8   22.86    1.78 
  -5   0  -8   24.43    1.31 
   5   0   8   23.97    1.71 
   5   0   8   23.82    1.36 
  -6   0  -8   98.88    3.20 
  -6   0  -8   99.04    2.90 
   6   0   8   99.55    3.16 
   6   0   8   96.80    3.05 
  -7   0  -8  155.28    4.41 
  -7   0  -8  148.11    4.07 
   7   0   8  147.81    4.35 
   7   0   8  147.10    4.26 
  -8   0  -8  134.38    3.71 
  -8   0  -8  132.98    4.06 
   8   0   8  132.23    4.05 
   8   0   8  134.57    3.99 
  -9   0  -8  186.44    4.98 
   9   0   8  190.21    5.41 
   9   0   8  190.76    5.27 
 -10   0  -8  195.41    5.44 
  10   0   8  190.80    5.51 
  10   0   8  187.27    5.40 
 -11   0  -8   63.97    2.69 
  11   0   8   62.62    2.56 
  11   0   8   60.76    2.74 
 -12   0  -8    9.00    1.32 
 -12   0  -8   10.89    1.39 
  12   0   8   13.94    1.69 
 -13   0  -8    2.65    1.51 
  13   0   8    2.46    1.16 
  13   0   8    1.39    1.12 
 -14   0  -8   -2.43    1.46 
  14   0   8    1.82    1.22 
  14   0   8   -0.29    1.16 
   9  -1  -8   41.32    2.30 
   9  -1  -8   42.76    3.24 
  -9   1   8   41.31    3.42 
  -9   1   8   49.79    3.66 
  -9   1   8   37.73    3.09 
   8  -1  -8   63.94    3.35 
   8  -1  -8   68.54    2.62 
  -8   1   8   67.37    3.38 
  -8   1   8   63.44    3.40 
  -8   1   8   61.13    2.96 
   7  -1  -8   55.22    3.49 
   7  -1  -8   58.26    3.67 
   7  -1  -8   59.54    2.40 
  -7   1   8   58.38    2.91 
  -7   1   8   60.73    3.05 
  -7   1   8   62.81    3.04 
   6  -1  -8   64.00    3.06 
   6  -1  -8   66.06    2.43 
   6  -1  -8   67.70    2.99 
  -6   1   8   64.64    2.97 
  -6   1   8   70.64    2.99 
  -6   1   8   68.96    2.93 
   5  -1  -8   62.80    2.79 
   5  -1  -8   63.04    2.55 
  -5   1   8   62.60    2.70 
  -5   1   8   62.18    2.68 
  -5   1   8   61.88    2.75 
   4  -1  -8    9.44    1.19 
   4  -1  -8   10.56    1.21 
   4  -1  -8   10.54    1.17 
  -4   1   8   10.27    1.15 
  -4   1   8    9.53    1.13 
  -4   1   8    8.90    1.15 
   3  -1  -8    4.46    0.88 
   3  -1  -8    3.92    0.91 
   3  -1  -8    3.69    0.66 
  -3   1   8    5.10    0.88 
  -3   1   8    4.80    0.90 
  -3   1   8    4.02    0.94 
   2  -1  -8    6.39    0.88 
   2  -1  -8    6.24    0.90 
  -2   1   8    6.83    0.89 
  -2   1   8    6.75    0.92 
  -2   1   8    7.31    0.95 
   1  -1  -8   31.56    1.69 
   1  -1  -8   32.78    1.63 
   1  -1  -8   31.44    1.37 
  -1   1   8   34.45    1.74 
  -1   1   8   34.56    1.72 
  -1   1   8   32.58    1.57 
   0  -1  -8   74.74    2.24 
   0  -1  -8   72.97    2.51 
   0  -1  -8   72.77    2.44 
   0   1   8   71.94    2.49 
   0   1   8   71.70    2.36 
   0   1   8   74.94    2.55 
  -1  -1  -8    2.15    0.52 
  -1  -1  -8    2.28    0.63 
  -1  -1  -8    2.53    0.57 
  -1  -1  -8    1.82    0.57 
   1   1   8    2.65    0.65 
   1   1   8    2.32    0.63 
  -2  -1  -8    3.12    0.64 
  -2  -1  -8    3.77    0.66 
  -2  -1  -8    3.29    0.55 
   2   1   8    3.19    0.66 
   2   1   8    3.78    0.67 
  -3  -1  -8    3.73    0.69 
  -3  -1  -8    4.75    0.72 
  -3  -1  -8    4.38    0.55 
   3   1   8    3.98    0.69 
   3   1   8    3.86    0.64 
  -4  -1  -8   80.94    2.56 
  -4  -1  -8   83.10    2.71 
  -4  -1  -8   81.55    2.55 
   4   1   8   81.34    2.68 
   4   1   8   83.64    2.60 
  -5  -1  -8  184.50    5.09 
  -5  -1  -8  189.01    4.90 
   5   1   8  186.63    4.98 
   5   1   8  178.34    5.08 
  -6  -1  -8  198.56    5.20 
  -6  -1  -8  195.68    5.42 
   6   1   8  194.28    5.45 
   6   1   8  201.41    5.32 
  -7  -1  -8  132.35    3.68 
  -7  -1  -8  128.05    3.92 
   7   1   8  131.49    3.82 
   7   1   8  129.08    3.88 
  -8  -1  -8   89.74    2.80 
  -8  -1  -8   92.85    3.10 
   8   1   8   92.03    3.02 
   8   1   8   91.35    3.09 
  -9  -1  -8   47.56    2.32 
  -9  -1  -8   49.76    1.93 
   9   1   8   51.27    2.20 
   9   1   8   51.48    2.28 
 -10  -1  -8    4.06    1.02 
 -10  -1  -8    4.42    0.93 
  10   1   8    4.63    0.90 
  10   1   8    4.09    0.96 
  10   1   8    4.66    0.79 
 -11  -1  -8   -0.21    0.84 
  11   1   8    1.47    0.82 
  11   1   8    0.91    0.71 
 -12  -1  -8    8.49    1.18 
 -12  -1  -8    6.81    1.37 
  12   1   8    7.14    0.97 
  12   1   8    6.71    1.06 
 -13  -1  -8   10.28    1.40 
  13   1   8   12.76    1.76 
  13   1   8    8.63    1.09 
 -14  -1  -8   15.89    1.65 
  14   1   8   14.92    2.00 
 -15  -1  -8    8.77    1.57 
   9  -2  -8   42.55    2.47 
  -9   2   8   49.07    3.20 
  -9   2   8   49.07    3.52 
   8  -2  -8   26.18    2.51 
   8  -2  -8   27.57    1.99 
  -8   2   8   35.51    2.85 
  -8   2   8   33.70    2.67 
  -8   2   8   34.20    2.42 
   7  -2  -8   16.44    2.16 
   7  -2  -8   19.33    1.63 
   7  -2  -8   16.27    1.68 
  -7   2   8   19.49    2.03 
  -7   2   8   22.63    2.36 
  -7   2   8   19.32    2.24 
   6  -2  -8   13.08    1.37 
   6  -2  -8   12.95    1.42 
   6  -2  -8   10.54    1.26 
  -6   2   8    8.82    1.27 
  -6   2   8   12.50    1.72 
   5  -2  -8    9.96    1.17 
   5  -2  -8   12.12    1.31 
  -5   2   8   10.99    1.38 
  -5   2   8    8.96    1.25 
  -5   2   8    9.96    1.24 
   4  -2  -8    0.09    0.76 
   4  -2  -8    0.29    0.64 
  -4   2   8    0.10    0.78 
  -4   2   8    0.90    1.52 
  -4   2   8    0.69    0.82 
   3  -2  -8   -0.49    0.67 
   3  -2  -8   -0.03    0.61 
   3  -2  -8    0.32    0.70 
  -3   2   8    1.22    0.74 
  -3   2   8    0.73    0.71 
  -3   2   8    0.19    0.75 
   2  -2  -8    0.62    0.64 
   2  -2  -8   -0.20    0.63 
   2  -2  -8   -0.09    0.50 
  -2   2   8    0.93    0.73 
  -2   2   8    0.66    0.64 
  -2   2   8    0.21    0.62 
   1  -2  -8   -0.04    0.55 
   1  -2  -8   -0.16    0.62 
   1  -2  -8    0.00    0.57 
  -1   2   8    0.22    0.56 
  -1   2   8   -0.51    0.59 
  -1   2   8    0.29    0.59 
   0  -2  -8    5.27    0.71 
   0  -2  -8    4.92    0.71 
   0  -2  -8    5.58    0.70 
   0   2   8    5.61    0.81 
   0   2   8    5.09    0.68 
   0   2   8    4.04    0.69 
  -1  -2  -8   70.24    2.33 
  -1  -2  -8   69.29    2.24 
  -1  -2  -8   70.28    2.36 
  -1  -2  -8   69.84    2.24 
   1   2   8   71.71    2.21 
   1   2   8   69.16    2.42 
   1   2   8   70.29    2.37 
  -2  -2  -8  155.75    4.17 
  -2  -2  -8  156.62    4.32 
  -2  -2  -8  145.03    4.27 
  -2  -2  -8  148.72    4.22 
   2   2   8  156.38    4.31 
   2   2   8  158.44    4.28 
  -3  -2  -8  216.70    5.76 
  -3  -2  -8  215.81    5.47 
  -3  -2  -8  209.19    5.64 
   3   2   8  219.30    5.71 
   3   2   8  219.03    5.73 
  -4  -2  -8  244.34    6.27 
  -4  -2  -8  239.25    6.39 
  -4  -2  -8  239.42    6.05 
   4   2   8  248.11    6.31 
   4   2   8  245.39    6.35 
  -5  -2  -8  191.70    5.30 
  -5  -2  -8  198.64    5.17 
  -5  -2  -8  189.49    4.91 
   5   2   8  202.01    5.29 
   5   2   8  194.24    5.21 
  -6  -2  -8   59.32    2.06 
  -6  -2  -8   55.14    2.50 
   6   2   8   60.97    2.14 
   6   2   8   56.59    2.48 
  -7  -2  -8   35.98    1.61 
  -7  -2  -8   37.63    1.87 
   7   2   8   36.39    1.56 
   7   2   8   35.35    1.69 
  -8  -2  -8   12.77    1.19 
  -8  -2  -8   10.74    1.48 
   8   2   8   12.06    1.32 
   8   2   8   13.93    1.13 
  -9  -2  -8   -0.53    0.75 
  -9  -2  -8    1.05    0.66 
   9   2   8    0.03    0.69 
   9   2   8    0.76    0.67 
 -10  -2  -8   26.79    1.57 
 -10  -2  -8   22.42    1.93 
  10   2   8   25.84    1.50 
  10   2   8   23.83    1.53 
 -11  -2  -8    2.48    0.88 
  11   2   8    1.84    0.83 
  11   2   8    4.34    0.83 
 -12  -2  -8    1.17    0.92 
 -12  -2  -8    0.09    1.12 
  12   2   8    3.19    0.88 
  12   2   8    3.43    0.90 
 -13  -2  -8   -0.59    1.00 
  13   2   8    0.77    0.92 
  13   2   8    0.56    0.92 
 -14  -2  -8    3.66    1.24 
  14   2   8    7.39    1.19 
  14   2   8    6.61    1.16 
   9  -3  -8    2.01    1.05 
   9  -3  -8    2.94    1.26 
  -9   3   8    1.57    1.61 
  -9   3   8    1.82    1.54 
   8  -3  -8    3.83    1.04 
   8  -3  -8    4.45    1.19 
  -8   3   8    3.70    1.34 
  -8   3   8    3.05    1.49 
  -8   3   8    3.56    1.45 
   7  -3  -8    1.01    0.88 
   7  -3  -8    0.05    0.99 
   7  -3  -8    1.65    1.21 
  -7   3   8    1.55    1.22 
  -7   3   8    0.62    1.03 
  -7   3   8   -0.37    1.16 
   6  -3  -8   10.78    1.13 
   6  -3  -8   12.74    1.71 
  -6   3   8   13.43    1.53 
  -6   3   8   12.07    1.39 
  -6   3   8   12.63    1.58 
   5  -3  -8   33.12    1.74 
   5  -3  -8   34.44    1.90 
  -5   3   8   33.89    1.82 
  -5   3   8   32.69    2.16 
  -5   3   8   30.85    2.20 
   4  -3  -8    9.02    0.97 
   4  -3  -8   12.34    1.41 
  -4   3   8    8.46    1.12 
  -4   3   8   10.63    1.18 
  -4   3   8   10.16    1.29 
   3  -3  -8    6.33    0.77 
   3  -3  -8    7.51    0.86 
   3  -3  -8    6.01    0.90 
  -3   3   8    5.42    0.91 
  -3   3   8    7.00    0.84 
  -3   3   8    6.38    0.95 
   2  -3  -8   74.62    2.57 
   2  -3  -8   73.90    2.42 
   2  -3  -8   70.19    2.34 
  -2   3   8   73.02    2.62 
  -2   3   8   71.69    2.51 
  -2   3   8   71.22    2.46 
   1  -3  -8   37.34    1.59 
   1  -3  -8   35.54    1.78 
   1  -3  -8   34.25    1.47 
  -1   3   8   38.41    1.83 
  -1   3   8   36.01    1.62 
   0  -3  -8  167.83    4.56 
   0  -3  -8  174.08    4.71 
   0  -3  -8  169.82    4.60 
   0  -3  -8  171.93    4.51 
   0   3   8  166.57    4.54 
   0   3   8  178.24    5.06 
   0   3   8  167.40    4.76 
  -1  -3  -8  257.44    6.47 
  -1  -3  -8  255.81    6.62 
  -1  -3  -8  250.49    6.59 
  -1  -3  -8  240.48    6.62 
   1   3   8  261.29    6.61 
   1   3   8  256.78    6.42 
   1   3   8  258.97    6.68 
  -2  -3  -8  182.32    5.23 
  -2  -3  -8  200.89    5.25 
  -2  -3  -8  198.56    5.03 
  -2  -3  -8  190.51    5.18 
   2   3   8  195.33    4.97 
   2   3   8  201.23    5.29 
   2   3   8  196.42    5.18 
  -3  -3  -8   76.77    2.26 
  -3  -3  -8   79.36    2.00 
  -3  -3  -8   77.11    2.37 
  -3  -3  -8   77.49    2.60 
  -3  -3  -8   77.35    2.47 
   3   3   8   78.12    2.50 
   3   3   8   76.20    2.58 
  -4  -3  -8   93.03    2.54 
  -4  -3  -8   91.72    2.80 
  -4  -3  -8   91.71    2.91 
   4   3   8   91.59    2.86 
   4   3   8   92.04    2.84 
  -5  -3  -8    5.17    0.75 
  -5  -3  -8    7.79    0.69 
  -5  -3  -8    7.12    1.01 
   5   3   8    4.66    0.69 
   5   3   8    6.47    0.72 
  -6  -3  -8    0.40    0.34 
  -6  -3  -8    0.59    0.61 
   6   3   8    0.66    0.54 
   6   3   8    0.39    0.53 
  -7  -3  -8   12.31    1.38 
  -7  -3  -8   12.17    1.19 
   7   3   8   12.37    1.21 
   7   3   8   12.03    1.12 
  -8  -3  -8  112.99    3.44 
  -8  -3  -8  115.46    3.68 
   8   3   8  114.26    3.38 
   8   3   8  114.86    3.50 
  -9  -3  -8    7.97    1.03 
  -9  -3  -8    8.89    1.10 
   9   3   8    7.78    0.96 
   9   3   8    8.77    1.22 
 -10  -3  -8    0.43    0.91 
 -10  -3  -8   -0.05    0.59 
  10   3   8    0.21    0.63 
  10   3   8    0.07    0.75 
 -11  -3  -8   -0.88    0.66 
  11   3   8    1.94    0.84 
  11   3   8   -0.06    0.71 
 -12  -3  -8   22.26    1.60 
  12   3   8   22.25    1.73 
  12   3   8   26.49    1.62 
 -13  -3  -8   55.85    2.31 
 -13  -3  -8   52.37    3.08 
  13   3   8   59.77    2.31 
  13   3   8   57.87    2.51 
 -14  -3  -8   42.39    2.21 
  14   3   8   46.93    2.44 
  14   3   8   53.04    2.17 
   9  -4  -8    2.80    1.06 
   9  -4  -8    1.65    1.10 
  -9   4   8    4.88    1.74 
  -9   4   8    3.03    1.52 
  -9   4   8    0.67    1.50 
   8  -4  -8   -0.70    0.92 
   8  -4  -8   -0.39    0.92 
  -8   4   8   -1.09    1.23 
  -8   4   8    0.31    1.26 
   7  -4  -8    0.93    0.89 
   7  -4  -8    0.62    0.84 
   7  -4  -8    0.71    1.11 
  -7   4   8    2.06    1.26 
  -7   4   8   -0.23    1.07 
  -7   4   8    1.41    1.22 
   6  -4  -8    5.48    0.93 
   6  -4  -8    5.04    0.96 
  -6   4   8    4.82    0.91 
  -6   4   8    6.89    1.15 
  -6   4   8    3.53    1.15 
  -6   4   8    5.18    1.17 
   5  -4  -8    5.96    0.87 
   5  -4  -8    5.58    0.87 
  -5   4   8    5.56    1.09 
  -5   4   8    4.00    1.23 
  -5   4   8    5.93    1.37 
   4  -4  -8   18.49    1.40 
   4  -4  -8   19.65    1.71 
   4  -4  -8   23.57    1.43 
  -4   4   8   22.79    1.79 
  -4   4   8   18.87    1.32 
  -4   4   8   19.69    1.86 
   3  -4  -8  105.53    3.43 
   3  -4  -8  109.01    3.11 
  -3   4   8  104.02    3.46 
  -3   4   8  102.94    3.09 
  -3   4   8  105.71    3.37 
   2  -4  -8  222.59    6.06 
   2  -4  -8  225.51    5.88 
   2  -4  -8  228.61    5.82 
  -2   4   8  228.07    6.01 
  -2   4   8  225.68    6.11 
  -2   4   8  224.05    5.84 
   1  -4  -8  106.59    3.27 
   1  -4  -8  106.30    3.07 
   1  -4  -8  105.61    3.22 
  -1   4   8  103.86    3.33 
  -1   4   8  107.37    3.08 
  -1   4   8  105.81    3.17 
   0  -4  -8  260.96    6.78 
   0  -4  -8  256.43    6.59 
   0  -4  -8  256.93    6.66 
   0  -4  -8  251.48    6.73 
   0   4   8  255.75    6.85 
   0   4   8  250.75    6.60 
   0   4   8  255.84    6.59 
   0   4   8  288.44    6.25 
  -1  -4  -8  162.73    4.31 
  -1  -4  -8  166.10    4.52 
  -1  -4  -8  162.79    4.45 
   1   4   8  155.20    4.61 
   1   4   8  166.30    4.59 
   1   4   8  161.36    4.26 
  -2  -4  -8   65.68    1.74 
  -2  -4  -8   65.01    2.11 
  -2  -4  -8   67.91    2.07 
  -2  -4  -8   64.36    2.23 
  -2  -4  -8   65.86    2.27 
   2   4   8   66.18    2.34 
   2   4   8   67.02    2.00 
   2   4   8   66.75    2.24 
  -3  -4  -8    1.13    0.51 
  -3  -4  -8    1.25    0.35 
  -3  -4  -8    1.71    0.45 
  -3  -4  -8    1.85    0.59 
  -3  -4  -8    1.44    0.59 
   3   4   8    1.32    0.52 
   3   4   8    1.31    0.59 
  -4  -4  -8   -0.43    0.52 
  -4  -4  -8    0.84    0.59 
  -4  -4  -8    0.30    0.37 
   4   4   8    0.58    0.54 
   4   4   8   -0.16    0.52 
  -5  -4  -8   37.40    1.67 
  -5  -4  -8   39.44    1.76 
  -5  -4  -8   38.03    1.26 
   5   4   8   39.00    1.65 
   5   4   8   39.02    1.65 
  -6  -4  -8   51.16    1.97 
  -6  -4  -8   48.71    1.45 
   6   4   8   48.83    1.90 
   6   4   8   47.54    1.87 
  -7  -4  -8    2.50    0.74 
  -7  -4  -8    2.64    0.75 
   7   4   8    2.09    0.69 
   7   4   8    1.95    0.66 
  -8  -4  -8    6.12    1.00 
   8   4   8    7.42    1.10 
   8   4   8    5.87    0.85 
  -9  -4  -8    5.28    1.03 
   9   4   8    4.99    0.90 
   9   4   8    5.61    0.89 
 -10  -4  -8   10.45    1.24 
  10   4   8    8.71    1.22 
  10   4   8   12.10    1.18 
  10   4   8   12.37    1.38 
 -11  -4  -8   54.06    3.28 
  11   4   8   59.71    2.11 
  11   4   8   55.61    2.39 
  12   4   8  122.37    4.00 
  12   4   8  128.44    3.61 
 -13  -4  -8   72.49    3.63 
  13   4   8   84.55    2.64 
  13   4   8   85.04    3.19 
   9  -5  -8    0.51    1.05 
  -9   5   8   -2.00    1.44 
  -9   5   8    0.55    1.53 
  -9   5   8    1.09    1.50 
   8  -5  -8    0.92    1.00 
   8  -5  -8    1.11    0.73 
  -8   5   8    2.07    1.40 
  -8   5   8   -0.45    1.23 
  -8   5   8    2.44    1.40 
   7  -5  -8   16.57    1.75 
   7  -5  -8   13.29    1.35 
  -7   5   8   13.54    1.61 
  -7   5   8   19.92    2.40 
   6  -5  -8   13.33    1.55 
   6  -5  -8   12.93    1.29 
  -6   5   8   13.61    1.82 
  -6   5   8   15.59    2.05 
  -6   5   8   12.27    1.14 
  -6   5   8   13.49    1.54 
   5  -5  -8  113.17    3.21 
   5  -5  -8  113.70    3.56 
  -5   5   8  112.76    3.95 
  -5   5   8  112.74    3.81 
  -5   5   8  108.86    3.17 
   4  -5  -8  121.20    3.90 
   4  -5  -8  116.54    3.60 
   4  -5  -8  125.77    3.87 
  -4   5   8  119.16    3.92 
  -4   5   8  119.18    3.85 
  -4   5   8  115.69    3.31 
   3  -5  -8  177.12    4.94 
   3  -5  -8  187.01    5.15 
   3  -5  -8  186.59    5.20 
  -3   5   8  177.52    5.11 
  -3   5   8  183.51    5.25 
  -3   5   8  178.35    4.74 
   2  -5  -8  109.07    3.36 
   2  -5  -8  104.52    3.36 
   2  -5  -8  109.12    4.04 
  -2   5   8  108.72    3.34 
  -2   5   8  105.99    3.45 
  -2   5   8  106.84    3.05 
   1  -5  -8   44.75    1.88 
   1  -5  -8   44.74    1.75 
   1  -5  -8   44.90    1.87 
  -1   5   8   46.32    1.67 
  -1   5   8   44.00    1.81 
  -1   5   8   42.65    1.96 
   0  -5  -8   62.87    2.21 
   0  -5  -8   65.89    2.12 
   0  -5  -8   61.76    2.34 
   0  -5  -8   66.06    2.22 
   0   5   8   64.80    2.08 
   0   5   8   60.92    2.37 
   0   5   8   61.81    2.09 
  -1  -5  -8    3.50    0.61 
  -1  -5  -8    2.54    0.63 
  -1  -5  -8    2.18    0.63 
  -1  -5  -8    2.52    0.58 
   1   5   8    2.94    0.69 
   1   5   8    2.38    0.53 
   1   5   8    2.19    0.56 
  -2  -5  -8   10.40    1.08 
  -2  -5  -8   10.52    0.92 
  -2  -5  -8    9.06    0.93 
  -2  -5  -8    8.63    1.07 
  -2  -5  -8    9.82    0.63 
   2   5   8    8.95    0.79 
   2   5   8    9.45    1.18 
   2   5   8    9.17    1.00 
  -3  -5  -8   20.03    1.14 
  -3  -5  -8   22.48    1.03 
  -3  -5  -8   20.86    0.90 
  -3  -5  -8   19.77    1.30 
  -3  -5  -8   21.04    1.29 
   3   5   8   21.28    0.91 
   3   5   8   19.62    1.25 
   3   5   8   22.39    1.38 
  -4  -5  -8   43.93    1.81 
  -4  -5  -8   39.77    1.56 
  -4  -5  -8   44.90    1.42 
  -4  -5  -8   44.33    1.86 
   4   5   8   44.33    1.80 
   4   5   8   45.83    1.86 
  -5  -5  -8   12.63    1.28 
  -5  -5  -8   15.55    1.23 
   5   5   8   14.01    1.17 
   5   5   8   13.32    1.13 
  -6  -5  -8    2.51    1.14 
  -6  -5  -8    2.24    0.72 
   6   5   8    2.10    0.62 
   6   5   8    0.87    1.12 
  -7  -5  -8   34.32    1.82 
  -7  -5  -8   33.61    1.77 
   7   5   8   37.07    1.72 
   7   5   8   34.80    1.71 
  -8  -5  -8   61.36    2.48 
   8   5   8   56.22    2.29 
   8   5   8   58.79    2.27 
  -9  -5  -8   65.16    2.71 
   9   5   8   65.67    2.49 
   9   5   8   62.80    2.51 
 -10  -5  -8  139.90    4.54 
  10   5   8  138.41    4.30 
  10   5   8  143.79    4.27 
 -11  -5  -8   95.87    3.72 
  11   5   8   96.46    3.40 
  11   5   8   93.73    2.78 
  12   5   8   61.43    2.03 
  12   5   8   59.48    2.74 
 -13  -5  -8   22.68    2.92 
  14   5   8   13.00    1.60 
   9  -6  -8   15.27    1.62 
   9  -6  -8   12.69    1.85 
  -9   6   8   16.06    2.74 
  -9   6   8    9.40    1.73 
  -9   6   8   12.69    1.93 
   8  -6  -8   54.01    2.65 
   8  -6  -8   43.38    2.83 
  -8   6   8   55.71    3.14 
  -8   6   8   53.73    2.99 
  -8   6   8   57.95    3.42 
   7  -6  -8   97.56    4.14 
   7  -6  -8  100.39    3.59 
  -7   6   8  103.52    3.94 
  -7   6   8  106.92    4.11 
   6  -6  -8   65.84    2.70 
   6  -6  -8   64.33    2.82 
  -6   6   8   70.61    3.18 
  -6   6   8   65.28    3.95 
  -6   6   8   68.20    3.06 
   5  -6  -8  140.79    4.29 
   5  -6  -8  135.09    4.15 
  -5   6   8  141.98    4.54 
  -5   6   8  133.11    3.57 
  -5   6   8  134.80    4.40 
  -5   6   8  136.60    4.36 
   4  -6  -8  110.23    3.43 
   4  -6  -8  110.48    3.71 
   4  -6  -8  110.67    3.55 
  -4   6   8  107.23    2.95 
  -4   6   8  107.10    3.64 
  -4   6   8  103.77    4.05 
   3  -6  -8   50.67    2.12 
   3  -6  -8   47.36    2.22 
   3  -6  -8   46.45    1.96 
  -3   6   8   43.54    2.27 
  -3   6   8   45.44    1.62 
  -3   6   8   46.52    2.18 
   2  -6  -8    1.80    0.78 
   2  -6  -8    1.70    0.70 
   2  -6  -8    1.31    0.63 
  -2   6   8    1.69    0.52 
  -2   6   8    2.15    0.79 
  -2   6   8    0.51    0.69 
   1  -6  -8    2.01    0.75 
   1  -6  -8    1.97    0.70 
   1  -6  -8    2.62    0.72 
  -1   6   8    1.38    0.65 
  -1   6   8    2.47    0.71 
  -1   6   8    1.09    0.50 
   0  -6  -8    8.56    0.94 
   0  -6  -8    8.56    1.07 
   0  -6  -8    8.63    1.07 
   0   6   8    9.22    1.27 
   0   6   8    6.77    0.74 
   0   6   8    7.56    0.91 
  -1  -6  -8   11.52    1.17 
  -1  -6  -8    9.40    1.11 
  -1  -6  -8   11.34    1.05 
  -1  -6  -8    9.32    0.98 
  -1  -6  -8   10.86    0.69 
   1   6   8   10.19    0.97 
   1   6   8   10.42    0.93 
   1   6   8   11.63    1.27 
  -2  -6  -8   40.30    1.75 
  -2  -6  -8   39.64    1.51 
  -2  -6  -8   42.42    1.60 
  -2  -6  -8   38.31    1.71 
   2   6   8   37.75    1.73 
   2   6   8   39.44    1.81 
   2   6   8   39.69    1.41 
  -3  -6  -8   40.70    1.71 
  -3  -6  -8   39.58    1.56 
  -3  -6  -8   41.21    1.38 
  -3  -6  -8   39.82    1.76 
  -3  -6  -8   38.61    1.39 
   3   6   8   36.90    1.94 
   3   6   8   39.02    1.28 
   3   6   8   38.42    1.77 
  -4  -6  -8    8.39    0.68 
  -4  -6  -8    9.03    0.82 
  -4  -6  -8    9.69    1.13 
  -4  -6  -8    8.69    0.99 
  -4  -6  -8    8.57    1.12 
   4   6   8    7.44    1.09 
   4   6   8    9.33    1.18 
  -5  -6  -8   62.32    2.34 
  -5  -6  -8   62.02    1.97 
  -5  -6  -8   62.12    2.31 
   5   6   8   60.75    2.20 
   5   6   8   65.04    2.28 
  -6  -6  -8  127.69    3.81 
  -6  -6  -8  109.34    4.52 
   6   6   8  128.48    3.76 
   6   6   8  131.03    3.65 
  -7  -6  -8  186.84    5.24 
   7   6   8  186.29    5.27 
   7   6   8  190.59    5.13 
  -8  -6  -8  148.42    4.49 
   8   6   8  152.83    4.52 
   8   6   8  153.94    4.36 
  -9  -6  -8  170.66    5.08 
   9   6   8  174.71    4.90 
   9   6   8  172.61    5.08 
 -10  -6  -8  122.61    4.18 
  10   6   8  133.07    3.95 
  10   6   8  122.88    4.08 
 -11  -6  -8   33.54    2.49 
  11   6   8   35.42    2.71 
  12   6   8    1.43    1.33 
 -13  -6  -8   -3.75    1.50 
  13   6   8   -2.80    1.31 
   9  -7  -8   64.81    3.13 
   9  -7  -8   64.57    3.16 
  -9   7   8   67.82    3.76 
  -9   7   8   70.04    4.03 
   8  -7  -8   80.99    4.01 
   8  -7  -8   96.74    3.62 
  -8   7   8   97.60    4.22 
  -8   7   8   92.56    3.91 
  -8   7   8  102.96    4.19 
   7  -7  -8   67.52    2.88 
   7  -7  -8   65.66    2.86 
  -7   7   8   70.23    3.45 
  -7   7   8   67.65    3.34 
   6  -7  -8   76.24    3.00 
   6  -7  -8   77.43    2.96 
  -6   7   8   79.89    3.35 
  -6   7   8   78.59    3.43 
   5  -7  -8   40.59    2.08 
   5  -7  -8   45.06    2.13 
  -5   7   8   45.44    2.44 
  -5   7   8   40.84    2.55 
  -5   7   8   44.21    2.47 
   4  -7  -8    0.00    0.71 
   4  -7  -8   -0.24    0.78 
   4  -7  -8   -0.31    0.83 
  -4   7   8   -0.46    0.84 
  -4   7   8   -2.09    1.54 
  -4   7   8   -1.01    0.86 
   3  -7  -8    4.04    0.90 
   3  -7  -8    4.76    0.93 
   3  -7  -8    3.91    0.79 
  -3   7   8    3.71    0.90 
  -3   7   8    5.97    1.01 
  -3   7   8    4.10    0.93 
  -3   7   8    4.18    0.50 
   2  -7  -8   23.67    1.65 
   2  -7  -8   23.10    1.52 
   2  -7  -8   23.09    1.43 
  -2   7   8   24.20    1.63 
  -2   7   8   25.49    1.74 
  -2   7   8   25.51    1.17 
   1  -7  -8   21.63    1.48 
   1  -7  -8   22.21    1.46 
   1  -7  -8   22.41    1.32 
  -1   7   8   23.20    1.59 
  -1   7   8   23.68    1.16 
  -1   7   8   21.94    1.43 
   0  -7  -8    6.60    0.86 
   0  -7  -8    7.81    0.84 
   0  -7  -8    5.54    1.19 
   0   7   8    5.35    0.63 
   0   7   8    5.80    0.75 
   0   7   8    5.20    0.84 
  -1  -7  -8    0.45    0.42 
  -1  -7  -8    0.44    0.52 
  -1  -7  -8   -0.56    0.58 
  -1  -7  -8    1.13    0.54 
   1   7   8    0.67    0.49 
   1   7   8    0.61    0.69 
   1   7   8    0.55    0.65 
  -2  -7  -8    6.00    0.88 
  -2  -7  -8    7.64    0.94 
  -2  -7  -8    6.70    0.74 
  -2  -7  -8    6.52    0.83 
  -2  -7  -8    5.86    0.78 
   2   7   8    6.06    0.79 
   2   7   8    6.57    0.82 
   2   7   8    5.47    0.82 
  -3  -7  -8   47.83    1.63 
  -3  -7  -8   46.47    1.52 
  -3  -7  -8   45.70    1.95 
  -3  -7  -8   46.23    1.90 
  -3  -7  -8   44.77    1.75 
   3   7   8   45.63    1.44 
   3   7   8   47.57    1.98 
   3   7   8   46.52    1.91 
  -4  -7  -8  146.25    4.24 
  -4  -7  -8  146.51    3.88 
  -4  -7  -8  143.18    4.09 
  -4  -7  -8  144.39    3.98 
   4   7   8  142.00    4.13 
   4   7   8  142.16    4.16 
  -5  -7  -8  148.63    4.05 
  -5  -7  -8  148.85    4.40 
  -5  -7  -8  150.63    4.32 
   5   7   8  151.00    4.24 
   5   7   8  152.53    4.37 
  -6  -7  -8  152.07    5.90 
  -6  -7  -8  190.71    4.90 
   6   7   8  192.81    5.23 
   6   7   8  193.45    5.00 
  -7  -7  -8  126.18    3.66 
  -7  -7  -8  127.54    3.89 
   7   7   8  127.00    3.96 
   7   7   8  126.43    3.73 
  -8  -7  -8   76.35    2.85 
   8   7   8   75.57    2.65 
   8   7   8   78.97    2.93 
  -9  -7  -8   36.71    2.11 
   9   7   8   36.92    1.90 
   9   7   8   35.71    2.14 
 -10  -7  -8    0.05    0.99 
  10   7   8   -1.46    0.76 
 -11  -7  -8    5.02    1.27 
  11   7   8    0.87    1.18 
  12   7   8   10.42    1.61 
 -13  -7  -8    5.87    1.77 
   9  -8  -8   43.07    2.69 
   9  -8  -8   38.00    2.53 
  -9   8   8   44.61    3.41 
  -9   8   8   42.26    3.54 
   8  -8  -8   23.01    2.16 
   8  -8  -8   27.22    2.49 
  -8   8   8   26.07    2.96 
  -8   8   8   24.96    2.88 
   7  -8  -8   11.18    1.33 
   7  -8  -8    8.71    1.28 
  -7   8   8    8.07    1.52 
  -7   8   8    9.49    1.50 
  -7   8   8    8.50    1.60 
   6  -8  -8    3.86    1.00 
   6  -8  -8    1.95    0.99 
   6  -8  -8    3.46    1.26 
  -6   8   8    2.51    1.24 
  -6   8   8    1.98    1.23 
  -6   8   8    2.84    1.11 
   5  -8  -8    0.38    0.78 
   5  -8  -8    1.18    0.88 
  -5   8   8    2.42    1.07 
  -5   8   8    1.11    1.05 
   4  -8  -8    8.64    1.07 
   4  -8  -8    7.40    1.15 
   4  -8  -8    8.70    1.07 
  -4   8   8    7.15    1.14 
  -4   8   8    7.79    1.19 
  -4   8   8    7.18    1.16 
   3  -8  -8   12.11    1.34 
   3  -8  -8   11.60    1.38 
   3  -8  -8   12.94    1.63 
  -3   8   8   12.85    1.64 
   2  -8  -8   10.18    1.23 
   2  -8  -8   11.09    1.32 
   2  -8  -8   10.37    1.10 
  -2   8   8    7.93    1.04 
  -2   8   8   10.53    0.91 
  -2   8   8   10.83    1.18 
  -2   8   8    9.67    1.10 
   1  -8  -8    2.02    0.68 
   1  -8  -8    2.89    0.77 
  -1   8   8    3.23    0.85 
  -1   8   8    2.49    0.76 
  -1   8   8    2.89    0.84 
  -1   8   8    2.91    0.55 
   0  -8  -8   38.29    1.69 
   0  -8  -8   37.41    1.80 
   0  -8  -8   35.35    1.66 
   0   8   8   37.02    1.66 
   0   8   8   38.05    1.80 
   0   8   8   37.81    1.95 
  -1  -8  -8   59.58    2.34 
  -1  -8  -8   63.19    2.51 
  -1  -8  -8   62.10    1.98 
   1   8   8   65.61    2.09 
   1   8   8   62.75    2.34 
   1   8   8   62.80    2.45 
  -2  -8  -8  245.99    6.63 
  -2  -8  -8  245.34    6.27 
  -2  -8  -8  249.12    6.68 
  -2  -8  -8  241.54    6.25 
   2   8   8  252.79    6.64 
   2   8   8  250.71    6.58 
   2   8   8  248.27    6.19 
  -3  -8  -8  262.97    7.00 
  -3  -8  -8  265.86    6.63 
  -3  -8  -8  265.51    6.79 
  -3  -8  -8  248.54    7.18 
   3   8   8  263.95    6.90 
   3   8   8  264.53    6.93 
   3   8   8  260.02    6.40 
  -4  -8  -8  178.97    4.87 
  -4  -8  -8  184.15    4.77 
  -4  -8  -8  174.77    5.09 
  -4  -8  -8  173.82    4.99 
   4   8   8  180.54    4.97 
   4   8   8  181.30    5.05 
  -5  -8  -8  105.01    3.09 
  -5  -8  -8  103.79    3.31 
   5   8   8  104.53    3.39 
   5   8   8  103.17    3.20 
  -6  -8  -8   81.57    2.64 
   6   8   8   80.83    2.67 
   6   8   8   83.74    3.00 
  -7  -8  -8   27.23    1.74 
  -7  -8  -8   25.01    1.48 
   7   8   8   25.39    1.54 
   7   8   8   25.07    1.81 
  -8  -8  -8    2.90    0.81 
  -8  -8  -8    3.42    0.90 
   8   8   8    3.87    0.79 
   8   8   8    3.31    1.05 
  -9  -8  -8   14.30    1.77 
  -9  -8  -8   14.82    1.49 
   9   8   8   14.19    0.98 
   9   8   8   14.81    1.50 
  10   8   8    4.33    1.22 
 -11  -8  -8    7.35    1.34 
  11   8   8    8.15    1.45 
  12   8   8   -1.05    1.48 
 -13  -8  -8    0.88    1.57 
  13   8   8    2.85    1.75 
   9  -9  -8   14.08    1.69 
  -9   9   8   14.70    2.14 
  -9   9   8   12.75    2.29 
   8  -9  -8   -1.24    0.98 
   8  -9  -8    0.22    1.15 
  -8   9   8    0.33    1.48 
  -8   9   8   -0.48    1.54 
   7  -9  -8   -0.60    1.03 
   7  -9  -8    0.28    0.98 
  -7   9   8    1.01    1.33 
  -7   9   8    0.67    1.37 
   6  -9  -8    4.93    1.11 
   6  -9  -8    2.74    1.04 
   6  -9  -8    5.37    1.33 
  -6   9   8    2.43    1.28 
  -6   9   8    4.02    1.31 
  -6   9   8    2.88    1.24 
   5  -9  -8    1.64    0.92 
   5  -9  -8    0.79    0.84 
   5  -9  -8    0.57    1.13 
  -5   9   8    1.74    1.10 
  -5   9   8    0.64    1.00 
  -5   9   8   -0.51    1.09 
   4  -9  -8    2.98    0.88 
   4  -9  -8    2.70    0.90 
   4  -9  -8    1.74    1.06 
  -4   9   8    2.38    1.10 
  -4   9   8    1.95    1.00 
   3  -9  -8   39.20    1.96 
   3  -9  -8   38.53    2.17 
   3  -9  -8   39.09    1.96 
  -3   9   8   39.37    2.25 
  -3   9   8   38.10    2.16 
   2  -9  -8   71.34    2.83 
   2  -9  -8   72.85    2.66 
   2  -9  -8   77.32    2.73 
  -2   9   8   76.79    2.96 
  -2   9   8   77.81    2.98 
  -2   9   8   75.33    2.20 
  -2   9   8   77.85    2.82 
   1  -9  -8  154.94    4.43 
   1  -9  -8  151.20    4.42 
   1  -9  -8  142.27    4.27 
  -1   9   8  151.43    4.59 
  -1   9   8  150.99    4.53 
  -1   9   8  150.66    4.35 
   0  -9  -8  207.55    5.60 
   0  -9  -8  208.71    5.75 
   0  -9  -8  206.38    5.62 
   0   9   8  214.66    5.84 
   0   9   8  203.71    5.54 
   0   9   8  204.63    5.70 
   0   9   8  209.45    5.85 
  -1  -9  -8  237.27    6.49 
  -1  -9  -8  238.94    6.14 
  -1  -9  -8  239.70    6.29 
   1   9   8  235.25    6.51 
   1   9   8  245.15    6.54 
   1   9   8  243.18    6.18 
   1   9   8  235.91    6.42 
  -2  -9  -8  282.64    7.42 
  -2  -9  -8  277.68    7.05 
  -2  -9  -8  275.59    7.13 
   2   9   8  278.90    6.93 
   2   9   8  277.11    7.34 
   2   9   8  278.10    7.36 
   2   9   8  273.97    7.34 
  -3  -9  -8  154.23    4.89 
  -3  -9  -8  163.91    4.38 
  -3  -9  -8  157.41    4.49 
  -3  -9  -8  163.68    4.75 
   3   9   8  165.28    4.69 
   3   9   8  158.76    4.78 
   3   9   8  162.32    4.60 
   3   9   8  156.40    4.09 
  -4  -9  -8   21.50    1.60 
  -4  -9  -8   25.12    1.39 
   4   9   8   22.48    1.47 
   4   9   8   26.11    1.58 
   4   9   8   22.73    1.66 
  -5  -9  -8    9.85    0.95 
   5   9   8    9.56    1.15 
   5   9   8    9.68    1.22 
  -6  -9  -8   -0.35    0.65 
   6   9   8   -0.38    0.57 
   6   9   8    0.92    0.63 
  -7  -9  -8   33.47    1.79 
  -7  -9  -8   31.70    1.69 
   7   9   8   33.40    1.69 
   7   9   8   30.11    1.69 
  -8  -9  -8    6.63    1.03 
  -8  -9  -8    7.41    1.03 
   8   9   8    7.49    0.94 
   8   9   8    1.48    1.53 
   8   9   8    5.97    0.88 
  -9  -9  -8    8.65    1.17 
  -9  -9  -8    7.72    1.27 
   9   9   8    7.04    0.95 
   9   9   8    7.76    1.38 
 -10  -9  -8    0.58    1.04 
 -10  -9  -8   -0.58    0.87 
  10   9   8    0.79    1.38 
 -11  -9  -8   -2.16    1.21 
 -11  -9  -8   -0.13    1.06 
  11   9   8   -0.53    1.37 
 -12  -9  -8   19.16    2.26 
 -12  -9  -8   18.51    2.58 
  12   9   8   20.47    2.23 
   8 -10  -8   22.48    2.05 
   8 -10  -8   20.56    2.20 
  -8  10   8   16.24    2.06 
  -8  10   8   18.76    2.16 
   7 -10  -8    8.60    1.34 
   7 -10  -8   12.67    1.78 
  -7  10   8    8.21    1.59 
  -7  10   8   10.06    1.73 
   6 -10  -8    0.96    0.99 
   6 -10  -8    3.65    1.09 
  -6  10   8    1.39    1.29 
  -6  10   8    1.34    1.21 
   5 -10  -8    5.30    1.32 
   5 -10  -8   10.82    1.23 
   5 -10  -8   11.95    1.60 
  -5  10   8    9.45    1.43 
  -5  10   8    8.55    1.37 
  -5  10   8   16.13    2.15 
   4 -10  -8   31.23    1.96 
   4 -10  -8   31.50    1.90 
  -4  10   8   34.67    2.31 
  -4  10   8   32.10    2.32 
   3 -10  -8   94.29    3.49 
   3 -10  -8   95.59    3.27 
   3 -10  -8   98.44    3.27 
  -3  10   8   95.09    3.82 
  -3  10   8   97.14    3.56 
   2 -10  -8  114.71    3.65 
   2 -10  -8  114.22    3.60 
   2 -10  -8  114.08    3.73 
  -2  10   8  118.11    3.93 
  -2  10   8  110.12    3.11 
  -2  10   8  113.96    3.93 
  -2  10   8  111.99    3.72 
  -2  10   8  115.03    3.08 
   1 -10  -8   86.44    2.92 
   1 -10  -8   89.93    3.09 
  -1  10   8   89.48    3.04 
  -1  10   8   88.56    3.15 
  -1  10   8   88.94    3.04 
  -1  10   8   85.06    2.67 
  -1  10   8   86.21    3.25 
   0 -10  -8  199.90    5.47 
   0 -10  -8  202.30    5.66 
   0  10   8  199.77    5.45 
   0  10   8  199.19    5.77 
   0  10   8  197.62    5.60 
   0  10   8  201.44    5.68 
  -1 -10  -8  112.43    3.36 
  -1 -10  -8  110.85    3.59 
  -1 -10  -8  109.07    3.23 
   1  10   8  110.92    3.61 
   1  10   8  106.94    3.58 
   1  10   8  105.23    3.23 
   1  10   8  105.71    3.49 
  -2 -10  -8   10.61    1.22 
  -2 -10  -8   10.73    1.49 
  -2 -10  -8   10.61    1.12 
   2  10   8    8.91    1.09 
   2  10   8   11.61    1.40 
   2  10   8   10.10    1.16 
   2  10   8    9.43    1.04 
  -3 -10  -8   -0.77    0.63 
  -3 -10  -8    0.18    0.60 
   3  10   8    0.37    0.69 
   3  10   8    0.39    0.47 
   3  10   8    1.86    0.76 
   3  10   8    0.29    0.79 
  -4 -10  -8   30.93    1.58 
  -4 -10  -8   27.00    1.52 
  -4 -10  -8   29.84    1.74 
   4  10   8   29.86    1.70 
   4  10   8   28.24    1.72 
   4  10   8   31.15    1.94 
  -5 -10  -8   63.95    2.34 
  -5 -10  -8   61.24    2.65 
   5  10   8   60.60    2.30 
   5  10   8   61.39    2.30 
  -6 -10  -8   60.21    2.37 
  -6 -10  -8   65.03    2.51 
   6  10   8   63.07    2.28 
   6  10   8   63.18    2.28 
  -7 -10  -8   71.06    2.61 
  -7 -10  -8   71.26    2.66 
   7  10   8   71.87    2.52 
   7  10   8   73.94    3.15 
  -8 -10  -8   11.42    1.54 
  -8 -10  -8   12.59    1.40 
   8  10   8   17.84    2.35 
   8  10   8   13.34    1.10 
   8  10   8   13.15    1.62 
   8  10   8   12.51    1.40 
  -9 -10  -8    0.67    0.91 
  -9 -10  -8    0.72    0.90 
   9  10   8    0.92    1.21 
   9  10   8    0.28    0.75 
 -10 -10  -8    9.31    1.33 
 -10 -10  -8   10.51    1.40 
  10  10   8   10.37    1.77 
 -11 -10  -8   30.98    2.41 
 -11 -10  -8   23.36    2.27 
  11  10   8   28.77    3.36 
   8 -11  -8    0.71    1.37 
   8 -11  -8    0.93    1.12 
  -8  11   8    1.89    1.80 
  -8  11   8    1.76    2.04 
   7 -11  -8    4.81    1.24 
   7 -11  -8    4.89    1.21 
  -7  11   8    4.19    1.55 
  -7  11   8    4.39    1.64 
   6 -11  -8   22.69    1.93 
   6 -11  -8   20.91    1.99 
  -6  11   8   20.98    2.67 
  -6  11   8   24.13    2.68 
   5 -11  -8   70.36    2.82 
   5 -11  -8   68.95    2.95 
  -5  11   8   70.96    3.39 
  -5  11   8   74.36    3.40 
   4 -11  -8  118.93    3.92 
   4 -11  -8  117.86    3.84 
  -4  11   8  118.95    4.21 
  -4  11   8  118.59    4.23 
   3 -11  -8   90.70    3.18 
   3 -11  -8   85.74    3.12 
  -3  11   8   89.24    3.45 
  -3  11   8   86.83    3.39 
   2 -11  -8   69.90    2.72 
   2 -11  -8   68.04    2.61 
  -2  11   8   62.18    2.98 
  -2  11   8   67.04    2.80 
  -2  11   8   69.54    2.88 
  -2  11   8   67.45    2.13 
   1 -11  -8   41.20    2.09 
   1 -11  -8   36.15    1.90 
  -1  11   8   41.18    2.05 
  -1  11   8   36.07    3.34 
  -1  11   8   39.05    2.08 
  -1  11   8   37.28    2.35 
  -1  11   8   39.62    1.71 
   0 -11  -8    4.28    1.02 
   0 -11  -8    2.84    0.76 
   0  11   8    4.03    1.08 
   0  11   8    2.92    0.92 
   0  11   8    3.84    0.86 
   0  11   8    2.52    0.91 
   0  11   8    4.24    0.80 
  -1 -11  -8   -0.28    0.66 
  -1 -11  -8   -0.38    0.63 
   1  11   8   -0.16    0.87 
   1  11   8    0.35    0.81 
   1  11   8   -0.39    0.70 
   1  11   8   -0.66    0.65 
   1  11   8   -0.61    0.83 
  -2 -11  -8    6.90    0.89 
  -2 -11  -8    7.32    0.93 
   2  11   8    7.98    1.08 
   2  11   8    6.60    0.82 
   2  11   8    9.09    1.15 
   2  11   8    8.69    1.12 
   2  11   8    7.90    1.03 
  -3 -11  -8    7.12    0.89 
  -3 -11  -8    6.54    0.87 
   3  11   8    5.80    1.01 
   3  11   8    7.33    0.97 
   3  11   8    5.22    1.11 
   3  11   8    5.71    1.05 
   3  11   8    4.94    0.65 
  -4 -11  -8   40.96    1.82 
  -4 -11  -8   38.86    1.86 
   4  11   8   37.81    1.96 
   4  11   8   39.84    1.94 
   4  11   8   38.37    2.76 
   4  11   8   37.69    2.22 
  -5 -11  -8    2.69    0.85 
   5  11   8    3.10    0.87 
   5  11   8    0.56    0.96 
   5  11   8    2.00    1.02 
   5  11   8    2.51    0.73 
  -6 -11  -8    1.33    0.77 
  -6 -11  -8    0.08    0.81 
   6  11   8    0.73    1.07 
   6  11   8    0.36    0.67 
   6  11   8   -0.21    0.69 
  -7 -11  -8    9.82    1.07 
  -7 -11  -8   10.19    1.29 
   7  11   8   10.10    0.99 
   7  11   8    9.83    1.49 
   7  11   8   11.94    1.22 
  -8 -11  -8   48.04    2.21 
  -8 -11  -8   47.76    2.32 
   8  11   8   48.51    1.74 
   8  11   8   47.80    2.08 
   8  11   8   51.70    3.23 
  -9 -11  -8   56.63    2.55 
  -9 -11  -8   58.89    2.74 
   9  11   8   60.74    2.37 
   9  11   8   59.70    3.66 
 -10 -11  -8   79.46    3.39 
 -10 -11  -8   95.36    3.71 
  10  11   8   85.49    4.38 
 -11 -11  -8   68.48    3.27 
   7 -12  -8   92.25    3.74 
   7 -12  -8   90.73    3.34 
  -7  12   8   91.18    4.31 
  -7  12   8   90.03    4.27 
   6 -12  -8  118.64    3.93 
   6 -12  -8  117.00    4.20 
  -6  12   8  118.56    4.73 
  -6  12   8  116.17    4.64 
   5 -12  -8   92.25    3.32 
   5 -12  -8   89.57    3.45 
  -5  12   8   91.24    3.93 
  -5  12   8   85.47    3.86 
   4 -12  -8   62.81    2.73 
   4 -12  -8   59.65    2.69 
  -4  12   8   58.45    3.08 
  -4  12   8   61.63    3.11 
   3 -12  -8   22.01    2.20 
   3 -12  -8   23.38    1.77 
  -3  12   8   27.75    2.32 
  -3  12   8   22.01    2.13 
  -3  12   8   24.97    2.21 
   2 -12  -8    6.60    0.98 
   2 -12  -8    5.30    2.04 
  -2  12   8    4.85    1.10 
  -2  12   8    7.95    1.31 
  -2  12   8    6.06    1.13 
  -2  12   8    6.70    1.28 
  -2  12   8    5.87    0.71 
   1 -12  -8   -0.62    0.70 
  -1  12   8    1.20    0.69 
  -1  12   8   -1.15    0.87 
  -1  12   8    0.85    0.92 
  -1  12   8    2.02    1.11 
  -1  12   8   -0.75    0.84 
   0 -12  -8    9.77    1.05 
   0  12   8    9.70    1.35 
   0  12   8    8.27    2.06 
   0  12   8    8.91    1.18 
   0  12   8    9.05    1.35 
   0  12   8   10.95    1.17 
  -1 -12  -8   27.29    1.64 
  -1 -12  -8   25.74    1.66 
   1  12   8   25.99    2.03 
   1  12   8   27.19    1.76 
   1  12   8   25.72    1.93 
   1  12   8   27.05    1.68 
   1  12   8   26.47    1.96 
  -2 -12  -8   11.21    1.34 
  -2 -12  -8   13.59    1.38 
   2  12   8   13.88    1.68 
   2  12   8   10.62    1.19 
   2  12   8   11.09    1.29 
   2  12   8   10.73    1.23 
   2  12   8   14.18    1.70 
  -3 -12  -8    1.46    0.77 
  -3 -12  -8   -0.97    0.71 
   3  12   8    0.18    0.87 
   3  12   8    0.17    1.03 
   3  12   8    1.65    0.83 
   3  12   8    1.21    1.04 
   3  12   8    1.33    0.63 
  -4 -12  -8   24.80    1.58 
  -4 -12  -8   22.14    1.66 
   4  12   8   22.34    2.17 
   4  12   8   26.15    1.82 
   4  12   8   25.05    2.11 
   4  12   8   21.75    1.68 
  -5 -12  -8   69.01    2.87 
   5  12   8   75.79    3.24 
   5  12   8   76.55    2.75 
   5  12   8   71.90    3.39 
   5  12   8   76.99    2.63 
  -6 -12  -8   92.20    3.28 
   6  12   8   90.27    3.87 
   6  12   8   86.62    2.87 
  -7 -12  -8  115.46    3.92 
   7  12   8  119.45    3.45 
   7  12   8  117.33    4.67 
   7  12   8  119.21    3.54 
  -8 -12  -8  110.72    4.00 
   8  12   8  124.69    3.36 
   8  12   8  119.40    3.57 
   8  12   8  120.42    4.85 
  -9 -12  -8   99.46    3.77 
   9  12   8  103.76    4.73 
 -10 -12  -8   63.63    3.11 
   6 -13  -8   43.08    2.67 
  -6  13   8   45.24    3.50 
  -6  13   8   42.76    3.31 
   5 -13  -8   40.63    2.44 
  -5  13   8   37.29    2.96 
  -5  13   8   39.64    3.09 
   4 -13  -8    2.90    1.04 
  -4  13   8    2.46    1.37 
  -4  13   8    1.50    1.25 
   3 -13  -8    0.75    0.90 
  -3  13   8    0.27    1.09 
  -3  13   8    1.52    1.25 
   2 -13  -8    7.12    1.04 
  -2  13   8    4.40    1.22 
  -2  13   8    6.99    0.81 
  -2  13   8    6.36    1.18 
  -2  13   8    9.55    1.33 
   1 -13  -8    4.33    0.96 
  -1  13   8    5.26    0.91 
  -1  13   8    4.26    1.37 
  -1  13   8    6.03    1.12 
  -1  13   8    5.93    1.21 
  -1  13   8    3.59    1.30 
   0 -13  -8    0.84    0.80 
   0  13   8    0.15    0.91 
   0  13   8   -0.31    0.79 
   0  13   8    1.23    0.99 
   0  13   8    1.41    1.06 
   0  13   8    1.01    1.16 
  -1 -13  -8    0.76    0.79 
  -1 -13  -8   -0.76    0.91 
   1  13   8    1.79    1.11 
   1  13   8    1.01    1.05 
   1  13   8    1.71    1.13 
   1  13   8   -0.21    0.82 
   1  13   8   -0.88    0.84 
  -2 -13  -8    9.31    1.20 
  -2 -13  -8    9.55    1.05 
   2  13   8    6.77    1.38 
   2  13   8    8.40    1.30 
   2  13   8    9.79    1.34 
   2  13   8    7.74    0.99 
   2  13   8    7.68    1.14 
  -3 -13  -8   60.25    2.33 
  -3 -13  -8   56.36    2.52 
   3  13   8   56.76    2.46 
   3  13   8   60.44    2.87 
   3  13   8   55.58    2.82 
   3  13   8   55.12    2.11 
   3  13   8   56.68    2.65 
  -4 -13  -8  116.53    3.81 
  -4 -13  -8  113.74    3.57 
   4  13   8  115.60    3.66 
   4  13   8  117.38    4.31 
   4  13   8  120.71    3.88 
  -5 -13  -8  112.18    3.81 
   5  13   8  116.57    3.74 
   5  13   8  114.45    4.44 
   5  13   8  118.15    3.55 
  -6 -13  -8  105.66    3.80 
   6  13   8  114.65    3.50 
   6  13   8  112.18    4.58 
   6  13   8  113.63    3.38 
  -7 -13  -8  104.89    3.94 
   7  13   8  109.41    4.74 
   7  13   8  116.17    3.43 
   7  13   8  125.59    4.00 
  -8 -13  -8   47.44    2.61 
   8  13   8   47.44    3.63 
   5 -14  -8    1.90    1.14 
  -5  14   8    2.87    1.46 
  -5  14   8    1.48    1.67 
   4 -14  -8    6.98    1.23 
  -4  14   8    5.75    1.73 
  -4  14   8    6.91    1.44 
   3 -14  -8    3.16    1.02 
  -3  14   8    3.60    1.25 
  -3  14   8    2.13    1.36 
   2 -14  -8    3.17    1.00 
  -2  14   8    1.57    1.26 
  -2  14   8    3.71    1.13 
  -2  14   8    2.07    0.78 
  -2  14   8    0.27    1.21 
   1 -14  -8   16.30    1.67 
  -1  14   8   16.27    1.61 
  -1  14   8   17.84    2.07 
  -1  14   8   14.82    2.08 
  -1  14   8   15.05    1.65 
   0 -14  -8   27.24    1.85 
   0  14   8   23.00    1.93 
   0  14   8   26.89    2.23 
   0  14   8   24.83    2.22 
   0  14   8   19.88    2.63 
   0  14   8   28.34    2.41 
  -1 -14  -8   54.70    2.48 
  -1 -14  -8   53.08    2.38 
   1  14   8   50.37    3.03 
   1  14   8   48.94    2.84 
   1  14   8   53.61    2.64 
   1  14   8   53.36    2.74 
   1  14   8   50.97    2.44 
  -2 -14  -8  119.44    3.96 
  -2 -14  -8  124.67    3.79 
   2  14   8  115.60    3.69 
   2  14   8  120.44    4.18 
   2  14   8  114.16    4.19 
   2  14   8  119.77    3.96 
  -3 -14  -8  142.88    4.22 
  -3 -14  -8  142.02    4.50 
   3  14   8  142.55    4.38 
   3  14   8  146.74    4.90 
   3  14   8  141.09    4.66 
   3  14   8  137.98    4.07 
  -4 -14  -8   82.12    3.22 
  -4 -14  -8   84.07    2.96 
   4  14   8   88.03    3.31 
   4  14   8   85.95    3.03 
   4  14   8   85.17    3.81 
  -5 -14  -8   78.33    3.11 
   5  14   8   79.94    2.72 
   5  14   8   77.71    2.94 
   5  14   8   76.63    3.86 
  -6 -14  -8   19.85    1.98 
   6  14   8   26.11    3.02 
   6  14   8   23.32    1.60 
  -7 -14  -8    4.24    1.24 
   7  14   8    4.33    1.68 
   3 -15  -8    0.81    0.97 
  -3  15   8   -1.10    1.47 
  -3  15   8    1.94    1.33 
   2 -15  -8   16.19    1.84 
  -2  15   8   17.89    1.79 
  -2  15   8   15.31    1.82 
  -2  15   8   19.01    2.34 
   1 -15  -8   63.76    2.73 
  -1  15   8   63.31    3.13 
  -1  15   8   63.88    3.16 
  -1  15   8   60.14    2.67 
  -1  15   8   77.24    3.83 
   0 -15  -8   30.84    1.99 
   0  15   8   22.70    2.45 
   0  15   8   24.11    2.29 
   0  15   8   27.55    2.44 
  -1 -15  -8  115.88    3.82 
   1  15   8  120.84    4.19 
   1  15   8  122.39    4.20 
  -2 -15  -8   81.62    2.96 
  -2 -15  -8   80.94    3.22 
   2  15   8   78.65    3.43 
   2  15   8   77.19    3.04 
   2  15   8   80.95    3.49 
  -3 -15  -8   27.18    2.12 
  -3 -15  -8   25.10    1.86 
   3  15   8   24.55    1.78 
   3  15   8   29.36    2.31 
   3  15   8   24.41    2.62 
   3  15   8   26.32    2.05 
  -4 -15  -8    1.56    1.12 
   4  15   8    2.23    0.95 
   4  15   8    3.35    1.22 
   4  15   8    2.74    1.45 
  -5 -15  -8    1.79    1.10 
   5  15   8    1.55    1.58 
   0  -8   9   23.98    3.04 
  -1   8  -9    7.44    1.73 
   1  -8   9   10.55    1.95 
  -2   8  -9    3.03    1.59 
   2  -8   9    6.52    1.73 
  -3   8  -9   -0.18    1.54 
   3  -8   9    2.89    1.56 
  -4   8  -9    2.71    1.60 
  -4   8  -9    3.94    1.18 
   4  -8   9    5.55    0.98 
   4  -8   9    4.58    1.65 
  -5   8  -9   -0.13    1.47 
  -5   8  -9   -0.44    1.17 
   5  -8   9    1.15    0.91 
   5  -8   9    2.49    1.52 
  -6   8  -9   -0.31    1.35 
  -6   8  -9   -0.47    1.41 
   6  -8   9    0.94    1.00 
   6  -8   9    2.23    1.53 
  -7   8  -9    5.59    1.62 
  -7   8  -9    4.82    1.54 
   7  -8   9    6.15    1.65 
   7  -8   9    4.13    1.16 
   8  -8   9   29.80    2.21 
   8  -8   9   40.60    3.05 
  -2  -7   9   14.25    1.85 
   1   7  -9    1.01    1.55 
  -1  -7   9    3.59    1.55 
   0   7  -9    3.77    1.63 
   0  -7   9    4.18    1.54 
  -1   7  -9    0.21    1.46 
   1  -7   9    2.41    1.45 
  -2   7  -9   -0.69    1.31 
  -2   7  -9   -0.42    0.78 
   2  -7   9    0.10    1.31 
  -3   7  -9    0.72    0.99 
  -3   7  -9   -0.15    1.32 
   3  -7   9    1.22    1.38 
  -4   7  -9    1.48    1.38 
  -4   7  -9    0.36    1.08 
   4  -7   9    1.81    0.88 
   4  -7   9    0.26    1.40 
  -5   7  -9   18.91    2.55 
  -5   7  -9   22.86    2.24 
   5  -7   9   18.55    2.00 
   5  -7   9   14.62    1.60 
  -6   7  -9   46.37    2.99 
  -6   7  -9   43.34    2.73 
   6  -7   9   39.74    2.86 
   6  -7   9   30.39    2.03 
  -7   7  -9   82.11    3.70 
  -7   7  -9   79.49    3.59 
   7  -7   9   84.91    3.74 
   7  -7   9   76.21    3.02 
  -8   7  -9  122.44    3.75 
  -8   7  -9  117.26    4.45 
   8  -7   9  123.19    4.07 
   8  -7   9  128.45    4.68 
   9  -7   9   86.79    3.39 
   9  -7   9   88.44    3.94 
  10  -7   9   86.76    3.45 
  10  -7   9   82.86    3.92 
   3   6  -9    0.36    1.66 
  -3  -6   9    1.35    0.87 
  -3  -6   9    2.92    1.41 
   2   6  -9    1.60    1.64 
  -2  -6   9    4.34    0.89 
   1   6  -9   11.04    1.84 
   0   6  -9    9.29    1.66 
   0  -6   9    9.99    1.56 
  -1   6  -9    2.71    0.78 
  -1   6  -9    3.19    1.31 
   1  -6   9    2.74    1.23 
  -2   6  -9    0.64    1.25 
  -2   6  -9    0.58    0.83 
   2  -6   9    1.36    1.16 
  -3   6  -9    3.01    1.01 
  -3   6  -9    0.45    1.31 
  -3   6  -9    0.96    1.23 
   3  -6   9    2.56    1.22 
   3  -6   9    3.55    1.22 
  -4   6  -9   55.59    2.56 
  -4   6  -9   50.05    2.95 
   4  -6   9   46.32    2.88 
   4  -6   9   51.27    2.78 
  -5   6  -9   95.67    3.83 
  -5   6  -9   96.72    3.52 
   5  -6   9   92.96    3.84 
   5  -6   9   98.55    3.84 
  -6   6  -9   86.39    3.65 
  -6   6  -9   88.64    3.45 
   6  -6   9   81.62    3.63 
   6  -6   9   94.52    3.73 
  -7   6  -9  119.42    4.33 
  -7   6  -9  130.33    4.50 
   7  -6   9  125.43    4.53 
   7  -6   9  124.43    4.54 
  -8   6  -9   71.93    3.39 
  -8   6  -9   82.22    2.71 
   8  -6   9   78.79    3.47 
   8  -6   9   74.82    3.58 
  -9   6  -9   53.17    1.95 
  -9   6  -9   50.87    2.91 
   9  -6   9   54.59    3.18 
   9  -6   9   52.14    3.01 
  10  -6   9   24.05    2.59 
  10  -6   9   18.36    1.85 
  10  -6   9   22.14    2.01 
  11  -6   9    1.72    1.46 
  11  -6   9   -0.86    1.60 
  11  -6   9   -0.38    1.01 
   4   5  -9   -2.14    1.64 
  -4  -5   9    0.75    0.89 
   3   5  -9    1.12    1.61 
  -3  -5   9    1.55    0.88 
   2   5  -9    5.20    1.61 
  -2  -5   9    4.88    0.85 
  -2  -5   9    3.49    0.77 
   1   5  -9   -0.99    1.19 
  -1  -5   9    0.09    0.69 
   0   5  -9    7.69    1.16 
   0   5  -9    8.76    1.52 
   0   5  -9    7.27    0.84 
   0  -5   9    7.98    0.88 
  -1   5  -9   36.57    1.82 
  -1   5  -9   35.75    2.62 
   1  -5   9   37.41    1.80 
  -2   5  -9  120.17    4.33 
  -2   5  -9  117.11    4.06 
   2  -5   9  126.86    3.65 
  -3   5  -9   89.46    3.64 
  -3   5  -9   88.24    3.14 
   3  -5   9   92.29    2.98 
  -4   5  -9  103.15    3.91 
  -4   5  -9  106.28    3.53 
   4  -5   9  106.84    3.82 
  -5   5  -9  164.67    5.20 
  -5   5  -9  162.21    4.95 
   5  -5   9  168.88    5.18 
  -6   5  -9  108.73    3.93 
  -6   5  -9  107.05    3.76 
   6  -5   9  106.99    3.87 
  -7   5  -9   43.25    2.56 
  -7   5  -9   46.52    2.66 
   7  -5   9   45.68    2.60 
  -8   5  -9   19.15    2.16 
  -8   5  -9   17.96    1.46 
   8  -5   9   16.29    2.13 
  -9   5  -9   -0.72    0.68 
  -9   5  -9    0.39    1.13 
   9  -5   9   -0.25    1.07 
   9  -5   9    0.30    1.13 
  10  -5   9    1.88    1.20 
  10  -5   9    1.03    1.23 
  11  -5   9    1.39    1.36 
  11  -5   9    2.88    1.37 
 -12   5  -9    0.50    1.78 
  12  -5   9   -0.04    1.42 
  12  -5   9    2.36    1.50 
  12  -5   9    1.81    1.06 
   5   4  -9    7.54    1.96 
  -5  -4   9    6.98    1.03 
   4   4  -9    3.32    1.67 
  -4  -4   9    2.49    0.84 
  -4  -4   9    3.73    0.88 
   3   4  -9   -0.40    1.38 
  -3  -4   9    0.16    0.75 
  -3  -4   9    1.39    0.75 
   2   4  -9    7.17    1.49 
   2   4  -9    5.24    1.20 
  -2  -4   9    6.61    0.83 
  -2  -4   9    5.83    1.43 
  -2  -4   9    5.98    0.87 
   1   4  -9   36.88    2.77 
   1   4  -9   38.07    2.33 
  -1  -4   9   32.67    2.69 
  -1  -4   9   38.53    1.74 
   0   4  -9   79.65    3.50 
   0   4  -9   78.37    2.68 
   0  -4   9   85.07    2.67 
  -1   4  -9  145.34    4.19 
  -1   4  -9  147.37    4.87 
   1  -4   9  150.56    4.15 
  -2   4  -9  143.75    4.65 
  -2   4  -9  146.10    4.73 
   2  -4   9  150.12    4.16 
  -3   4  -9  158.17    4.62 
  -3   4  -9  156.76    4.98 
   3  -4   9  158.15    4.44 
  -4   4  -9  121.51    3.85 
  -4   4  -9  124.34    4.15 
   4  -4   9  119.78    3.68 
  -5   4  -9   28.47    2.04 
  -5   4  -9   30.51    2.21 
   5  -4   9   27.50    2.78 
   5  -4   9   32.22    1.76 
  -6   4  -9    1.65    0.98 
  -6   4  -9    2.10    0.98 
   6  -4   9    2.78    1.00 
   6  -4   9    0.80    1.14 
  -7   4  -9    2.10    0.87 
  -7   4  -9    0.94    0.99 
   7  -4   9    2.75    1.00 
  -8   4  -9    4.14    1.12 
  -8   4  -9    5.68    0.86 
   8  -4   9    7.11    1.21 
  -9   4  -9    6.83    1.32 
  -9   4  -9    9.30    1.16 
   9  -4   9    7.36    1.36 
 -10   4  -9    0.00    1.16 
  10  -4   9    2.26    1.14 
  10  -4   9   -0.43    1.17 
  11  -4   9    0.46    1.15 
  11  -4   9    2.16    1.23 
 -12   4  -9    5.01    1.70 
  12  -4   9    5.16    1.46 
  12  -4   9    8.42    1.59 
 -13   4  -9   16.88    2.16 
  13  -4   9   20.01    2.79 
  13  -4   9   14.61    1.82 
   6   3  -9    7.49    1.88 
  -6  -3   9    4.61    1.43 
  -6  -3   9    8.34    1.12 
   5   3  -9   -0.22    1.54 
  -5  -3   9    0.13    1.07 
  -5  -3   9   -1.45    0.87 
   4   3  -9    6.26    1.56 
  -4  -3   9    4.80    0.83 
  -4  -3   9    4.64    1.09 
   3   3  -9   15.67    2.03 
   3   3  -9   13.26    1.71 
  -3  -3   9   11.74    1.65 
  -3  -3   9   12.35    1.18 
  -3  -3   9   12.50    1.63 
   2   3  -9   51.11    2.60 
   2   3  -9   54.80    3.03 
  -2  -3   9   53.22    1.80 
  -2  -3   9   50.67    3.00 
  -2  -3   9   51.29    2.12 
   1   3  -9  107.04    3.95 
  -1  -3   9  104.81    3.15 
  -1  -3   9   99.05    3.01 
  -1  -3   9  102.83    3.93 
   0   3  -9   79.72    2.69 
   0   3  -9   78.60    3.33 
   0  -3   9   82.27    2.63 
   0  -3   9   78.07    3.26 
  -1   3  -9  114.18    3.96 
  -1   3  -9  111.55    3.43 
   1  -3   9  114.72    3.37 
  -2   3  -9   11.51    1.42 
  -2   3  -9    8.45    1.22 
   2  -3   9   11.13    1.24 
  -3   3  -9   28.38    1.89 
  -3   3  -9   27.38    2.08 
  -3   3  -9   28.89    1.84 
   3  -3   9   29.22    1.57 
  -4   3  -9    1.56    0.71 
  -4   3  -9    0.97    0.97 
  -4   3  -9    1.22    0.78 
   4  -3   9    2.16    0.73 
   4  -3   9    1.66    0.91 
  -5   3  -9   15.15    2.15 
  -5   3  -9   20.05    1.79 
   5  -3   9   23.11    1.55 
   5  -3   9   20.89    1.79 
  -6   3  -9   20.71    2.28 
  -6   3  -9   22.48    1.91 
   6  -3   9   23.01    1.93 
   6  -3   9   20.68    1.59 
  -7   3  -9   26.53    2.05 
  -7   3  -9   28.01    1.61 
   7  -3   9   27.67    1.94 
   7  -3   9   29.00    2.04 
  -8   3  -9   12.60    1.25 
  -8   3  -9   13.47    1.85 
   8  -3   9   14.30    1.81 
   8  -3   9   11.10    1.29 
  -9   3  -9   -1.37    1.00 
  -9   3  -9    0.29    0.65 
   9  -3   9    0.05    0.95 
   9  -3   9    0.34    1.09 
 -10   3  -9    6.60    1.36 
 -10   3  -9    6.84    0.79 
  10  -3   9    9.50    1.36 
 -12   3  -9   49.29    3.27 
  12  -3   9   44.54    2.82 
  12  -3   9   47.07    2.80 
 -13   3  -9   96.34    4.34 
  13  -3   9   96.13    4.06 
  13  -3   9   95.30    4.06 
   7   2  -9   -0.94    1.75 
  -7  -2   9    0.38    1.01 
  -7  -2   9    0.17    1.37 
   6   2  -9    7.48    1.81 
  -6  -2   9   12.44    1.16 
  -6  -2   9   10.02    1.51 
   5   2  -9   33.68    2.05 
   5   2  -9   37.10    3.06 
  -5  -2   9   45.56    2.54 
  -5  -2   9   40.34    3.07 
  -5  -2   9   40.84    1.83 
   4   2  -9  102.79    4.13 
   4   2  -9  102.92    3.81 
   4   2  -9  100.40    2.95 
  -4  -2   9  100.26    4.10 
  -4  -2   9   99.96    2.96 
  -4  -2   9  103.85    3.51 
   3   2  -9   90.45    3.45 
   3   2  -9   96.31    3.81 
  -3  -2   9   93.25    3.74 
  -3  -2   9   89.06    2.62 
  -3  -2   9   93.45    3.20 
   2   2  -9  112.40    4.05 
   2   2  -9  130.14    4.45 
  -2  -2   9  134.37    3.92 
  -2  -2   9  131.20    3.36 
  -2  -2   9  131.19    4.43 
   1   2  -9  128.82    4.31 
  -1  -2   9  125.03    3.77 
  -1  -2   9  124.78    3.24 
  -1  -2   9  128.63    4.30 
   0   2  -9   31.80    2.51 
   0   2  -9   33.37    1.72 
   0  -2   9   33.13    1.68 
   0  -2   9   35.72    2.24 
  -1   2  -9   18.98    1.45 
  -1   2  -9   18.45    2.08 
   1  -2   9   19.52    1.36 
   1  -2   9   20.00    1.88 
  -2   2  -9    1.42    0.86 
  -2   2  -9    1.98    0.77 
  -2   2  -9    1.31    0.69 
   2  -2   9    2.83    0.92 
   2  -2   9    2.51    0.67 
  -3   2  -9    1.29    0.69 
  -3   2  -9    1.35    0.90 
  -3   2  -9    1.76    0.88 
   3  -2   9    0.61    0.65 
   3  -2   9    1.53    0.80 
  -4   2  -9    4.30    0.77 
  -4   2  -9    3.61    0.96 
  -4   2  -9    3.55    0.81 
   4  -2   9    4.10    0.87 
   4  -2   9    4.55    0.78 
  -5   2  -9   14.69    1.65 
  -5   2  -9   11.88    1.61 
   5  -2   9   16.19    1.36 
   5  -2   9   11.69    1.59 
  -6   2  -9    1.94    0.87 
  -6   2  -9    2.56    0.81 
   6  -2   9    0.46    0.68 
   6  -2   9   -0.06    0.75 
  -7   2  -9    7.69    0.90 
  -7   2  -9    5.36    1.05 
   7  -2   9    6.11    1.01 
   7  -2   9    6.33    0.96 
  -8   2  -9   56.19    2.08 
  -8   2  -9   55.48    2.60 
   8  -2   9   62.02    2.55 
   8  -2   9   56.94    2.59 
  -9   2  -9   83.22    3.22 
  -9   2  -9   80.43    2.55 
   9  -2   9   81.16    3.10 
   9  -2   9   83.21    3.21 
 -10   2  -9   67.70    3.04 
 -10   2  -9   69.37    2.22 
  10  -2   9   67.70    3.50 
  10  -2   9   68.06    2.96 
 -11   2  -9  134.75    4.53 
 -11   2  -9  126.21    4.54 
  11  -2   9  137.82    4.44 
 -12   2  -9   82.37    3.77 
  12  -2   9   87.98    3.51 
 -13   2  -9   70.12    3.56 
  13  -2   9   70.27    3.32 
  13  -2   9   63.58    3.31 
 -14   2  -9   13.37    2.01 
  14  -2   9   17.52    1.94 
   7   1  -9   34.27    3.37 
   7   1  -9   39.01    1.93 
  -7  -1   9   38.92    1.94 
  -7  -1   9   40.54    2.97 
  -7  -1   9   32.42    2.99 
   6   1  -9   62.95    2.30 
   6   1  -9   59.70    3.47 
  -6  -1   9   62.91    3.50 
  -6  -1   9   57.12    3.16 
  -6  -1   9   59.79    3.11 
  -6  -1   9   63.38    2.28 
   5   1  -9   61.79    3.31 
   5   1  -9   61.71    2.24 
  -5  -1   9   65.77    2.97 
  -5  -1   9   57.46    3.30 
  -5  -1   9   63.51    2.97 
  -5  -1   9   59.75    2.14 
   4   1  -9  104.58    4.04 
   4   1  -9  106.50    3.87 
   4   1  -9  108.03    3.15 
  -4  -1   9  106.14    3.70 
  -4  -1   9  105.72    4.03 
  -4  -1   9  107.92    3.73 
  -4  -1   9  107.71    3.00 
   3   1  -9   45.31    2.48 
   3   1  -9   51.62    2.50 
   3   1  -9   54.32    2.82 
  -3  -1   9   52.04    1.77 
  -3  -1   9   56.73    2.44 
  -3  -1   9   49.93    2.75 
   2   1  -9   32.35    1.71 
   2   1  -9   34.63    3.77 
  -2  -1   9   36.49    2.32 
  -2  -1   9   34.63    1.97 
   1   1  -9    2.55    1.01 
  -1  -1   9    4.31    1.04 
  -1  -1   9    3.70    0.83 
   0   1  -9    8.76    1.14 
   0   1  -9    7.22    0.95 
   0   1  -9   10.81    1.26 
   0  -1   9    8.85    1.12 
   0  -1   9    9.72    1.35 
  -1   1  -9    2.73    0.74 
  -1   1  -9    3.31    0.76 
  -1   1  -9    3.15    0.90 
   1  -1   9    2.48    0.87 
   1  -1   9    2.82    0.72 
  -2   1  -9    0.74    0.64 
  -2   1  -9    1.55    0.80 
  -2   1  -9    1.94    0.73 
   2  -1   9    2.55    0.83 
   2  -1   9    3.06    0.69 
  -3   1  -9    4.87    0.74 
  -3   1  -9    3.95    0.86 
   3  -1   9    4.11    0.73 
   3  -1   9    4.36    0.84 
  -4   1  -9    1.47    0.77 
  -4   1  -9    0.55    0.57 
  -4   1  -9    0.99    0.71 
   4  -1   9    0.10    0.58 
   4  -1   9   -0.09    0.63 
  -5   1  -9   29.68    1.61 
  -5   1  -9   30.46    1.85 
   5  -1   9   31.45    1.63 
   5  -1   9   29.97    1.81 
  -6   1  -9   81.84    2.97 
  -6   1  -9   82.53    2.67 
   6  -1   9   81.11    2.96 
   6  -1   9   79.91    2.75 
  -7   1  -9  166.91    4.99 
  -7   1  -9  170.09    4.61 
   7  -1   9  165.47    4.82 
   7  -1   9  173.56    4.98 
  -8   1  -9  148.27    4.58 
  -8   1  -9  148.96    4.12 
   8  -1   9  147.43    4.52 
  -9   1  -9  147.73    4.15 
  -9   1  -9  149.86    4.71 
   9  -1   9  157.94    4.73 
 -10   1  -9  158.99    4.39 
  10  -1   9  167.41    5.04 
  10  -1   9  164.24    4.93 
 -11   1  -9   61.85    3.45 
  11  -1   9   65.86    2.83 
 -12   1  -9   13.21    1.56 
  12  -1   9   16.28    2.02 
 -13   1  -9   12.84    1.70 
  13  -1   9   10.51    1.50 
  13  -1   9   15.65    2.19 
 -14   1  -9    1.42    1.59 
  14  -1   9    1.87    1.40 
   8   0  -9   80.92    2.97 
   8   0  -9   76.22    4.21 
  -8   0   9   82.63    3.78 
  -8   0   9   83.21    4.17 
   7   0  -9   70.09    3.77 
   7   0  -9   74.48    2.67 
  -7   0   9   72.95    3.71 
  -7   0   9   73.69    3.68 
  -7   0   9   67.40    3.43 
   6   0  -9   50.56    3.06 
   6   0  -9   45.55    2.05 
  -6   0   9   38.82    4.49 
  -6   0   9   45.14    3.02 
  -6   0   9   46.36    2.74 
  -6   0   9   43.32    1.89 
   5   0  -9   26.58    2.56 
   5   0  -9   24.24    2.34 
   5   0  -9   27.63    2.46 
  -5   0   9   26.24    2.41 
  -5   0   9   29.58    2.39 
  -5   0   9   25.70    1.41 
  -5   0   9   27.30    2.22 
   4   0  -9   10.83    1.58 
   4   0  -9   11.47    1.24 
   4   0  -9    7.95    1.24 
  -4   0   9   11.22    1.36 
  -4   0   9   12.10    1.33 
  -4   0   9   10.50    1.00 
  -4   0   9   10.79    1.29 
   3   0  -9   -0.58    0.91 
   3   0  -9    0.29    0.62 
  -3   0   9    0.69    0.98 
  -3   0   9    1.17    0.51 
  -3   0   9   -0.39    0.89 
  -3   0   9   -0.18    0.84 
   2   0  -9    7.47    0.80 
   2   0  -9    7.29    1.11 
  -2   0   9    6.93    1.07 
  -2   0   9    8.06    1.08 
  -2   0   9    7.12    0.98 
   1   0  -9   27.31    1.38 
   1   0  -9   29.07    1.92 
   1   0  -9   26.57    1.68 
  -1   0   9   27.71    1.93 
  -1   0   9   28.07    1.79 
   0   0  -9   25.61    1.77 
   0   0  -9   21.78    1.47 
   0   0  -9   24.44    1.54 
   0   0  -9   25.90    1.55 
   0   0   9   24.37    1.63 
   0   0   9   24.56    1.81 
  -1   0  -9   20.70    1.65 
  -1   0  -9   22.92    1.43 
  -1   0  -9   24.43    1.48 
   1   0   9   22.89    1.67 
   1   0   9   24.95    1.55 
  -2   0  -9    2.28    0.77 
  -2   0  -9    3.18    0.75 
  -2   0  -9    2.51    0.62 
   2   0   9    2.61    0.75 
   2   0   9    3.02    0.70 
  -3   0  -9   20.94    1.31 
  -3   0  -9   20.44    1.53 
   3   0   9   25.49    1.43 
   3   0   9   23.49    1.58 
  -4   0  -9   87.30    2.83 
  -4   0  -9   88.71    2.99 
  -4   0  -9   89.54    2.98 
   4   0   9   86.78    2.80 
   4   0   9   86.83    2.98 
  -5   0  -9  163.58    4.58 
  -5   0  -9  162.98    4.76 
   5   0   9  165.28    4.62 
   5   0   9  170.95    4.79 
  -6   0  -9  205.49    5.76 
  -6   0  -9  208.73    5.50 
   6   0   9  205.91    5.74 
   6   0   9  208.04    5.61 
  -7   0  -9  158.58    4.70 
  -7   0  -9  158.78    4.36 
   7   0   9  158.04    4.65 
   7   0   9  153.96    4.51 
  -8   0  -9  100.23    3.46 
  -8   0  -9   97.25    3.00 
   8   0   9   94.42    3.34 
   8   0   9   98.86    3.32 
  -9   0  -9   68.09    2.37 
   9   0   9   70.85    2.71 
   9   0   9   68.50    2.79 
 -10   0  -9   23.44    1.46 
  10   0   9   21.68    1.99 
  10   0   9   25.25    1.82 
 -11   0  -9    0.22    1.07 
  11   0   9    0.94    1.54 
 -12   0  -9    0.86    1.13 
  12   0   9   -0.24    1.00 
  12   0   9    2.31    1.03 
 -13   0  -9    3.14    1.50 
  13   0   9    1.18    1.25 
  13   0   9    3.70    1.22 
 -14   0  -9    1.04    1.49 
  14   0   9    6.06    1.39 
   8  -1  -9   42.58    3.34 
   8  -1  -9   41.85    2.36 
  -8   1   9   43.87    3.15 
  -8   1   9   42.90    3.37 
   7  -1  -9   13.15    1.71 
   7  -1  -9   18.24    1.78 
  -7   1   9   15.91    1.71 
  -7   1   9   15.56    1.75 
  -7   1   9   15.59    1.79 
   6  -1  -9    9.58    1.43 
   6  -1  -9   11.11    1.11 
  -6   1   9   10.79    1.46 
  -6   1   9    8.03    1.42 
  -6   1   9   11.76    1.52 
   5  -1  -9    6.98    1.32 
   5  -1  -9    7.14    0.91 
   5  -1  -9    6.19    1.22 
  -5   1   9    6.54    1.23 
  -5   1   9    6.84    1.26 
  -5   1   9    5.68    1.27 
   4  -1  -9    6.08    1.17 
  -4   1   9    6.91    1.18 
  -4   1   9    7.70    1.15 
  -4   1   9    8.36    1.23 
   3  -1  -9   25.44    1.99 
   3  -1  -9   25.63    1.44 
  -3   1   9   26.21    1.04 
  -3   1   9   25.59    1.86 
  -3   1   9   25.71    2.03 
  -3   1   9   25.50    1.92 
   2  -1  -9    3.44    0.92 
   2  -1  -9    2.66    0.64 
  -2   1   9    3.32    0.93 
  -2   1   9    1.94    0.85 
  -2   1   9    2.24    0.79 
   1  -1  -9    1.26    0.60 
   1  -1  -9    1.09    0.75 
   1  -1  -9    0.80    0.71 
  -1   1   9    1.24    0.73 
  -1   1   9    0.26    0.76 
  -1   1   9    0.48    0.75 
   0  -1  -9   12.41    1.44 
   0  -1  -9   14.41    1.07 
   0  -1  -9   12.63    1.29 
   0  -1  -9   13.22    1.57 
   0   1   9   12.52    1.43 
   0   1   9   12.24    1.21 
   0   1   9   11.91    1.43 
  -1  -1  -9   24.75    1.50 
  -1  -1  -9   25.39    1.44 
  -1  -1  -9   26.39    1.61 
  -1  -1  -9   26.77    1.31 
   1   1   9   26.58    1.61 
   1   1   9   27.39    1.61 
  -2  -1  -9   62.26    2.36 
  -2  -1  -9   66.98    2.41 
   2   1   9   65.16    2.37 
   2   1   9   63.44    2.38 
  -3  -1  -9  185.83    4.83 
  -3  -1  -9  182.00    4.99 
  -3  -1  -9  180.67    5.04 
  -3  -1  -9  169.77    5.63 
   3   1   9  185.36    5.10 
   3   1   9  188.15    4.99 
  -4  -1  -9  199.31    5.17 
  -4  -1  -9  199.12    5.64 
  -4  -1  -9  191.48    5.31 
   4   1   9  199.92    5.34 
   4   1   9  202.63    5.48 
  -5  -1  -9  278.30    7.19 
  -5  -1  -9  279.92    7.40 
  -5  -1  -9  282.32    7.05 
   5   1   9  280.66    7.27 
   5   1   9  282.48    7.38 
  -6  -1  -9  122.02    3.85 
  -6  -1  -9  125.97    3.62 
   6   1   9  123.21    3.81 
   6   1   9  126.07    3.71 
  -7  -1  -9   57.00    2.11 
  -7  -1  -9   52.50    2.37 
   7   1   9   56.83    2.23 
   7   1   9   55.95    2.32 
  -8  -1  -9   29.28    1.58 
  -8  -1  -9   28.71    1.95 
   8   1   9   29.59    1.87 
   8   1   9   31.23    1.77 
  -9  -1  -9    0.65    0.72 
   9   1   9   -0.07    0.74 
   9   1   9    1.28    0.84 
 -10  -1  -9   12.20    1.59 
  10   1   9    9.97    1.13 
  10   1   9   10.48    1.24 
 -11  -1  -9    8.34    1.11 
  11   1   9    7.18    1.12 
 -12  -1  -9    1.69    1.08 
 -12  -1  -9    0.90    1.14 
  12   1   9   -0.88    0.88 
  12   1   9    0.10    0.98 
 -13  -1  -9    0.56    1.18 
  13   1   9    0.55    1.12 
  13   1   9    0.18    1.19 
 -14  -1  -9   -0.63    1.54 
  14   1   9    1.21    1.20 
   8  -2  -9   -0.06    1.36 
   8  -2  -9   -0.79    0.95 
  -8   2   9   -0.56    1.42 
  -8   2   9   -1.47    1.53 
   7  -2  -9    4.16    0.99 
   7  -2  -9    3.71    1.48 
  -7   2   9    5.41    1.42 
  -7   2   9    6.96    1.47 
  -7   2   9    4.17    1.25 
   6  -2  -9    8.00    1.33 
   6  -2  -9    6.55    1.33 
   6  -2  -9    7.75    1.06 
  -6   2   9   10.24    1.43 
  -6   2   9   10.20    1.34 
  -6   2   9   11.24    1.43 
   5  -2  -9   29.21    2.19 
   5  -2  -9   27.90    1.71 
  -5   2   9   26.19    2.20 
  -5   2   9   25.94    2.06 
   4  -2  -9    3.91    0.77 
   4  -2  -9    3.48    0.99 
  -4   2   9    4.23    0.99 
  -4   2   9    3.36    1.01 
  -4   2   9    1.22    1.02 
   3  -2  -9    0.13    0.70 
   3  -2  -9   -0.21    0.78 
  -3   2   9   -0.74    0.84 
  -3   2   9    0.14    0.82 
  -3   2   9   -0.40    0.76 
   2  -2  -9    3.30    0.85 
   2  -2  -9    2.83    0.68 
   2  -2  -9    3.73    0.87 
  -2   2   9    4.33    0.88 
  -2   2   9    2.99    0.99 
  -2   2   9    4.02    0.96 
   1  -2  -9   94.92    3.04 
   1  -2  -9   92.53    3.00 
   1  -2  -9   92.95    2.77 
  -1   2   9   78.48    3.81 
  -1   2   9   93.98    3.16 
  -1   2   9   94.51    2.98 
   0  -2  -9  149.72    4.00 
   0  -2  -9  148.19    4.22 
   0  -2  -9  129.78    5.02 
   0  -2  -9  147.12    4.16 
   0   2   9  149.81    4.11 
   0   2   9  147.49    4.30 
   0   2   9  150.43    4.33 
  -1  -2  -9  149.44    4.14 
  -1  -2  -9  147.22    3.93 
  -1  -2  -9  133.81    4.42 
  -1  -2  -9  129.07    4.77 
   1   2   9  149.48    4.18 
   1   2   9  146.37    3.98 
   1   2   9  149.50    4.23 
  -2  -2  -9  198.82    5.46 
  -2  -2  -9  200.16    5.17 
  -2  -2  -9  196.62    5.19 
  -2  -2  -9  193.99    5.35 
   2   2   9  194.16    5.44 
   2   2   9  202.73    5.43 
  -3  -2  -9  155.33    4.11 
  -3  -2  -9  155.61    4.30 
  -3  -2  -9  138.42    4.74 
   3   2   9  160.58    4.39 
  -4  -2  -9   87.99    2.82 
  -4  -2  -9   89.30    3.35 
  -4  -2  -9   92.29    2.64 
   4   2   9   91.44    2.89 
   4   2   9   90.58    3.17 
  -5  -2  -9   39.98    1.76 
  -5  -2  -9   41.91    1.94 
  -5  -2  -9   42.52    1.70 
   5   2   9   44.06    1.85 
   5   2   9   43.12    1.90 
  -6  -2  -9    1.76    0.88 
  -6  -2  -9    1.39    0.69 
  -6  -2  -9    0.92    0.68 
   6   2   9    2.61    0.69 
   6   2   9    1.40    0.68 
  -7  -2  -9   -0.39    0.68 
  -7  -2  -9   -0.36    0.63 
   7   2   9    0.22    0.67 
   7   2   9   -0.08    0.65 
  -8  -2  -9    0.07    0.69 
  -8  -2  -9    0.51    0.80 
   8   2   9    1.01    0.68 
   8   2   9    0.46    0.75 
  -9  -2  -9   -0.26    0.86 
  -9  -2  -9    0.37    0.74 
   9   2   9    0.01    0.75 
 -10  -2  -9   14.08    1.57 
  10   2   9   14.48    1.59 
  10   2   9   13.06    1.64 
 -11  -2  -9    3.42    0.92 
 -11  -2  -9    1.39    1.06 
  11   2   9    4.70    0.99 
  11   2   9    4.51    1.12 
 -12  -2  -9   14.65    1.71 
 -12  -2  -9   19.71    1.82 
  12   2   9   19.86    1.76 
  12   2   9   20.19    1.61 
 -13  -2  -9   46.94    2.49 
  13   2   9   45.32    2.27 
  13   2   9   54.79    2.45 
 -14  -2  -9   80.08    3.25 
  14   2   9   85.53    3.37 
  14   2   9   84.34    3.21 
   9  -3  -9    4.92    1.50 
   9  -3  -9    5.85    1.20 
  -9   3   9   11.28    2.83 
  -9   3   9    6.47    1.93 
  -9   3   9    4.81    1.71 
   8  -3  -9    3.18    1.05 
   8  -3  -9    0.98    1.24 
  -8   3   9    2.37    1.59 
  -8   3   9    3.85    1.60 
  -8   3   9    3.82    1.43 
   7  -3  -9   13.88    1.65 
   7  -3  -9   11.68    1.40 
  -7   3   9    9.43    1.27 
  -7   3   9   12.25    1.63 
  -7   3   9   14.54    1.72 
   6  -3  -9    0.78    1.01 
   6  -3  -9    1.29    0.82 
   6  -3  -9   -0.45    0.96 
  -6   3   9   -0.44    0.95 
  -6   3   9    0.98    1.07 
  -6   3   9   -0.51    1.14 
   5  -3  -9    1.75    0.94 
   5  -3  -9    1.72    0.76 
  -5   3   9    0.08    1.03 
  -5   3   9    0.13    0.87 
  -5   3   9    0.49    0.99 
   4  -3  -9    6.27    0.90 
   4  -3  -9    7.07    1.02 
  -4   3   9    5.55    1.12 
  -4   3   9    5.05    1.07 
  -4   3   9    7.06    1.15 
   3  -3  -9   72.17    2.60 
   3  -3  -9   67.44    2.41 
  -3   3   9   67.27    2.56 
  -3   3   9   68.18    3.23 
  -3   3   9   71.76    2.85 
   2  -3  -9  146.18    4.17 
   2  -3  -9  139.51    4.28 
   2  -3  -9  142.80    4.10 
  -2   3   9  150.38    4.47 
  -2   3   9  142.65    4.17 
  -2   3   9  145.17    4.23 
   1  -3  -9  191.11    5.16 
   1  -3  -9  187.50    5.23 
   1  -3  -9  193.12    5.07 
  -1   3   9  186.15    5.37 
  -1   3   9  188.19    5.16 
  -1   3   9  193.01    5.21 
   0  -3  -9  227.23    5.86 
   0  -3  -9  214.65    6.22 
   0  -3  -9  231.70    6.13 
   0  -3  -9  229.85    5.99 
   0   3   9  224.65    5.92 
   0   3   9  229.29    6.19 
   0   3   9  230.34    6.04 
  -1  -3  -9  133.97    3.79 
  -1  -3  -9  134.74    3.73 
  -1  -3  -9  132.67    3.93 
   1   3   9  134.16    3.72 
   1   3   9  133.80    3.89 
   1   3   9  138.17    4.02 
  -2  -3  -9   58.44    2.19 
  -2  -3  -9   52.74    2.61 
  -2  -3  -9   60.68    2.03 
  -2  -3  -9   61.64    2.03 
   2   3   9   60.58    1.97 
   2   3   9   61.77    2.24 
   2   3   9   61.73    2.31 
  -3  -3  -9   10.62    1.62 
  -3  -3  -9   16.06    1.18 
  -3  -3  -9   15.42    1.08 
  -3  -3  -9   12.80    1.15 
   3   3   9   15.75    1.28 
   3   3   9   14.14    1.35 
  -4  -3  -9    0.06    0.70 
  -4  -3  -9    0.40    0.60 
  -4  -3  -9    0.89    0.45 
   4   3   9    1.21    0.63 
  -5  -3  -9   34.56    1.33 
  -5  -3  -9   32.34    1.74 
  -5  -3  -9   35.43    1.67 
   5   3   9   36.28    1.66 
   5   3   9   36.26    1.74 
  -6  -3  -9   15.63    1.44 
  -6  -3  -9   17.08    0.96 
  -6  -3  -9   16.68    1.32 
   6   3   9   17.93    1.34 
   6   3   9   16.56    1.39 
  -7  -3  -9   33.32    1.27 
  -7  -3  -9   33.15    1.92 
  -7  -3  -9   33.71    1.71 
   7   3   9   33.31    1.73 
   7   3   9   33.85    1.63 
  -8  -3  -9   24.24    1.57 
  -8  -3  -9   23.43    1.80 
   8   3   9   17.65    2.27 
   8   3   9   21.91    1.59 
  -9  -3  -9   53.90    2.21 
  -9  -3  -9   52.12    2.54 
  -9  -3  -9   54.71    1.97 
   9   3   9   50.67    2.54 
   9   3   9   52.60    2.18 
 -10  -3  -9    1.80    0.70 
 -10  -3  -9    0.21    1.01 
  10   3   9    0.99    0.82 
  10   3   9    0.48    0.82 
 -11  -3  -9   43.31    1.88 
  11   3   9   43.02    2.04 
  11   3   9   43.90    2.01 
 -12  -3  -9  120.37    4.56 
 -12  -3  -9  125.92    3.71 
  12   3   9  128.06    3.92 
  12   3   9  129.07    3.86 
 -13  -3  -9   93.59    3.08 
  13   3   9   87.03    3.22 
  13   3   9   97.93    3.23 
 -14  -3  -9   57.58    2.49 
  14   3   9   64.98    2.72 
  14   3   9   67.17    2.66 
   9  -4  -9    0.61    1.07 
  -9   4   9    4.49    1.88 
  -9   4   9    1.26    1.68 
  -9   4   9    2.37    1.61 
   8  -4  -9    3.02    1.17 
   8  -4  -9    2.22    1.04 
  -8   4   9   -0.14    1.55 
  -8   4   9    2.90    1.60 
  -8   4   9    1.17    1.37 
   7  -4  -9    0.17    0.87 
   7  -4  -9    2.76    1.04 
  -7   4   9    3.87    1.38 
  -7   4   9    0.08    1.29 
   6  -4  -9   50.82    2.27 
   6  -4  -9   46.38    2.32 
  -6   4   9   48.33    2.21 
  -6   4   9   49.41    2.89 
  -6   4   9   48.55    2.78 
   5  -4  -9   80.23    2.81 
   5  -4  -9   74.83    2.76 
  -5   4   9   73.91    2.70 
  -5   4   9   75.72    3.16 
  -5   4   9   82.42    3.29 
   4  -4  -9  102.59    3.17 
   4  -4  -9   98.01    3.15 
  -4   4   9   95.99    3.09 
  -4   4   9   91.13    4.48 
  -4   4   9   99.08    3.46 
   3  -4  -9  131.37    3.89 
   3  -4  -9  138.55    3.90 
   3  -4  -9  133.62    4.21 
  -3   4   9  133.96    4.12 
  -3   4   9  130.87    4.21 
  -3   4   9  132.84    3.87 
   2  -4  -9  114.73    3.29 
   2  -4  -9  104.82    3.28 
   2  -4  -9  105.51    3.49 
  -2   4   9  107.87    3.43 
  -2   4   9  107.20    3.59 
  -2   4   9  108.01    3.27 
   1  -4  -9   70.17    2.52 
   1  -4  -9   70.67    2.42 
   1  -4  -9   72.13    2.64 
  -1   4   9   72.14    2.74 
  -1   4   9   70.48    2.47 
  -1   4   9   69.59    2.42 
   0  -4  -9   78.29    2.47 
   0  -4  -9   79.28    2.69 
   0  -4  -9   72.15    2.69 
   0  -4  -9   75.47    2.67 
   0   4   9   74.05    2.76 
   0   4   9   78.49    2.56 
   0   4   9   76.70    2.48 
  -1  -4  -9    2.05    0.73 
  -1  -4  -9    2.67    0.64 
  -1  -4  -9    2.52    0.60 
  -1  -4  -9    2.63    0.69 
   1   4   9    1.97    0.56 
   1   4   9    1.87    0.65 
   1   4   9    1.05    0.71 
  -2  -4  -9    0.77    0.59 
  -2  -4  -9    1.69    0.53 
  -2  -4  -9   -0.46    0.95 
  -2  -4  -9    0.28    0.50 
   2   4   9   -0.30    0.58 
   2   4   9    0.98    0.47 
   2   4   9    0.84    0.56 
  -3  -4  -9   21.42    1.12 
  -3  -4  -9   20.97    1.23 
  -3  -4  -9   17.26    2.15 
  -3  -4  -9   21.25    0.84 
  -3  -4  -9   20.82    1.32 
   3   4   9   21.79    1.37 
   3   4   9   21.57    1.47 
  -4  -4  -9   11.89    0.70 
  -4  -4  -9   12.47    1.19 
  -4  -4  -9   11.41    0.92 
  -4  -4  -9   12.59    1.53 
   4   4   9   11.83    1.23 
   4   4   9   11.11    1.43 
  -5  -4  -9   65.79    2.38 
  -5  -4  -9   65.05    2.49 
  -5  -4  -9   68.28    2.01 
   5   4   9   67.47    2.43 
   5   4   9   70.34    2.41 
  -6  -4  -9    2.66    0.77 
  -6  -4  -9    2.64    0.75 
  -6  -4  -9    3.08    0.47 
   6   4   9    2.43    0.68 
  -7  -4  -9   18.62    1.47 
  -7  -4  -9   17.29    1.60 
  -7  -4  -9   17.42    0.90 
   7   4   9   18.71    1.36 
   7   4   9   18.07    1.48 
  -8  -4  -9   49.06    2.34 
  -8  -4  -9   50.13    1.54 
  -8  -4  -9   51.21    2.17 
   8   4   9   49.26    2.05 
   8   4   9   48.27    2.16 
  -9  -4  -9   45.16    2.36 
  -9  -4  -9   41.29    1.50 
   9   4   9   40.89    2.04 
   9   4   9   40.82    1.92 
 -10  -4  -9   20.11    2.12 
  10   4   9   21.31    1.60 
  10   4   9   22.11    1.78 
  11   4   9  132.67    3.82 
  11   4   9  129.35    4.05 
 -12  -4  -9   87.98    3.78 
  12   4   9   86.42    3.14 
  12   4   9   85.96    2.86 
  13   4   9   22.96    2.07 
  13   4   9   25.03    1.73 
  14   4   9    4.85    1.06 
   9  -5  -9   12.05    1.50 
  -9   5   9    9.93    2.01 
  -9   5   9   10.15    2.02 
   8  -5  -9   36.64    2.32 
   8  -5  -9   31.90    2.00 
  -8   5   9   41.45    2.87 
  -8   5   9   42.85    3.35 
  -8   5   9   44.76    3.11 
   7  -5  -9   58.07    2.69 
  -7   5   9   60.74    3.20 
  -7   5   9   65.44    3.43 
   6  -5  -9   91.47    3.25 
   6  -5  -9   83.48    2.94 
  -6   5   9   94.58    3.82 
  -6   5   9   96.54    3.66 
   5  -5  -9  132.92    4.07 
   5  -5  -9  134.32    3.86 
  -5   5   9  138.85    4.56 
  -5   5   9  124.31    4.47 
  -5   5   9  137.27    4.41 
   4  -5  -9  102.14    3.58 
   4  -5  -9   96.21    3.52 
   4  -5  -9  101.10    3.23 
  -4   5   9   98.70    3.59 
  -4   5   9   95.12    3.44 
  -4   5   9   91.84    3.22 
   3  -5  -9   46.42    2.27 
   3  -5  -9   47.58    2.01 
   3  -5  -9   48.19    2.33 
  -3   5   9   48.68    2.40 
  -3   5   9   49.89    2.27 
  -3   5   9   44.87    2.06 
   2  -5  -9    7.37    1.06 
   2  -5  -9    8.27    1.08 
   2  -5  -9    6.06    0.85 
  -2   5   9    4.69    0.87 
  -2   5   9    5.56    1.01 
   1  -5  -9    0.24    0.65 
   1  -5  -9   -0.09    0.54 
   1  -5  -9    0.47    0.74 
  -1   5   9   -0.53    1.01 
  -1   5   9   -0.25    0.74 
  -1   5   9   -0.51    0.63 
   0  -5  -9   10.36    1.24 
   0  -5  -9   10.22    1.21 
   0  -5  -9    9.18    1.29 
   0  -5  -9   10.60    1.23 
   0   5   9   10.14    1.14 
   0   5   9   10.46    1.12 
   0   5   9   12.07    1.46 
  -1  -5  -9   35.77    1.72 
  -1  -5  -9   37.70    1.62 
  -1  -5  -9   39.73    1.81 
  -1  -5  -9   36.60    1.56 
   1   5   9   38.02    1.66 
   1   5   9   37.57    1.89 
   1   5   9   37.09    1.54 
  -2  -5  -9    0.81    0.62 
  -2  -5  -9    1.12    0.55 
  -2  -5  -9    1.75    0.36 
  -2  -5  -9    0.90    0.59 
  -2  -5  -9    0.58    0.62 
   2   5   9    1.72    0.58 
   2   5   9    1.39    0.48 
   2   5   9    1.67    0.71 
  -3  -5  -9    1.04    0.64 
  -3  -5  -9    1.78    0.40 
  -3  -5  -9    1.06    0.65 
  -3  -5  -9    1.44    0.51 
  -3  -5  -9    1.64    0.55 
   3   5   9    1.60    0.44 
   3   5   9    1.36    0.65 
   3   5   9    2.08    0.61 
  -4  -5  -9    1.95    0.71 
  -4  -5  -9    2.58    0.63 
  -4  -5  -9    3.71    0.55 
  -4  -5  -9    1.57    0.67 
  -4  -5  -9    3.23    0.53 
   4   5   9    3.71    0.74 
   4   5   9    3.29    0.73 
  -5  -5  -9   17.23    1.36 
  -5  -5  -9   17.17    0.93 
  -5  -5  -9   18.29    0.93 
  -5  -5  -9   15.02    1.39 
   5   5   9   17.76    1.35 
   5   5   9   17.13    1.30 
  -6  -5  -9  115.73    3.58 
  -6  -5  -9  116.53    3.01 
  -6  -5  -9  115.79    3.64 
   6   5   9  114.12    3.50 
   6   5   9  116.84    3.53 
  -7  -5  -9  198.43    5.39 
  -7  -5  -9  186.05    5.38 
   7   5   9  189.61    5.26 
   7   5   9  189.75    5.27 
  -8  -5  -9  249.13    6.81 
  -8  -5  -9  247.64    6.73 
   8   5   9  248.28    6.67 
   8   5   9  249.15    6.64 
  -9  -5  -9  148.50    4.62 
   9   5   9  144.10    4.36 
   9   5   9  148.11    4.37 
 -10  -5  -9   90.78    3.55 
  10   5   9   95.51    3.23 
  10   5   9   93.23    3.25 
  11   5   9   56.76    2.55 
  11   5   9   58.93    2.14 
 -12  -5  -9    4.43    1.49 
  12   5   9    8.46    1.31 
  12   5   9    7.28    0.88 
 -13  -5  -9    0.90    1.53 
  13   5   9    1.18    0.76 
  14   5   9    0.69    1.36 
   9  -6  -9   52.55    3.57 
   9  -6  -9   53.09    2.90 
  -9   6   9   57.35    3.89 
  -9   6   9   54.99    4.09 
   8  -6  -9   59.54    3.52 
   8  -6  -9   71.66    3.12 
  -8   6   9   80.02    4.05 
  -8   6   9   83.64    4.48 
  -8   6   9   69.75    3.71 
   7  -6  -9   49.84    2.54 
   7  -6  -9   45.11    2.95 
  -7   6   9   54.76    3.00 
  -7   6   9   60.51    3.44 
  -7   6   9   54.26    3.13 
   6  -6  -9   25.58    2.29 
   6  -6  -9   27.15    1.92 
  -6   6   9   29.12    2.51 
  -6   6   9   33.26    2.65 
   5  -6  -9   37.41    2.06 
   5  -6  -9   44.36    2.98 
  -5   6   9   37.77    1.61 
  -5   6   9   40.26    2.57 
  -5   6   9   40.78    2.49 
   4  -6  -9    3.96    1.09 
   4  -6  -9    6.08    1.16 
   4  -6  -9    4.48    0.88 
  -4   6   9    2.15    1.03 
  -4   6   9    4.54    1.08 
  -4   6   9    4.09    0.65 
   3  -6  -9   11.66    1.60 
   3  -6  -9   11.33    1.25 
   3  -6  -9   12.48    1.35 
  -3   6   9    8.45    1.07 
  -3   6   9   11.00    1.22 
  -3   6   9    7.12    1.91 
   2  -6  -9   36.56    1.75 
   2  -6  -9   36.42    1.92 
   2  -6  -9   36.47    1.97 
  -2   6   9   33.40    2.03 
  -2   6   9   38.06    1.96 
  -2   6   9   35.24    1.55 
   1  -6  -9   51.65    2.15 
   1  -6  -9   49.97    2.11 
   1  -6  -9   48.28    1.98 
  -1   6   9   50.81    1.89 
  -1   6   9   52.41    2.09 
  -1   6   9   51.22    2.31 
   0  -6  -9   20.84    1.44 
   0  -6  -9   19.93    1.29 
   0  -6  -9   22.71    1.46 
   0   6   9   20.17    1.33 
   0   6   9   23.37    1.67 
  -1  -6  -9    3.93    0.69 
  -1  -6  -9    4.33    0.79 
  -1  -6  -9    3.54    0.71 
   1   6   9    3.15    0.63 
   1   6   9    3.47    0.62 
   1   6   9    4.24    0.86 
  -2  -6  -9    5.14    0.79 
  -2  -6  -9    4.76    0.67 
  -2  -6  -9    5.47    0.52 
  -2  -6  -9    4.82    0.84 
  -2  -6  -9    4.05    0.77 
   2   6   9    3.99    0.68 
   2   6   9    3.97    0.80 
   2   6   9    4.63    0.60 
  -3  -6  -9   28.31    1.30 
  -3  -6  -9   30.23    1.60 
  -3  -6  -9   30.72    1.59 
  -3  -6  -9   29.04    1.59 
  -3  -6  -9   26.86    1.59 
   3   6   9   30.15    1.18 
   3   6   9   29.86    1.70 
   3   6   9   31.38    1.59 
  -4  -6  -9  121.03    3.68 
  -4  -6  -9  123.61    3.71 
  -4  -6  -9  117.87    3.24 
  -4  -6  -9  125.12    3.27 
   4   6   9  121.99    3.71 
   4   6   9  120.28    3.68 
  -5  -6  -9  125.86    3.76 
  -5  -6  -9  121.65    3.32 
  -5  -6  -9  118.91    3.74 
   5   6   9  123.06    3.69 
   5   6   9  120.88    3.67 
  -6  -6  -9  189.44    5.27 
  -6  -6  -9  187.82    4.85 
  -6  -6  -9  180.34    5.21 
   6   6   9  181.72    5.09 
   6   6   9  186.56    5.19 
  -7  -6  -9  125.11    3.91 
  -7  -6  -9  122.05    3.89 
   7   6   9  125.80    3.76 
   7   6   9  125.67    3.85 
  -8  -6  -9   91.42    3.28 
   8   6   9   94.70    3.22 
   8   6   9   97.50    3.15 
  -9  -6  -9   52.40    2.51 
   9   6   9   50.57    2.32 
   9   6   9   52.10    2.26 
 -10  -6  -9   12.65    1.43 
  10   6   9   10.51    1.31 
  10   6   9   11.95    1.65 
  11   6   9   -0.80    0.63 
 -12  -6  -9    0.47    1.32 
  12   6   9    3.14    0.70 
  12   6   9    2.25    1.26 
 -13  -6  -9    5.60    1.57 
  13   6   9    6.95    1.47 
   9  -7  -9   51.96    2.94 
   9  -7  -9   50.38    3.28 
  -9   7   9   50.30    3.84 
   8  -7  -9   18.17    2.50 
   8  -7  -9   19.87    2.13 
  -8   7   9   24.34    2.95 
  -8   7   9   22.98    3.19 
   7  -7  -9    5.44    1.21 
   7  -7  -9    6.59    1.44 
  -7   7   9    5.29    1.41 
  -7   7   9    4.21    1.42 
  -7   7   9    5.18    1.53 
   6  -7  -9    5.08    1.26 
   6  -7  -9    5.76    1.24 
   6  -7  -9    2.91    1.02 
  -6   7   9    2.15    1.31 
  -6   7   9    0.07    1.13 
  -6   7   9    4.49    1.32 
   5  -7  -9    1.77    1.02 
   5  -7  -9    0.94    0.85 
   5  -7  -9   -1.83    0.92 
  -5   7   9    2.56    1.15 
  -5   7   9    0.10    1.06 
   4  -7  -9   19.50    1.69 
   4  -7  -9   20.79    2.44 
   4  -7  -9   17.17    1.54 
  -4   7   9   15.23    2.03 
  -4   7   9   15.07    1.90 
  -4   7   9   15.80    1.04 
  -4   7   9   17.28    2.34 
   3  -7  -9   18.60    1.50 
   3  -7  -9   19.71    1.63 
   3  -7  -9   16.06    1.77 
  -3   7   9   19.82    1.83 
  -3   7   9   19.71    1.90 
  -3   7   9   18.25    1.13 
   2  -7  -9    8.86    1.10 
   2  -7  -9    6.68    1.05 
   2  -7  -9    5.87    0.84 
  -2   7   9    8.20    1.02 
  -2   7   9    8.22    1.01 
  -2   7   9    7.70    1.11 
   1  -7  -9   -0.09    0.71 
   1  -7  -9   -0.26    0.72 
   1  -7  -9   -0.18    0.60 
  -1   7   9   -0.58    0.51 
  -1   7   9   -0.68    0.74 
  -1   7   9    0.50    0.69 
   0  -7  -9   17.49    1.39 
   0  -7  -9   15.21    1.42 
   0  -7  -9   16.81    1.25 
   0   7   9   16.61    1.60 
   0   7   9   15.76    1.29 
   0   7   9   16.80    1.80 
  -1  -7  -9   34.55    1.62 
  -1  -7  -9   35.40    1.79 
  -1  -7  -9   35.53    1.65 
  -1  -7  -9   37.61    1.89 
   1   7   9   35.83    1.95 
   1   7   9   36.82    1.55 
   1   7   9   38.14    1.61 
  -2  -7  -9  130.17    3.40 
  -2  -7  -9  123.98    3.68 
  -2  -7  -9  128.96    3.88 
  -2  -7  -9  127.96    3.87 
  -2  -7  -9  126.21    3.58 
   2   7   9  128.39    3.87 
   2   7   9  129.13    3.48 
   2   7   9  132.31    3.97 
  -3  -7  -9  238.52    6.34 
  -3  -7  -9  230.94    6.31 
  -3  -7  -9  243.29    5.94 
  -3  -7  -9  238.09    5.96 
  -3  -7  -9  234.14    6.37 
   3   7   9  233.34    6.36 
   3   7   9  235.93    5.86 
   3   7   9  235.11    6.38 
  -4  -7  -9  172.60    4.43 
  -4  -7  -9  166.87    4.75 
  -4  -7  -9  167.01    4.27 
  -4  -7  -9  168.10    4.83 
  -4  -7  -9  164.40    4.66 
   4   7   9  170.31    4.82 
   4   7   9  167.06    4.19 
   4   7   9  172.88    4.80 
  -5  -7  -9  128.67    3.93 
  -5  -7  -9  122.27    3.79 
  -5  -7  -9  126.92    3.49 
   5   7   9  124.28    3.82 
   5   7   9  125.44    3.79 
  -6  -7  -9   49.29    2.20 
  -6  -7  -9   52.68    2.28 
  -6  -7  -9   47.74    1.83 
   6   7   9   50.26    2.07 
   6   7   9   51.60    2.19 
  -7  -7  -9   13.96    1.16 
  -7  -7  -9   12.53    1.54 
   7   7   9   10.86    1.32 
   7   7   9   13.40    1.43 
  -8  -7  -9    5.67    0.98 
   8   7   9    4.23    1.01 
   8   7   9    5.33    0.85 
  -9  -7  -9    3.82    1.06 
   9   7   9    3.69    1.07 
   9   7   9    3.34    0.87 
 -10  -7  -9   14.41    2.01 
 -11  -7  -9    1.53    2.19 
  11   7   9    2.85    0.64 
  11   7   9    2.77    1.18 
 -12  -7  -9    0.38    1.29 
  12   7   9    6.98    1.43 
 -13  -7  -9    1.97    1.62 
   8  -8  -9   -0.76    1.38 
   8  -8  -9    1.40    1.12 
  -8   8   9   -0.14    1.57 
  -8   8   9    0.06    1.52 
   7  -8  -9    1.80    1.02 
   7  -8  -9    2.29    1.28 
  -7   8   9    2.19    1.45 
  -7   8   9    2.74    1.46 
   6  -8  -9    1.50    0.99 
   6  -8  -9    2.55    1.33 
   6  -8  -9    0.64    1.41 
  -6   8   9    0.51    1.28 
  -6   8   9    2.92    1.33 
  -6   8   9    1.28    1.24 
   5  -8  -9    1.06    0.97 
   5  -8  -9    0.50    1.00 
   5  -8  -9    1.63    0.90 
  -5   8   9   -0.94    0.99 
  -5   8   9    1.18    1.18 
  -5   8   9   -0.39    1.09 
   4  -8  -9   -0.43    0.75 
   4  -8  -9    1.18    0.89 
  -4   8   9   -0.23    1.00 
  -4   8   9   -1.29    0.96 
   3  -8  -9    9.00    1.13 
   3  -8  -9    7.07    0.97 
   3  -8  -9    6.85    1.14 
  -3   8   9    5.97    1.12 
  -3   8   9    6.00    0.83 
   2  -8  -9   58.84    2.33 
   2  -8  -9   60.63    2.52 
   2  -8  -9   62.90    2.48 
  -2   8   9   60.02    1.97 
  -2   8   9   59.19    2.47 
   1  -8  -9  118.89    3.70 
   1  -8  -9  120.73    3.78 
   1  -8  -9  123.16    3.80 
  -1   8   9  123.77    3.72 
  -1   8   9  124.18    3.97 
  -1   8   9  123.28    3.42 
   0  -8  -9  144.48    4.20 
   0  -8  -9  144.90    4.18 
   0  -8  -9  145.43    4.32 
   0   8   9  146.06    4.13 
   0   8   9  147.70    4.78 
   0   8   9  145.74    4.47 
  -1  -8  -9  147.06    4.07 
  -1  -8  -9  142.91    3.83 
  -1  -8  -9  142.27    4.14 
  -1  -8  -9  143.04    4.29 
   1   8   9  148.43    4.31 
   1   8   9  142.02    3.96 
   1   8   9  146.97    4.43 
  -2  -8  -9  344.65    8.59 
  -2  -8  -9  350.46    8.52 
  -2  -8  -9  355.84    8.93 
  -2  -8  -9  342.02    8.95 
  -2  -8  -9  335.91    8.73 
   2   8   9  337.69    8.92 
   2   8   9  348.26    8.52 
   2   8   9  351.31    9.01 
  -3  -8  -9  150.04    4.33 
  -3  -8  -9  147.40    3.90 
  -3  -8  -9  145.32    4.16 
  -3  -8  -9  150.50    3.97 
  -3  -8  -9  147.28    4.41 
   3   8   9  144.85    3.81 
   3   8   9  145.98    4.38 
   3   8   9  149.60    4.35 
  -4  -8  -9   53.59    2.31 
  -4  -8  -9   52.79    2.04 
  -4  -8  -9   54.44    1.89 
  -4  -8  -9   52.84    2.17 
   4   8   9   51.33    2.22 
   4   8   9   51.13    2.19 
  -5  -8  -9   11.49    1.47 
  -5  -8  -9   14.86    1.35 
  -5  -8  -9   10.21    1.06 
   5   8   9   11.86    1.36 
   5   8   9   10.88    1.38 
  -6  -8  -9   -0.94    0.69 
  -6  -8  -9   -0.10    0.85 
  -6  -8  -9    0.55    0.57 
   6   8   9    0.34    0.66 
   6   8   9    0.24    0.80 
  -7  -8  -9    1.35    0.82 
  -7  -8  -9   -0.33    0.62 
   7   8   9    0.47    0.87 
   7   8   9   -0.68    0.63 
  -8  -8  -9   14.50    1.34 
  -8  -8  -9   15.45    1.71 
   8   8   9   15.35    1.48 
   8   8   9   17.92    2.40 
  -9  -8  -9   24.45    2.04 
  -9  -8  -9   23.31    1.66 
   9   8   9   24.65    1.75 
 -10  -8  -9    0.85    1.10 
  10   8   9    2.32    1.13 
 -11  -8  -9    7.02    1.52 
  11   8   9    7.79    1.44 
 -12  -8  -9   -0.76    1.53 
 -13  -8  -9   24.64    3.06 
   8  -9  -9   10.20    1.57 
   8  -9  -9   10.11    1.50 
  -8   9   9   11.01    1.93 
  -8   9   9   12.25    1.85 
   7  -9  -9    2.91    1.26 
   7  -9  -9    2.47    1.12 
  -7   9   9   -1.22    1.44 
  -7   9   9    3.60    1.58 
   6  -9  -9   -0.01    1.29 
   6  -9  -9   -0.47    0.97 
  -6   9   9    1.78    1.33 
  -6   9   9    1.05    1.25 
   5  -9  -9    6.67    1.20 
   5  -9  -9    4.93    1.06 
   5  -9  -9    4.39    1.21 
  -5   9   9    4.93    1.27 
  -5   9   9    5.38    1.32 
  -5   9   9    4.05    1.22 
   4  -9  -9   30.08    1.97 
   4  -9  -9   28.65    1.90 
  -4   9   9   30.68    2.39 
  -4   9   9   31.63    2.26 
   3  -9  -9  119.90    3.80 
   3  -9  -9  116.99    3.95 
   3  -9  -9  110.91    3.70 
  -3   9   9  120.01    4.06 
  -3   9   9  113.85    3.87 
   2  -9  -9  180.92    5.15 
   2  -9  -9  177.29    5.20 
   2  -9  -9  173.44    5.06 
  -2   9   9  180.56    5.35 
  -2   9   9  179.79    4.60 
  -2   9   9  177.21    5.14 
   1  -9  -9  125.96    3.94 
   1  -9  -9  127.24    3.85 
   1  -9  -9  127.36    3.92 
  -1   9   9  115.72    4.63 
  -1   9   9  129.87    4.12 
  -1   9   9  126.41    3.48 
  -1   9   9  127.48    3.85 
   0  -9  -9   80.81    2.94 
   0  -9  -9   81.79    2.77 
   0   9   9   79.28    2.71 
   0   9   9   81.59    3.02 
   0   9   9   85.23    2.82 
   0   9   9   81.49    3.10 
  -1  -9  -9   28.37    1.58 
  -1  -9  -9   25.82    1.57 
  -1  -9  -9   29.44    1.79 
  -1  -9  -9   28.63    1.33 
   1   9   9   27.84    1.73 
   1   9   9   27.77    1.48 
   1   9   9   28.66    1.93 
  -2  -9  -9   51.82    2.00 
  -2  -9  -9   56.31    1.92 
  -2  -9  -9   52.08    2.31 
  -2  -9  -9   51.45    2.08 
   2   9   9   55.40    1.87 
   2   9   9   54.82    2.43 
   2   9   9   54.40    2.30 
  -3  -9  -9    6.09    0.86 
  -3  -9  -9    5.29    0.86 
  -3  -9  -9    5.50    0.76 
  -3  -9  -9    6.83    1.08 
   3   9   9    6.13    0.98 
   3   9   9    5.87    0.91 
   3   9   9    6.25    0.81 
  -4  -9  -9   25.89    1.40 
  -4  -9  -9   23.69    1.77 
  -4  -9  -9   26.63    1.65 
  -4  -9  -9   25.40    1.49 
   4   9   9   22.98    1.69 
   4   9   9   25.95    1.70 
  -5  -9  -9   23.94    1.62 
  -5  -9  -9   24.41    1.39 
  -5  -9  -9   21.78    2.20 
   5   9   9   22.19    1.61 
  -6  -9  -9   41.82    1.83 
  -6  -9  -9   41.25    2.02 
   6   9   9   43.65    1.92 
  -7  -9  -9   30.23    1.62 
  -7  -9  -9   30.47    1.83 
   7   9   9   27.69    1.68 
  -8  -9  -9    1.12    0.91 
  -8  -9  -9    1.73    0.80 
   8   9   9    0.57    0.74 
   8   9   9    1.25    1.07 
  -9  -9  -9    1.99    1.04 
   9   9   9    4.51    1.23 
   9   9   9    2.80    0.67 
   9   9   9    3.38    0.89 
 -10  -9  -9   31.18    2.05 
 -10  -9  -9   30.84    2.35 
  10   9   9   26.44    2.31 
  10   9   9   29.90    2.51 
 -11  -9  -9   44.85    2.60 
 -11  -9  -9   46.99    2.86 
 -12  -9  -9   85.47    3.68 
  12   9   9   99.03    4.63 
   8 -10  -9    0.94    1.44 
   8 -10  -9   -0.39    1.32 
  -8  10   9   -3.14    1.92 
   7 -10  -9   17.51    2.13 
   7 -10  -9   21.27    2.22 
  -7  10   9   16.62    2.02 
  -7  10   9   16.91    2.06 
   6 -10  -9   38.01    2.76 
   6 -10  -9   39.49    2.39 
  -6  10   9   34.77    2.93 
  -6  10   9   31.08    2.87 
   5 -10  -9   91.22    3.35 
   5 -10  -9   75.60    4.37 
   5 -10  -9   84.72    3.76 
  -5  10   9   94.98    3.86 
  -5  10   9   88.83    3.69 
   4 -10  -9   99.57    3.55 
   4 -10  -9   96.77    3.49 
  -4  10   9  100.21    3.77 
  -4  10   9  104.84    3.94 
   3 -10  -9  179.39    5.32 
   3 -10  -9  183.88    6.06 
   3 -10  -9  186.27    5.36 
  -3  10   9  187.32    5.50 
  -3  10   9  184.99    5.63 
   2 -10  -9   74.40    2.77 
   2 -10  -9   76.47    2.88 
   2 -10  -9   75.27    3.03 
  -2  10   9   74.22    2.25 
  -2  10   9   74.37    2.91 
  -2  10   9   75.17    3.08 
   1 -10  -9   50.03    2.35 
   1 -10  -9   48.39    2.31 
   1 -10  -9   50.63    2.18 
  -1  10   9   47.95    2.22 
  -1  10   9   49.05    2.43 
  -1  10   9   49.42    1.81 
  -1  10   9   48.80    2.46 
   0 -10  -9   69.28    2.55 
   0 -10  -9   71.33    2.62 
   0 -10  -9   72.09    2.77 
   0  10   9   69.11    2.86 
   0  10   9   68.15    2.96 
   0  10   9   71.90    2.55 
   0  10   9   67.59    2.71 
  -1 -10  -9    1.02    0.63 
  -1 -10  -9    1.26    0.74 
  -1 -10  -9    0.55    0.84 
   1  10   9    1.33    0.66 
   1  10   9    1.89    0.87 
   1  10   9    1.28    0.81 
   1  10   9    0.95    0.88 
  -2 -10  -9   19.36    1.27 
  -2 -10  -9   19.24    1.41 
  -2 -10  -9   17.15    2.32 
   2  10   9   15.92    1.74 
   2  10   9   18.86    1.61 
   2  10   9   18.82    1.22 
   2  10   9   16.43    1.59 
  -3 -10  -9   16.22    1.75 
  -3 -10  -9   16.13    1.22 
  -3 -10  -9   17.50    1.39 
   3  10   9   16.15    1.54 
   3  10   9   19.22    1.64 
   3  10   9   17.99    1.63 
   3  10   9   17.02    1.00 
  -4 -10  -9   24.40    1.64 
  -4 -10  -9   21.44    1.48 
  -4 -10  -9   21.70    1.40 
   4  10   9   22.46    1.79 
   4  10   9   21.82    1.61 
   4  10   9   23.98    1.69 
  -5 -10  -9    2.49    0.81 
  -5 -10  -9    4.09    0.85 
   5  10   9    2.24    0.81 
   5  10   9    2.72    0.82 
  -6 -10  -9    2.47    0.83 
  -6 -10  -9    1.39    0.73 
   6  10   9    0.99    0.69 
  -7 -10  -9    7.46    0.99 
  -7 -10  -9    6.44    1.00 
   7  10   9    7.75    0.97 
   7  10   9    7.99    0.93 
  -8 -10  -9   38.42    2.09 
   8  10   9   37.59    1.68 
   8  10   9   37.68    1.95 
   8  10   9   36.00    2.44 
  -9 -10  -9   49.14    2.49 
  -9 -10  -9   51.85    2.45 
   9  10   9   53.33    1.86 
   9  10   9   52.64    2.31 
 -10 -10  -9   99.18    3.67 
 -10 -10  -9   95.51    3.59 
  10  10   9   96.49    3.41 
 -11 -10  -9   97.53    3.91 
 -11 -10  -9   92.24    3.75 
  11  10   9  107.25    4.68 
 -12 -10  -9   77.81    3.52 
   7 -11  -9   67.12    3.08 
   7 -11  -9   68.14    3.23 
  -7  11   9   68.19    3.91 
  -7  11   9   64.73    3.82 
   6 -11  -9   65.54    3.02 
   6 -11  -9   61.85    2.90 
  -6  11   9   63.46    3.63 
  -6  11   9   67.16    3.60 
   5 -11  -9   73.27    3.08 
   5 -11  -9   69.35    3.04 
  -5  11   9   79.08    3.57 
  -5  11   9   67.65    3.53 
   4 -11  -9   42.51    2.25 
   4 -11  -9   32.87    2.49 
  -4  11   9   40.03    2.72 
  -4  11   9   42.45    2.68 
   3 -11  -9   16.93    2.48 
   3 -11  -9   21.09    1.77 
  -3  11   9   21.03    2.11 
  -3  11   9   21.65    2.15 
   2 -11  -9    1.49    0.81 
   2 -11  -9    2.00    1.80 
  -2  11   9    0.92    0.56 
  -2  11   9    1.66    0.56 
  -2  11   9   -0.09    1.09 
  -2  11   9    0.47    0.99 
  -2  11   9    0.07    0.93 
   1 -11  -9    4.59    0.94 
   1 -11  -9    6.59    1.36 
  -1  11   9    6.22    0.77 
  -1  11   9    5.26    1.20 
  -1  11   9    5.46    1.04 
  -1  11   9    7.77    1.20 
  -1  11   9    6.88    1.16 
   0 -11  -9   37.95    1.91 
   0 -11  -9   35.05    2.19 
   0  11   9   37.11    2.08 
   0  11   9   37.95    2.27 
   0  11   9   37.43    2.27 
   0  11   9   38.13    1.94 
  -1 -11  -9    8.30    0.94 
  -1 -11  -9   10.04    1.24 
  -1 -11  -9    5.67    0.91 
   1  11   9    9.25    1.19 
   1  11   9    5.92    1.10 
   1  11   9    6.69    1.18 
   1  11   9    7.07    0.92 
  -2 -11  -9    1.61    0.73 
  -2 -11  -9    1.68    0.98 
  -2 -11  -9    1.65    0.75 
   2  11   9    1.19    0.92 
   2  11   9    0.63    0.91 
   2  11   9    1.52    0.64 
   2  11   9    1.94    0.89 
  -3 -11  -9    7.45    0.91 
  -3 -11  -9    5.12    0.87 
   3  11   9    6.64    1.05 
   3  11   9    7.67    1.16 
   3  11   9    5.97    0.66 
   3  11   9    5.83    1.08 
  -4 -11  -9    1.15    0.73 
  -4 -11  -9    0.70    0.71 
   4  11   9    2.40    0.97 
   4  11   9    0.55    0.78 
   4  11   9    0.68    0.87 
  -5 -11  -9   46.39    2.15 
  -5 -11  -9   44.32    2.01 
   5  11   9   42.09    2.08 
   5  11   9   46.42    2.14 
  -6 -11  -9   85.98    2.99 
  -6 -11  -9   81.68    2.93 
   6  11   9   86.94    2.93 
   6  11   9   81.85    2.87 
  -7 -11  -9  105.01    3.65 
  -7 -11  -9  105.78    3.49 
   7  11   9  104.87    3.33 
   7  11   9  104.14    3.28 
  -8 -11  -9   85.56    3.11 
  -8 -11  -9   80.91    3.10 
   8  11   9   81.48    2.67 
   8  11   9   89.15    2.95 
   8  11   9   85.59    3.93 
  -9 -11  -9   57.32    2.60 
  -9 -11  -9   53.98    2.65 
   9  11   9   55.97    2.43 
   9  11   9   57.70    3.60 
 -10 -11  -9   48.21    2.55 
 -10 -11  -9   42.54    2.49 
  10  11   9   43.81    3.54 
 -11 -11  -9    9.38    1.54 
  -7  12   9   75.81    4.38 
   6 -12  -9   34.13    2.44 
   6 -12  -9   34.81    2.48 
  -6  12   9   31.92    3.17 
  -6  12   9   33.67    3.22 
   5 -12  -9    3.40    1.30 
   5 -12  -9    2.72    1.11 
  -5  12   9    1.55    1.42 
  -5  12   9    3.05    1.35 
   4 -12  -9   -0.21    1.09 
   4 -12  -9   -0.28    0.91 
  -4  12   9    2.14    1.27 
  -4  12   9   -0.30    1.23 
   3 -12  -9    9.72    1.19 
   3 -12  -9   10.83    1.43 
  -3  12   9    8.74    1.44 
  -3  12   9    5.95    1.30 
   2 -12  -9   28.90    2.06 
   2 -12  -9   27.30    1.83 
  -2  12   9   26.25    2.11 
  -2  12   9   25.38    1.35 
  -2  12   9   25.58    2.16 
  -2  12   9   24.68    2.36 
  -2  12   9   25.02    1.32 
   1 -12  -9   24.74    1.79 
   1 -12  -9   26.00    2.01 
  -1  12   9   27.41    2.35 
  -1  12   9   25.43    1.51 
  -1  12   9   25.64    2.14 
  -1  12   9   29.23    2.03 
  -1  12   9   25.09    1.97 
   0 -12  -9   17.77    1.86 
   0 -12  -9   17.06    1.55 
   0  12   9   22.28    1.91 
   0  12   9   19.22    2.09 
   0  12   9   15.63    1.61 
   0  12   9   16.13    1.93 
   0  12   9   15.65    1.50 
  -1 -12  -9   -0.34    0.78 
  -1 -12  -9    0.51    0.75 
   1  12   9    1.06    0.83 
   1  12   9    0.26    0.96 
   1  12   9   -1.51    0.97 
   1  12   9   -0.43    0.73 
   1  12   9    1.67    1.03 
  -2 -12  -9    1.84    0.83 
  -2 -12  -9    1.18    0.78 
   2  12   9    1.12    0.87 
   2  12   9    2.13    1.05 
   2  12   9    1.57    0.72 
   2  12   9    1.49    1.03 
   2  12   9    0.15    0.92 
  -3 -12  -9   28.86    1.74 
  -3 -12  -9   28.73    1.75 
   3  12   9   30.54    1.43 
   3  12   9   31.10    1.98 
   3  12   9   31.48    2.45 
   3  12   9   31.55    2.17 
   3  12   9   32.17    2.10 
  -4 -12  -9  110.01    3.43 
  -4 -12  -9  103.46    3.46 
   4  12   9  107.70    3.67 
   4  12   9  110.41    3.61 
   4  12   9  112.44    3.95 
   4  12   9  108.85    3.97 
   5  12   9  129.69    3.97 
   5  12   9  131.35    4.58 
   5  12   9  126.97    4.04 
   5  12   9  128.28    4.44 
  -6 -12  -9  122.30    4.00 
   6  12   9  127.49    3.85 
   6  12   9  119.94    4.55 
   6  12   9  122.63    3.75 
  -7 -12  -9   64.63    2.71 
  -7 -12  -9   63.37    2.66 
   7  12   9   62.53    3.49 
   7  12   9   66.80    2.52 
  -8 -12  -9   28.32    2.10 
  -8 -12  -9   30.25    2.05 
   8  12   9   36.02    3.14 
   8  12   9   29.46    1.60 
   8  12   9   30.60    1.90 
  -9 -12  -9    9.73    1.47 
  -9 -12  -9   14.35    1.85 
   9  12   9   11.48    1.17 
   9  12   9    7.07    1.86 
 -10 -12  -9    0.57    1.20 
  10  12   9   -2.96    1.97 
   6 -13  -9    0.73    1.29 
  -6  13   9   -2.55    1.64 
  -6  13   9   -1.27    1.63 
   5 -13  -9    1.05    1.07 
   5 -13  -9    2.72    1.37 
  -5  13   9    1.45    1.46 
  -5  13   9    0.18    1.60 
   4 -13  -9   11.50    1.56 
   4 -13  -9    8.12    1.31 
  -4  13   9   10.03    1.65 
  -4  13   9    8.56    1.60 
   3 -13  -9    9.43    1.48 
   3 -13  -9   10.68    1.32 
  -3  13   9    7.59    1.48 
  -3  13   9    8.60    1.48 
   2 -13  -9    3.76    1.03 
  -2  13   9    2.96    1.21 
  -2  13   9    1.14    1.10 
  -2  13   9    1.31    0.62 
  -2  13   9    2.01    0.69 
   1 -13  -9    2.68    0.90 
  -1  13   9    4.89    1.52 
  -1  13   9    0.56    0.75 
  -1  13   9    1.38    1.06 
  -1  13   9    2.91    1.18 
  -1  13   9    2.24    1.11 
   0 -13  -9   30.13    1.93 
   0  13   9   32.14    2.05 
   0  13   9   36.65    2.36 
   0  13   9   33.92    2.31 
   0  13   9   32.11    1.87 
   0  13   9   31.85    2.43 
  -1 -13  -9   54.45    2.38 
   1  13   9   51.35    2.32 
   1  13   9   53.57    2.67 
   1  13   9   51.47    2.78 
   1  13   9   57.66    2.71 
   1  13   9   52.46    2.45 
  -2 -13  -9   74.76    2.78 
  -2 -13  -9   69.68    3.22 
   2  13   9   73.23    3.17 
   2  13   9   77.93    3.16 
   2  13   9   74.92    2.60 
   2  13   9   74.89    3.40 
   2  13   9   73.52    3.17 
  -3 -13  -9  112.25    3.50 
  -3 -13  -9  107.66    3.58 
   3  13   9  102.83    3.78 
   3  13   9  109.43    3.92 
   3  13   9  106.11    3.66 
   3  13   9  107.11    3.15 
   3  13   9  102.69    3.88 
  -4 -13  -9   96.43    3.39 
  -4 -13  -9   99.40    3.26 
   4  13   9   97.78    3.58 
   4  13   9   95.43    3.39 
   4  13   9  101.04    3.88 
  -5 -13  -9   44.95    2.28 
   5  13   9   48.06    2.26 
   5  13   9   49.48    2.40 
   5  13   9   47.30    2.98 
  -6 -13  -9   35.27    2.12 
   6  13   9   37.50    2.07 
   6  13   9   34.87    1.97 
   6  13   9   36.24    2.95 
  -7 -13  -9    4.53    1.19 
   7  13   9    6.47    1.01 
   7  13   9    4.69    1.64 
  -8 -13  -9    0.47    1.12 
   8  13   9    1.32    0.88 
   8  13   9    1.02    1.54 
  -9 -13  -9   12.15    1.60 
   4 -14  -9   -0.02    0.98 
  -4  14   9   -2.07    1.33 
  -4  14   9    1.15    1.59 
   3 -14  -9    6.40    1.19 
  -3  14   9    6.59    1.50 
  -3  14   9    4.92    1.54 
   2 -14  -9   32.12    2.18 
  -2  14   9   37.96    2.63 
  -2  14   9   36.28    2.65 
  -2  14   9   34.47    2.51 
   1 -14  -9   87.11    3.19 
  -1  14   9   84.75    2.94 
  -1  14   9   85.95    3.60 
  -1  14   9   82.81    3.44 
  -1  14   9   86.72    3.42 
   0 -14  -9   96.40    3.39 
   0  14   9   93.26    3.48 
   0  14   9   96.57    3.34 
   0  14   9   94.79    3.69 
   0  14   9   98.27    3.79 
  -1 -14  -9  125.68    4.08 
   1  14   9  128.35    4.25 
   1  14   9  122.96    4.50 
   1  14   9  129.19    4.09 
   1  14   9  141.31    4.93 
   1  14   9  131.33    4.42 
  -2 -14  -9  111.10    3.63 
  -2 -14  -9  108.59    3.68 
   2  14   9  109.79    4.05 
   2  14   9  105.72    3.47 
   2  14   9  113.02    3.93 
   2  14   9  109.72    3.91 
  -3 -14  -9   46.78    2.40 
  -3 -14  -9   50.66    2.26 
   3  14   9   47.95    2.79 
   3  14   9   47.77    1.99 
   3  14   9   43.33    2.70 
  -4 -14  -9    9.58    1.16 
  -4 -14  -9   10.49    1.32 
   4  14   9    9.67    1.23 
   4  14   9    8.98    1.52 
   4  14   9   10.17    1.43 
  -5 -14  -9    0.66    0.97 
   5  14   9    1.92    1.38 
   5  14   9    0.45    0.93 
   5  14   9   -1.24    1.07 
  -6 -14  -9   10.87    1.36 
   6  14   9    7.89    1.73 
   6  14   9    9.79    1.11 
   6  14   9   11.15    1.38 
  -7 -14  -9    6.58    1.32 
   7  14   9    8.08    1.86 
  -3  15   9   82.75    3.93 
   2 -15  -9  134.18    4.51 
  -2  15   9  164.07    6.54 
  -2  15   9  130.49    4.84 
  -2  15   9  128.64    4.79 
   1 -15  -9   96.36    3.53 
  -1  15   9   99.21    3.83 
  -1  15   9   99.41    4.00 
  -1  15   9   97.95    3.33 
   0 -15  -9   68.27    2.83 
   0  15   9   59.48    2.94 
   0  15   9   65.74    3.24 
   0  15   9   60.80    2.78 
  -1 -15  -9  107.89    3.57 
   1  15   9  106.65    4.00 
   1  15   9  104.96    3.81 
   1  15   9   89.21    5.13 
  -2 -15  -9   12.17    1.41 
  -2 -15  -9   13.84    1.70 
   2  15   9   11.36    1.46 
   2  15   9   11.92    1.55 
   2  15   9   11.45    1.30 
  -3 -15  -9   -1.09    0.91 
  -3 -15  -9   -0.18    1.02 
   3  15   9   -0.74    1.07 
   3  15   9    0.40    1.34 
   3  15   9   -1.77    0.81 
   3  15   9    0.74    1.31 
  -4 -15  -9    7.50    1.29 
  -4 -15  -9    9.08    1.21 
   4  15   9   11.87    1.80 
   4  15   9    7.84    1.45 
   4  15   9   10.66    1.49 
  -5 -15  -9    0.69    1.05 
   5  15   9    2.97    1.56 
   5  15   9    1.24    1.20 
  -4   8 -10    2.43    1.73 
  -5   8 -10    6.65    1.71 
   5  -8  10    7.32    1.66 
  -1   7 -10    0.55    1.53 
   1  -7  10    2.48    1.65 
  -2   7 -10    5.45    1.65 
   2  -7  10    8.26    1.77 
  -3   7 -10   17.01    2.04 
  -3   7 -10   26.05    3.27 
   3  -7  10   20.51    2.83 
  -4   7 -10   32.36    2.35 
  -4   7 -10   34.12    3.19 
   4  -7  10   39.85    3.10 
   4  -7  10   31.01    1.93 
  -5   7 -10   94.71    3.69 
  -5   7 -10   99.77    4.26 
   5  -7  10  105.03    4.34 
   5  -7  10   79.78    3.13 
  -6   7 -10  100.76    4.00 
  -6   7 -10  100.36    4.35 
   6  -7  10  101.00    4.33 
  -7   7 -10  104.72    4.21 
  -7   7 -10  104.68    4.39 
   7  -7  10   91.46    3.50 
   7  -7  10  104.21    4.28 
  -8   7 -10   74.47    2.90 
   8  -7  10   71.78    3.67 
   8  -7  10   73.08    3.04 
   9  -7  10   31.95    2.29 
   1   6 -10   -2.63    1.50 
   0   6 -10    8.81    1.73 
   0  -6  10    6.74    1.67 
  -1   6 -10   30.35    1.78 
  -1   6 -10   27.13    3.03 
   1  -6  10   26.41    2.66 
  -2   6 -10   48.57    3.26 
  -2   6 -10   43.56    2.16 
   2  -6  10   44.19    2.91 
  -3   6 -10   85.65    3.95 
  -3   6 -10   83.18    3.18 
   3  -6  10   83.70    3.69 
  -4   6 -10  131.16    4.85 
  -4   6 -10  135.14    4.33 
   4  -6  10  128.67    4.70 
  -5   6 -10  108.29    4.30 
  -5   6 -10  107.31    3.94 
   5  -6  10  110.17    4.24 
  -6   6 -10   54.53    3.06 
  -6   6 -10   55.44    3.23 
   6  -6  10   57.34    3.19 
  -7   6 -10   33.64    2.85 
  -7   6 -10   35.31    2.80 
   7  -6  10   29.27    2.80 
  -8   6 -10    1.48    1.10 
  -8   6 -10    0.95    1.36 
   8  -6  10    1.37    1.30 
  -9   6 -10    1.45    0.92 
   9  -6  10    2.46    1.34 
  10  -6  10    0.44    1.42 
   3   5 -10    2.59    1.80 
  -3  -5  10    1.30    0.86 
   2   5 -10    7.01    1.75 
   1   5 -10   32.24    3.20 
  -1  -5  10   34.80    1.81 
   0   5 -10   59.34    3.53 
   0  -5  10   63.79    2.39 
  -1   5 -10   86.50    4.21 
  -1   5 -10  113.07    4.29 
   1  -5  10  109.89    3.35 
  -2   5 -10  144.09    5.04 
  -2   5 -10  139.71    4.24 
   2  -5  10  143.74    4.21 
  -3   5 -10   30.84    2.16 
  -3   5 -10   32.55    2.67 
   3  -5  10   35.09    1.95 
   3  -5  10   27.24    3.11 
  -4   5 -10   35.07    2.67 
  -4   5 -10   34.11    2.29 
  -4   5 -10   38.56    2.97 
   4  -5  10   33.89    2.59 
   4  -5  10   35.00    2.01 
  -5   5 -10   19.36    2.11 
  -5   5 -10   24.90    2.17 
  -5   5 -10   27.59    2.50 
   5  -5  10   22.68    2.27 
   5  -5  10   17.30    2.30 
  -6   5 -10    0.59    1.18 
  -6   5 -10   -1.29    1.10 
   6  -5  10    0.81    1.13 
   6  -5  10   -2.77    1.13 
  -7   5 -10    6.82    1.42 
  -7   5 -10   10.49    1.48 
   7  -5  10    9.79    1.46 
   7  -5  10    7.94    1.37 
  -8   5 -10   18.11    1.80 
  -8   5 -10   21.41    1.75 
   8  -5  10   18.11    2.42 
   8  -5  10   22.48    2.39 
  -9   5 -10   14.27    2.29 
  -9   5 -10   16.34    1.53 
   9  -5  10   11.73    1.66 
   9  -5  10   12.69    1.64 
  10  -5  10    3.45    1.37 
  11  -5  10   -1.70    1.37 
 -12   5 -10    9.99    1.97 
   4   4 -10    6.97    1.85 
  -4  -4  10    4.30    0.99 
   3   4 -10   50.00    3.63 
  -3  -4  10   46.80    2.10 
  -3  -4  10   42.96    1.81 
   2   4 -10   51.10    3.46 
  -2  -4  10   49.51    2.17 
   1   4 -10   75.34    3.79 
  -1  -4  10   77.10    2.68 
   0   4 -10  106.62    4.29 
   0  -4  10  107.06    3.32 
  -2   4 -10   27.46    1.87 
  -2   4 -10   28.78    2.50 
   2  -4  10   27.90    1.73 
  -3   4 -10    4.09    1.04 
  -3   4 -10    5.62    1.25 
   3  -4  10    6.71    0.96 
  -4   4 -10    1.31    0.88 
  -4   4 -10    2.39    1.02 
  -4   4 -10    1.48    1.11 
   4  -4  10    1.97    0.83 
   4  -4  10   -0.64    0.96 
  -5   4 -10    4.74    0.94 
  -5   4 -10    5.09    1.25 
  -5   4 -10    5.83    1.16 
   5  -4  10    1.50    1.00 
   5  -4  10    8.12    1.05 
  -6   4 -10   10.69    1.36 
  -6   4 -10    9.91    1.38 
   6  -4  10    9.66    1.41 
   6  -4  10   13.60    1.56 
  -7   4 -10   25.75    2.32 
  -7   4 -10   32.86    1.93 
   7  -4  10   29.01    2.23 
  -8   4 -10    2.97    1.32 
  -8   4 -10    2.98    0.94 
   8  -4  10    2.57    1.11 
   8  -4  10    2.97    1.21 
  -9   4 -10    1.90    1.32 
   9  -4  10    1.88    1.21 
   9  -4  10    2.78    1.25 
 -10   4 -10   24.71    1.44 
  10  -4  10   23.81    2.39 
  10  -4  10   18.02    1.79 
  11  -4  10   27.09    2.74 
  11  -4  10   34.82    2.71 
 -12   4 -10   85.95    4.14 
  12  -4  10   76.99    3.79 
   5   3 -10   45.28    3.82 
  -5  -3  10   49.09    2.03 
   4   3 -10   64.87    3.94 
  -4  -3  10   60.74    2.76 
  -4  -3  10   66.45    2.19 
   3   3 -10   93.92    4.23 
  -3  -3  10   92.46    3.18 
  -3  -3  10   91.02    2.69 
   2   3 -10   95.07    4.10 
  -2  -3  10   91.45    3.16 
  -2  -3  10  110.92    5.88 
  -2  -3  10   90.95    2.64 
   1   3 -10   87.36    3.70 
   1   3 -10   69.60    3.12 
  -1  -3  10   83.68    2.82 
  -1  -3  10   84.68    3.69 
   0   3 -10   46.39    2.81 
   0   3 -10   42.52    2.15 
   0  -3  10   43.22    2.77 
   0  -3  10   46.75    2.05 
  -1   3 -10   13.95    1.54 
  -1   3 -10   11.58    1.45 
   1  -3  10   15.66    1.47 
  -2   3 -10   10.01    1.34 
  -2   3 -10   12.30    1.53 
   2  -3  10    9.04    0.99 
  -3   3 -10   -0.82    0.84 
  -3   3 -10   -1.25    0.93 
   3  -3  10    0.04    0.71 
  -4   3 -10    0.31    0.95 
  -4   3 -10    0.41    0.86 
   4  -3  10   -0.20    0.69 
  -5   3 -10    2.23    0.96 
  -5   3 -10    2.35    1.08 
   5  -3  10    1.40    0.80 
  -6   3 -10    2.40    1.04 
  -6   3 -10    3.71    1.11 
  -7   3 -10    0.60    1.09 
  -7   3 -10    2.08    0.91 
   7  -3  10    2.90    0.94 
  -8   3 -10   61.72    2.31 
  -8   3 -10   56.10    2.97 
   8  -3  10   59.30    2.76 
  -9   3 -10   95.29    3.76 
  -9   3 -10   97.71    3.01 
   9  -3  10   95.73    3.64 
 -10   3 -10  113.46    3.27 
 -10   3 -10  112.99    4.33 
  10  -3  10  108.53    4.15 
  10  -3  10  113.99    4.17 
  11  -3  10   82.20    3.69 
  11  -3  10   89.28    3.64 
 -12   3 -10  107.84    4.46 
  12  -3  10  112.02    4.81 
  12  -3  10  105.61    4.20 
 -13   3 -10   73.06    4.09 
  13  -3  10   61.38    3.60 
   6   2 -10   54.01    4.05 
  -6  -2  10   56.45    3.65 
   5   2 -10   64.11    3.94 
  -5  -2  10   68.60    2.35 
  -5  -2  10   71.31    3.24 
   4   2 -10   68.21    3.70 
  -4  -2  10   69.00    3.02 
  -4  -2  10   62.23    2.13 
   3   2 -10   32.45    2.82 
  -3  -2  10   33.29    2.81 
  -3  -2  10   34.70    2.29 
  -3  -2  10   33.14    1.51 
   2   2 -10   18.63    1.97 
   2   2 -10   18.47    2.45 
  -2  -2  10   20.77    2.45 
  -2  -2  10   19.20    1.89 
   1   2 -10    2.81    1.16 
  -1  -2  10    2.37    1.16 
  -1  -2  10    3.35    0.92 
   0   2 -10    1.22    1.02 
   0   2 -10    2.31    0.80 
   0  -2  10    1.20    0.80 
   0  -2  10    0.96    1.04 
  -1   2 -10    1.20    0.79 
  -1   2 -10    0.76    1.03 
   1  -2  10    0.88    0.73 
   1  -2  10    0.78    0.96 
  -2   2 -10   44.64    2.08 
  -2   2 -10   42.34    2.43 
   2  -2  10   40.24    1.89 
  -3   2 -10    0.54    0.89 
  -3   2 -10    0.63    0.84 
  -3   2 -10    0.41    0.75 
   3  -2  10    0.41    0.70 
  -4   2 -10    0.74    0.83 
  -4   2 -10    0.84    0.71 
  -4   2 -10    1.42    0.88 
   4  -2  10    1.52    0.72 
  -5   2 -10   18.87    1.56 
  -5   2 -10   20.48    1.86 
  -5   2 -10   22.12    1.93 
   5  -2  10   19.52    2.55 
   5  -2  10   19.71    1.56 
  -6   2 -10   63.68    2.44 
  -6   2 -10   62.68    2.77 
   6  -2  10   61.14    2.45 
   6  -2  10   58.89    2.74 
  -7   2 -10  112.17    3.92 
  -7   2 -10  116.86    3.48 
   7  -2  10  109.21    3.61 
   7  -2  10  111.11    4.36 
  -8   2 -10  196.60    5.98 
  -8   2 -10  207.02    5.46 
   8  -2  10  203.14    5.76 
  -9   2 -10   98.71    3.03 
  -9   2 -10   96.60    3.79 
   9  -2  10   94.82    3.52 
 -10   2 -10   57.62    2.13 
 -10   2 -10   53.23    2.97 
  10  -2  10   61.65    2.85 
  11  -2  10   36.19    2.63 
  11  -2  10   36.24    2.56 
 -12   2 -10    6.77    1.59 
  12  -2  10    4.89    1.39 
  12  -2  10    6.83    1.42 
 -13   2 -10    0.84    1.61 
  13  -2  10    2.12    1.35 
   6   1 -10   28.77    3.33 
   6   1 -10   28.60    2.07 
  -6  -1  10   26.11    2.97 
  -6  -1  10   32.70    1.72 
   5   1 -10   14.11    1.46 
   5   1 -10   11.15    1.78 
  -5  -1  10    8.20    1.70 
  -5  -1  10   14.63    1.31 
  -5  -1  10    9.13    1.59 
   4   1 -10    3.79    0.84 
   4   1 -10    3.59    1.37 
  -4  -1  10    5.06    1.40 
  -4  -1  10    3.78    1.26 
   3   1 -10    3.67    1.14 
   3   1 -10    2.16    0.80 
   3   1 -10    3.16    1.25 
  -3  -1  10    1.84    1.28 
  -3  -1  10    3.35    1.14 
   2   1 -10    1.34    1.16 
  -2  -1  10    2.79    1.16 
  -2  -1  10    4.34    1.03 
   1   1 -10   32.67    2.32 
  -1  -1  10   32.56    2.02 
  -1  -1  10   28.37    2.34 
   0   1 -10   16.44    1.55 
   0   1 -10   17.53    1.98 
   0  -1  10   14.94    2.00 
   0  -1  10   14.72    1.61 
  -1   1 -10    1.91    0.78 
  -1   1 -10    1.65    0.94 
  -1   1 -10    1.87    0.98 
   1  -1  10    1.08    0.98 
   1  -1  10    1.78    0.74 
  -2   1 -10    0.84    0.75 
  -2   1 -10    0.24    0.68 
   2  -1  10    0.11    0.82 
   2  -1  10    0.54    0.68 
  -3   1 -10   35.01    2.50 
  -3   1 -10   37.85    1.82 
  -3   1 -10   35.34    2.03 
   3  -1  10   36.04    2.15 
   3  -1  10   40.19    1.85 
  -4   1 -10   71.94    3.29 
  -4   1 -10   75.55    2.92 
  -4   1 -10   79.46    2.67 
   4  -1  10   78.30    2.69 
  -5   1 -10  136.17    4.13 
  -5   1 -10  141.48    4.33 
  -5   1 -10  137.66    4.02 
   5  -1  10  142.52    4.13 
   5  -1  10  142.22    5.40 
  -6   1 -10  206.71    5.86 
  -6   1 -10  202.74    5.57 
   6  -1  10  201.86    5.86 
   6  -1  10  203.48    5.63 
  -7   1 -10  153.52    4.79 
  -7   1 -10  158.69    4.42 
   7  -1  10  152.63    4.76 
  -8   1 -10   73.25    2.55 
  -8   1 -10   69.92    3.04 
   8  -1  10   72.56    2.99 
   8  -1  10   70.06    2.76 
  -9   1 -10   46.92    1.98 
  -9   1 -10   43.05    2.61 
   9  -1  10   48.86    2.34 
 -10   1 -10   12.12    1.32 
 -10   1 -10    8.58    1.37 
  10  -1  10    9.91    1.30 
 -11   1 -10    2.23    1.53 
  11  -1  10    1.10    1.03 
 -12   1 -10    9.10    1.60 
  12  -1  10   11.03    1.45 
  12  -1  10    7.82    1.43 
 -13   1 -10    6.03    1.61 
  13  -1  10    8.51    1.48 
 -14   1 -10   14.31    1.96 
  14  -1  10   11.80    1.71 
   7   0 -10    7.24    1.87 
   7   0 -10    6.59    1.14 
  -7   0  10    8.98    1.63 
  -7   0  10    8.05    1.05 
  -7   0  10    4.82    1.76 
   6   0 -10    0.25    0.89 
   6   0 -10   -1.02    1.48 
  -6   0  10   -0.37    1.52 
  -6   0  10    1.10    0.82 
  -6   0  10   -0.29    1.38 
  -6   0  10   -1.30    1.42 
   5   0 -10    3.13    1.36 
   5   0 -10    0.37    0.79 
  -5   0  10   -2.50    1.33 
  -5   0  10    0.82    1.34 
  -5   0  10    1.72    1.21 
  -5   0  10    0.17    0.73 
   4   0 -10    7.67    1.40 
   4   0 -10   10.19    1.48 
  -4   0  10    9.10    1.40 
  -4   0  10    8.30    1.47 
  -4   0  10    8.61    1.40 
   3   0 -10   24.46    2.31 
   3   0 -10   25.69    1.51 
  -3   0  10   26.48    2.22 
  -3   0  10   28.17    2.38 
  -3   0  10   22.01    2.01 
   2   0 -10   14.33    1.95 
   2   0 -10   17.44    1.32 
  -2   0  10   12.70    1.41 
  -2   0  10   17.60    1.88 
   1   0 -10    6.02    0.81 
  -1   0  10    5.85    1.02 
  -1   0  10    5.12    1.08 
   0   0 -10   10.40    1.21 
   0   0 -10   10.48    1.14 
   0   0 -10   12.57    1.47 
   0   0  10    9.47    1.11 
   0   0  10   10.47    1.19 
  -1   0 -10   25.54    1.69 
  -1   0 -10   26.47    1.89 
  -1   0 -10   23.95    1.65 
   1   0  10   22.19    1.71 
   1   0  10   25.17    1.90 
  -2   0 -10   66.36    2.49 
  -2   0 -10   67.88    2.74 
  -2   0 -10   70.72    2.63 
   2   0  10   72.23    2.57 
   2   0  10   71.52    2.80 
  -3   0 -10  185.53    5.28 
  -3   0 -10  184.79    5.30 
  -3   0 -10  182.40    5.04 
   3   0  10  181.89    5.35 
   3   0  10  185.41    5.09 
  -4   0 -10  136.02    4.14 
  -4   0 -10  131.03    4.09 
  -4   0 -10  129.59    3.80 
   4   0  10  127.97    4.09 
   4   0  10  133.03    3.92 
  -5   0 -10  153.14    4.25 
  -5   0 -10  152.48    4.58 
  -5   0 -10  150.74    4.39 
   5   0  10  155.30    4.42 
   5   0  10  149.22    4.57 
  -6   0 -10  100.71    3.11 
  -6   0 -10   94.57    3.37 
  -6   0 -10   95.95    2.99 
   6   0  10   96.89    3.20 
   6   0  10   96.38    3.38 
  -7   0 -10   25.71    1.98 
  -7   0 -10   25.50    1.61 
   7   0  10   24.28    1.89 
   7   0  10   26.65    1.81 
  -8   0 -10    0.38    0.92 
  -8   0 -10    1.87    0.82 
   8   0  10    2.53    0.83 
   8   0  10    1.84    0.90 
  -9   0 -10    2.36    1.04 
  -9   0 -10    2.69    0.83 
   9   0  10    1.48    0.87 
   9   0  10    2.23    0.95 
 -10   0 -10    9.50    1.35 
  10   0  10    9.55    1.24 
 -12   0 -10    4.29    2.17 
  12   0  10    4.85    1.29 
  12   0  10    5.12    1.25 
 -13   0 -10   -0.33    1.35 
  13   0  10    1.03    1.22 
 -14   0 -10    3.09    1.58 
  14   0  10    4.83    1.47 
   7  -1 -10    2.49    1.03 
   7  -1 -10    4.70    1.64 
  -7   1  10    5.52    1.81 
  -7   1  10    3.36    1.57 
  -7   1  10    2.58    1.51 
   6  -1 -10    1.49    1.40 
   6  -1 -10    1.85    0.88 
  -6   1  10    2.56    1.31 
  -6   1  10   -0.94    1.44 
  -6   1  10    0.02    1.42 
   5  -1 -10    1.25    0.81 
   5  -1 -10    0.20    1.22 
  -5   1  10   -2.35    1.19 
  -5   1  10    0.55    1.11 
  -5   1  10    0.36    0.68 
  -5   1  10   -2.80    1.18 
   4  -1 -10    9.15    1.02 
   4  -1 -10    7.66    1.30 
  -4   1  10    8.15    2.21 
  -4   1  10    9.57    1.33 
  -4   1  10    9.10    1.37 
   3  -1 -10   -0.03    0.78 
   3  -1 -10    0.38    1.17 
  -3   1  10    0.69    0.93 
  -3   1  10   -0.88    0.97 
  -3   1  10    0.08    1.03 
   2  -1 -10   25.07    2.03 
   2  -1 -10   25.54    1.50 
  -2   1  10   29.04    2.11 
  -2   1  10   25.15    1.84 
  -2   1  10   23.86    2.02 
   1  -1 -10   79.18    3.04 
   1  -1 -10   77.14    2.53 
   1  -1 -10   74.76    3.83 
  -1   1  10   78.47    2.89 
  -1   1  10   82.88    3.00 
  -1   1  10   75.96    3.01 
   0  -1 -10  174.91    4.99 
   0  -1 -10  174.74    4.71 
   0  -1 -10  175.24    5.10 
   0  -1 -10  175.04    4.98 
   0   1  10  174.79    5.15 
   0   1  10  178.27    5.08 
  -1  -1 -10  185.08    5.27 
  -1  -1 -10  182.62    5.10 
  -1  -1 -10  179.09    4.91 
  -1  -1 -10  183.75    5.19 
   1   1  10  183.88    5.33 
   1   1  10  192.36    5.26 
  -2  -1 -10  179.53    4.94 
  -2  -1 -10  180.43    5.14 
  -2  -1 -10  179.52    5.08 
   2   1  10  178.93    5.11 
   2   1  10  181.89    5.22 
  -3  -1 -10  160.54    4.48 
  -3  -1 -10  158.34    4.75 
  -3  -1 -10  160.93    4.70 
   3   1  10  163.64    4.77 
   3   1  10  166.81    4.64 
  -4  -1 -10  101.49    3.35 
  -4  -1 -10   94.89    3.13 
  -4  -1 -10   93.47    2.94 
   4   1  10   97.68    3.13 
   4   1  10   97.86    3.29 
  -5  -1 -10   47.54    2.08 
  -5  -1 -10   50.33    2.07 
  -5  -1 -10   49.21    2.27 
   5   1  10   50.64    2.26 
   5   1  10   50.10    2.09 
  -6  -1 -10    1.34    0.77 
  -6  -1 -10   -0.13    0.71 
   6   1  10    0.60    0.69 
   6   1  10   -1.42    0.64 
  -7  -1 -10   -0.07    0.83 
  -7  -1 -10   -0.21    0.72 
   7   1  10   -0.31    0.76 
   7   1  10   -1.09    0.64 
  -8  -1 -10    1.65    1.29 
  -8  -1 -10    1.81    0.83 
   8   1  10    2.11    0.79 
   8   1  10    1.22    0.85 
  -9  -1 -10    8.69    1.02 
   9   1  10    6.75    1.04 
   9   1  10    8.60    1.14 
 -10  -1 -10    0.53    0.81 
  10   1  10   -0.30    0.82 
 -11  -1 -10   -1.11    1.11 
 -11  -1 -10    0.49    1.08 
  11   1  10    1.93    1.01 
  11   1  10    0.35    0.93 
 -12  -1 -10   26.94    2.28 
  12   1  10   25.84    2.42 
  12   1  10   29.39    2.20 
 -13  -1 -10   38.90    2.61 
  13   1  10   43.23    2.54 
  14   1  10   60.26    3.06 
   7  -2 -10    1.23    1.50 
   7  -2 -10    1.72    1.02 
  -7   2  10    2.74    1.46 
  -7   2  10    2.17    1.62 
  -7   2  10    0.99    1.39 
   6  -2 -10   -0.22    1.22 
   6  -2 -10    0.40    0.89 
  -6   2  10    1.78    1.40 
  -6   2  10    0.55    1.28 
  -6   2  10   -1.55    1.26 
   5  -2 -10   13.30    1.75 
   5  -2 -10   12.23    1.51 
  -5   2  10   14.45    1.50 
  -5   2  10   13.86    1.69 
  -5   2  10   14.74    1.55 
   4  -2 -10   58.75    2.79 
   4  -2 -10   57.76    2.30 
  -4   2  10   56.75    2.75 
  -4   2  10   59.88    3.02 
  -4   2  10   62.21    2.82 
   3  -2 -10  107.81    3.34 
   3  -2 -10  111.21    3.75 
  -3   2  10  105.78    3.69 
  -3   2  10  109.85    3.70 
  -3   2  10  111.31    3.87 
   2  -2 -10  146.26    4.28 
   2  -2 -10  154.05    4.63 
  -2   2  10  158.48    4.75 
  -2   2  10  153.27    4.55 
  -2   2  10  150.94    4.62 
   1  -2 -10  284.40    7.44 
   1  -2 -10  268.42    7.37 
   1  -2 -10  284.18    7.43 
  -1   2  10  280.35    7.51 
  -1   2  10  278.34    7.46 
  -1   2  10  274.61    7.33 
   0  -2 -10  225.45    6.20 
   0  -2 -10  225.74    5.93 
   0  -2 -10  229.36    6.22 
   0  -2 -10  225.64    6.14 
   0   2  10  233.85    6.28 
   0   2  10  229.85    6.29 
   0   2  10  222.71    6.06 
  -1  -2 -10  227.90    6.13 
  -1  -2 -10  216.96    6.07 
  -1  -2 -10  224.18    5.99 
  -1  -2 -10  222.34    5.85 
   1   2  10  225.75    6.17 
   1   2  10  228.93    6.19 
  -2  -2 -10  113.68    3.59 
  -2  -2 -10  114.31    3.40 
  -2  -2 -10  113.73    3.59 
  -2  -2 -10  115.43    3.60 
  -2  -2 -10  116.22    3.35 
   2   2  10  117.28    3.67 
   2   2  10  116.58    3.66 
  -3  -2 -10   44.68    2.02 
  -3  -2 -10   47.20    2.18 
   3   2  10   47.49    2.11 
   3   2  10   47.19    2.12 
  -4  -2 -10    1.42    0.75 
  -4  -2 -10    1.43    0.70 
  -4  -2 -10    1.68    0.58 
   4   2  10    1.82    0.70 
   4   2  10    1.11    0.71 
  -5  -2 -10    3.87    0.84 
  -5  -2 -10    4.59    0.66 
  -5  -2 -10    4.05    0.87 
   5   2  10    3.44    0.81 
   5   2  10    4.64    0.80 
  -6  -2 -10   15.94    1.12 
  -6  -2 -10   15.60    1.39 
  -6  -2 -10   13.73    1.56 
   6   2  10   14.59    1.51 
   6   2  10   15.56    1.45 
  -7  -2 -10   -0.66    0.80 
  -7  -2 -10    0.87    0.76 
  -7  -2 -10   -0.45    0.51 
   7   2  10   -0.61    0.67 
   7   2  10   -0.96    0.70 
  -8  -2 -10    3.46    0.85 
   8   2  10    2.11    0.89 
  -9  -2 -10   34.37    1.85 
   9   2  10   30.00    1.96 
   9   2  10   31.70    2.12 
 -10  -2 -10   48.06    2.16 
  10   2  10   47.59    2.39 
 -11  -2 -10   99.46    3.34 
 -11  -2 -10   97.60    3.92 
  11   2  10  101.13    3.42 
 -12  -2 -10  121.46    3.84 
 -12  -2 -10  130.62    6.41 
  12   2  10  118.12    4.29 
  12   2  10  114.98    4.40 
 -13  -2 -10  144.47    4.43 
  13   2  10  141.88    4.57 
 -14  -2 -10  125.02    4.21 
  14   2  10  131.80    4.32 
   8  -3 -10   -0.71    1.37 
   8  -3 -10   -0.03    1.04 
  -8   3  10    1.71    1.87 
  -8   3  10    3.49    1.63 
  -8   3  10    2.65    1.77 
   7  -3 -10    2.36    1.06 
   7  -3 -10    1.47    1.46 
  -7   3  10    4.85    1.63 
  -7   3  10    3.69    1.19 
  -7   3  10    5.92    1.56 
   6  -3 -10   54.60    2.41 
   6  -3 -10   48.62    2.77 
  -6   3  10   47.29    2.95 
  -6   3  10   51.11    3.12 
  -6   3  10   45.17    2.69 
   5  -3 -10   26.44    2.27 
   5  -3 -10   27.09    1.79 
  -5   3  10   25.26    2.28 
  -5   3  10   27.85    2.51 
  -5   3  10   27.48    2.14 
   4  -3 -10   81.48    2.85 
   4  -3 -10   84.80    3.19 
  -4   3  10   85.99    3.51 
  -4   3  10   81.63    3.09 
  -4   3  10   86.40    3.31 
   3  -3 -10  151.76    4.50 
   3  -3 -10  145.70    4.26 
  -3   3  10  143.70    5.23 
  -3   3  10  154.10    4.51 
  -3   3  10  147.58    4.56 
   2  -3 -10  104.43    3.23 
   2  -3 -10  101.28    3.51 
   2  -3 -10  106.10    3.45 
  -2   3  10  105.71    3.71 
  -2   3  10  103.45    3.74 
  -2   3  10  106.34    3.45 
   1  -3 -10   85.98    2.85 
   1  -3 -10   91.83    3.05 
   1  -3 -10   88.05    3.09 
  -1   3  10   92.69    3.29 
  -1   3  10   90.77    3.11 
  -1   3  10   91.03    3.04 
   0  -3 -10   12.61    1.51 
   0  -3 -10   14.31    1.39 
   0  -3 -10   13.13    1.47 
   0   3  10   16.61    1.49 
   0   3  10   13.34    1.63 
   0   3  10   15.75    1.36 
  -1  -3 -10    1.60    0.82 
  -1  -3 -10    1.22    0.70 
  -1  -3 -10    0.35    0.60 
  -1  -3 -10    0.01    0.67 
   1   3  10    0.58    0.78 
   1   3  10    0.12    0.67 
   1   3  10   -0.02    0.59 
  -2  -3 -10    2.71    0.68 
  -2  -3 -10    3.34    0.78 
  -2  -3 -10    2.96    0.81 
   2   3  10    3.30    0.86 
   2   3  10    2.79    0.76 
  -3  -3 -10    7.89    0.80 
  -3  -3 -10    6.47    0.90 
  -3  -3 -10    6.15    0.91 
   3   3  10    7.22    0.92 
   3   3  10    5.26    0.84 
  -4  -3 -10   33.09    1.02 
  -4  -3 -10   33.71    1.46 
  -4  -3 -10   31.70    1.84 
  -4  -3 -10   31.85    1.68 
   4   3  10   30.94    1.74 
   4   3  10   31.26    1.76 
  -5  -3 -10   30.98    1.37 
  -5  -3 -10   31.56    1.67 
  -5  -3 -10   32.08    1.86 
   5   3  10   31.69    1.70 
   5   3  10   28.38    1.74 
  -6  -3 -10    3.96    0.86 
  -6  -3 -10    4.58    0.89 
   6   3  10    4.99    0.83 
   6   3  10    4.12    0.83 
  -7  -3 -10    3.14    0.70 
  -7  -3 -10    2.94    0.85 
  -7  -3 -10    2.36    0.83 
   7   3  10    2.57    0.82 
   7   3  10    4.44    0.91 
  -8  -3 -10   29.00    2.09 
  -8  -3 -10   31.50    1.80 
  -8  -3 -10   31.13    1.37 
   8   3  10   28.69    2.17 
   8   3  10   31.46    2.02 
  -9  -3 -10  174.38    5.37 
  -9  -3 -10  182.68    5.09 
   9   3  10  178.95    5.17 
   9   3  10  177.47    5.31 
   9   3  10  176.56    5.03 
 -10  -3 -10   32.89    1.85 
  10   3  10   36.58    2.13 
  10   3  10   35.81    1.91 
 -11  -3 -10  122.27    3.63 
  11   3  10  125.43    4.16 
  11   3  10  122.51    3.88 
  11   3  10  125.90    3.88 
 -12  -3 -10   77.28    3.68 
 -12  -3 -10   79.19    2.77 
  12   3  10   83.07    3.03 
  12   3  10   77.79    2.94 
 -13  -3 -10   27.63    1.99 
  13   3  10   31.61    2.10 
  13   3  10   34.93    2.14 
 -14  -3 -10   12.32    1.28 
  14   3  10   14.61    2.00 
  14   3  10   13.46    1.50 
   8  -4 -10   20.74    2.32 
   8  -4 -10   26.51    2.10 
  -8   4  10   29.52    2.86 
  -8   4  10   24.81    3.46 
   7  -4 -10   39.00    2.28 
   7  -4 -10   33.16    2.48 
  -7   4  10   39.85    3.24 
  -7   4  10   37.29    2.26 
  -7   4  10   41.70    2.95 
  -7   4  10   39.13    2.84 
   6  -4 -10  120.31    4.14 
   6  -4 -10  131.02    4.10 
  -6   4  10  129.79    4.54 
  -6   4  10  139.02    4.74 
  -6   4  10  124.04    4.10 
   5  -4 -10   51.98    2.36 
   5  -4 -10   54.98    2.56 
  -5   4  10   55.82    2.47 
  -5   4  10   52.88    2.78 
  -5   4  10   60.82    3.02 
   4  -4 -10   88.27    3.09 
   4  -4 -10   84.40    3.02 
  -4   4  10   86.08    3.31 
  -4   4  10   86.87    3.46 
   3  -4 -10   49.17    2.10 
   3  -4 -10   50.47    2.98 
   3  -4 -10   53.97    2.28 
  -3   4  10   46.20    3.05 
  -3   4  10   50.27    2.41 
  -3   4  10   49.08    2.51 
   2  -4 -10    6.57    1.10 
   2  -4 -10    3.92    0.80 
   2  -4 -10    5.21    0.89 
  -2   4  10    4.32    1.14 
  -2   4  10    5.41    0.91 
  -2   4  10    6.10    1.18 
   1  -4 -10   -0.82    0.60 
   1  -4 -10    1.15    0.91 
   1  -4 -10    0.19    0.72 
  -1   4  10    0.74    0.76 
  -1   4  10    0.36    0.72 
  -1   4  10    0.35    0.85 
   0  -4 -10   14.73    1.50 
   0  -4 -10   13.88    1.20 
   0  -4 -10   12.07    1.50 
   0  -4 -10   14.75    1.41 
   0   4  10   13.64    1.41 
   0   4  10   13.26    1.67 
   0   4  10   14.67    1.33 
  -1  -4 -10    9.97    1.08 
  -1  -4 -10   10.49    1.36 
  -1  -4 -10    9.49    1.26 
  -1  -4 -10    9.33    1.01 
   1   4  10    9.92    1.15 
   1   4  10   10.34    1.12 
   1   4  10    9.75    1.15 
  -2  -4 -10    3.63    0.67 
  -2  -4 -10    3.02    0.77 
  -2  -4 -10    2.07    0.72 
   2   4  10    3.01    0.62 
   2   4  10    4.07    0.84 
   2   4  10    2.37    1.29 
  -3  -4 -10    0.07    0.60 
  -3  -4 -10   -0.89    0.63 
  -3  -4 -10   -0.43    0.62 
  -3  -4 -10    0.31    0.52 
   3   4  10    0.40    0.64 
   3   4  10    0.16    0.67 
  -4  -4 -10   13.95    0.74 
  -4  -4 -10   14.46    1.25 
  -4  -4 -10   13.34    1.44 
  -4  -4 -10   12.75    1.31 
   4   4  10   14.63    1.44 
   4   4  10   15.46    1.41 
  -5  -4 -10    6.00    0.90 
  -5  -4 -10    7.25    0.69 
  -5  -4 -10    9.05    1.03 
   5   4  10    5.70    0.86 
   5   4  10    6.09    0.85 
  -6  -4 -10  128.94    3.43 
  -6  -4 -10  125.69    3.97 
  -6  -4 -10  129.00    3.88 
   6   4  10  124.94    3.92 
   6   4  10  126.64    3.86 
  -7  -4 -10  240.65    6.39 
  -7  -4 -10  226.64    6.47 
  -7  -4 -10  240.36    5.88 
   7   4  10  236.64    6.36 
   7   4  10  228.92    6.31 
  -8  -4 -10  147.43    3.81 
  -8  -4 -10  145.80    4.56 
  -8  -4 -10  148.55    4.40 
   8   4  10  144.60    4.31 
   8   4  10  144.90    4.44 
  -9  -4 -10   90.23    2.49 
  -9  -4 -10   88.51    3.11 
  -9  -4 -10   85.53    3.39 
   9   4  10   89.82    3.06 
   9   4  10   89.71    3.14 
 -10  -4 -10   47.31    1.61 
 -10  -4 -10   48.41    1.79 
  10   4  10   47.59    2.25 
  10   4  10   49.22    2.40 
 -11  -4 -10   84.87    2.62 
  11   4  10   90.50    3.19 
  11   4  10   90.09    3.36 
 -12  -4 -10    5.38    1.44 
  12   4  10    4.56    0.97 
  12   4  10    3.51    1.14 
  13   4  10   -0.06    0.94 
  13   4  10    0.07    1.14 
  14   4  10   12.75    1.78 
   8  -5 -10   56.29    2.77 
  -8   5  10   55.18    3.47 
  -8   5  10   58.96    3.96 
   7  -5 -10   47.34    2.47 
  -7   5  10   45.30    3.18 
  -7   5  10   49.09    2.95 
  -7   5  10   48.32    3.41 
   6  -5 -10   52.03    2.42 
   6  -5 -10   43.96    2.34 
  -6   5  10   49.76    3.17 
  -6   5  10   47.06    2.80 
  -6   5  10   49.89    2.23 
  -6   5  10   48.24    2.94 
   5  -5 -10    6.06    1.02 
   5  -5 -10    6.80    1.05 
   5  -5 -10    3.46    1.27 
  -5   5  10    6.48    1.43 
  -5   5  10    8.25    0.99 
  -5   5  10    6.26    1.36 
   4  -5 -10    5.14    0.95 
   4  -5 -10    7.01    1.36 
  -4   5  10    9.06    1.33 
  -4   5  10    5.09    1.16 
  -4   5  10    4.35    0.89 
   3  -5 -10   -0.28    0.75 
   3  -5 -10    0.24    1.18 
   3  -5 -10   -0.87    0.92 
  -3   5  10    1.31    1.02 
  -3   5  10   -0.28    0.90 
  -3   5  10   -0.21    0.71 
   2  -5 -10   13.59    1.70 
   2  -5 -10   10.26    1.28 
   2  -5 -10   10.57    1.17 
  -2   5  10   14.04    1.58 
  -2   5  10   12.09    1.62 
  -2   5  10   11.38    1.37 
   1  -5 -10   34.35    1.92 
   1  -5 -10   31.74    1.66 
   1  -5 -10   37.00    1.98 
  -1   5  10   33.76    1.75 
  -1   5  10   32.53    1.81 
  -1   5  10   32.70    2.11 
   0  -5 -10   48.01    2.21 
   0  -5 -10   50.43    2.10 
   0  -5 -10   47.57    1.96 
   0   5  10   49.08    2.01 
   0   5  10   49.33    2.35 
   0   5  10   48.66    2.06 
  -1  -5 -10    7.81    0.98 
  -1  -5 -10    6.24    0.82 
  -1  -5 -10    7.78    0.98 
  -1  -5 -10    7.50    1.04 
   1   5  10    4.57    0.98 
   1   5  10    6.38    0.86 
   1   5  10    6.15    0.75 
  -2  -5 -10   21.53    1.35 
  -2  -5 -10   18.97    1.31 
  -2  -5 -10   18.45    1.44 
  -2  -5 -10   20.93    1.54 
   2   5  10   20.40    1.65 
   2   5  10   20.08    1.46 
   2   5  10   20.05    1.22 
  -3  -5 -10   87.20    2.63 
  -3  -5 -10   82.79    2.81 
  -3  -5 -10   79.15    2.66 
  -3  -5 -10   84.09    2.87 
  -3  -5 -10   83.03    2.21 
   3   5  10   81.68    2.46 
   3   5  10   85.39    2.98 
   3   5  10   82.90    2.84 
  -4  -5 -10  116.34    3.22 
  -4  -5 -10  109.36    3.53 
  -4  -5 -10  116.90    2.98 
  -4  -5 -10  114.66    3.64 
   4   5  10  110.18    3.59 
   4   5  10  112.95    3.52 
  -5  -5 -10  133.11    4.20 
  -5  -5 -10  137.14    3.60 
  -5  -5 -10  142.62    4.15 
  -5  -5 -10  145.10    3.72 
   5   5  10  135.80    4.08 
   5   5  10  136.41    4.10 
   5   5  10  135.61    4.11 
  -6  -5 -10  306.87    8.27 
  -6  -5 -10  316.46    8.22 
  -6  -5 -10  317.50    7.69 
   6   5  10  315.23    8.16 
   6   5  10  312.81    8.18 
  -7  -5 -10  193.99    5.46 
  -7  -5 -10  188.20    5.50 
  -7  -5 -10  193.44    4.83 
   7   5  10  193.67    5.38 
   7   5  10  189.53    5.38 
  -8  -5 -10  113.99    3.67 
  -8  -5 -10  109.59    3.75 
   8   5  10  112.92    3.58 
   8   5  10  105.96    3.56 
  -9  -5 -10   44.33    2.24 
  -9  -5 -10   44.76    2.45 
   9   5  10   44.04    2.12 
   9   5  10   42.28    2.15 
  10   5  10    5.16    1.08 
  10   5  10    7.53    1.12 
 -11  -5 -10   -0.32    1.10 
  11   5  10    1.63    0.94 
  11   5  10    1.48    1.00 
 -12  -5 -10    6.14    1.52 
  12   5  10    8.57    2.14 
  12   5  10    7.87    1.05 
  13   5  10   14.33    1.60 
  14   5  10    5.19    1.41 
   8  -6 -10   24.07    2.22 
   8  -6 -10   23.35    2.45 
  -8   6  10   27.48    3.42 
  -8   6  10   25.00    2.93 
   7  -6 -10    5.59    1.69 
   7  -6 -10    6.73    1.21 
  -7   6  10    5.21    1.73 
  -7   6  10    6.69    1.63 
   6  -6 -10    0.43    1.38 
   6  -6 -10    0.49    0.91 
  -6   6  10    1.63    1.35 
  -6   6  10    0.38    1.25 
  -6   6  10    0.69    0.70 
  -6   6  10   -0.27    1.35 
   5  -6 -10    5.20    1.30 
   5  -6 -10    4.00    0.96 
   5  -6 -10    6.68    1.42 
  -5   6  10    1.47    1.26 
  -5   6  10    3.06    1.20 
  -5   6  10    4.27    1.24 
   4  -6 -10    9.38    1.41 
   4  -6 -10    6.63    1.03 
  -4   6  10    7.22    1.20 
  -4   6  10    5.85    1.28 
   3  -6 -10   26.11    2.02 
   3  -6 -10   24.74    1.69 
  -3   6  10   25.77    2.12 
  -3   6  10   23.30    1.66 
  -3   6  10   29.07    2.00 
   2  -6 -10   15.63    1.62 
   2  -6 -10   10.09    1.05 
   2  -6 -10   13.50    1.68 
  -2   6  10   14.21    1.30 
  -2   6  10   12.32    1.59 
  -2   6  10   11.56    1.38 
   1  -6 -10    2.74    0.88 
   1  -6 -10    2.27    0.73 
   1  -6 -10    2.12    0.87 
  -1   6  10    3.13    0.83 
  -1   6  10    2.10    0.92 
  -1   6  10    3.07    0.70 
   0  -6 -10    6.91    0.90 
   0  -6 -10    6.34    0.83 
   0  -6 -10    5.81    1.00 
   0   6  10    6.40    1.03 
   0   6  10    7.06    0.87 
   0   6  10    6.27    0.83 
  -1  -6 -10   29.96    1.56 
  -1  -6 -10   34.24    1.85 
  -1  -6 -10   31.76    1.75 
  -1  -6 -10   33.03    1.71 
   1   6  10   31.82    1.66 
   1   6  10   31.78    1.97 
   1   6  10   30.63    1.54 
  -2  -6 -10   52.06    2.22 
  -2  -6 -10   47.97    2.11 
  -2  -6 -10   49.83    1.50 
  -2  -6 -10   47.49    1.96 
  -2  -6 -10   51.09    1.96 
   2   6  10   48.57    2.02 
   2   6  10   48.85    1.79 
   2   6  10   52.22    2.29 
  -3  -6 -10  175.36    5.02 
  -3  -6 -10  187.27    5.17 
  -3  -6 -10  183.59    5.15 
  -3  -6 -10  186.28    4.57 
  -3  -6 -10  179.00    4.95 
   3   6  10  182.64    5.12 
   3   6  10  183.45    5.24 
   3   6  10  179.74    4.69 
  -4  -6 -10  139.64    3.59 
  -4  -6 -10  133.74    3.71 
  -4  -6 -10  139.75    4.12 
  -4  -6 -10  132.24    3.92 
  -4  -6 -10  137.74    4.13 
   4   6  10  137.26    4.10 
   4   6  10  136.45    4.17 
  -5  -6 -10  136.44    3.60 
  -5  -6 -10  135.50    4.10 
  -5  -6 -10  134.24    4.15 
  -5  -6 -10  132.21    3.58 
   5   6  10  134.37    4.07 
   5   6  10  135.21    4.08 
  -6  -6 -10   78.66    2.92 
  -6  -6 -10   81.05    2.90 
  -6  -6 -10   77.49    2.38 
   6   6  10   80.75    2.79 
   6   6  10   78.10    2.84 
  -7  -6 -10    6.19    1.01 
  -7  -6 -10    5.90    1.06 
   7   6  10    7.16    0.92 
   7   6  10    6.19    0.98 
  -8  -6 -10    2.09    0.98 
  -8  -6 -10    0.38    0.88 
   8   6  10    1.78    0.78 
   8   6  10    0.85    0.87 
  -9  -6 -10    3.91    1.04 
   9   6  10    5.66    0.98 
   9   6  10    5.19    1.09 
  10   6  10    8.67    1.28 
  10   6  10    5.72    1.05 
 -11  -6 -10   -2.10    1.20 
  11   6  10    0.08    0.91 
 -12  -6 -10    0.63    1.41 
  12   6  10    0.55    1.11 
  12   6  10    0.69    0.79 
  13   6  10    0.86    1.34 
  13   6  10   -0.76    0.75 
   8  -7 -10   -1.18    1.07 
   8  -7 -10    2.08    1.80 
  -8   7  10   -1.92    1.68 
  -8   7  10    1.10    1.71 
   7  -7 -10   -0.01    1.53 
   7  -7 -10    0.41    1.04 
  -7   7  10   -1.51    1.56 
  -7   7  10    3.49    1.56 
   6  -7 -10    3.78    1.40 
   6  -7 -10    3.33    1.03 
  -6   7  10    5.85    1.39 
  -6   7  10   -0.39    1.33 
  -6   7  10    2.27    1.35 
   5  -7 -10   12.76    1.56 
   5  -7 -10   12.94    1.60 
   5  -7 -10   12.27    1.29 
  -5   7  10   11.62    1.52 
  -5   7  10   10.18    1.59 
  -5   7  10   11.41    1.51 
  -5   7  10    9.78    1.12 
   4  -7 -10   -0.97    0.96 
   4  -7 -10   -0.08    0.77 
   4  -7 -10    0.82    1.14 
  -4   7  10    1.97    1.13 
  -4   7  10    0.67    0.60 
  -4   7  10    0.52    1.08 
   3  -7 -10    3.71    1.07 
   3  -7 -10    3.21    0.82 
  -3   7  10    3.50    1.02 
  -3   7  10    2.77    1.08 
  -3   7  10    1.91    0.64 
   2  -7 -10   49.26    2.38 
   2  -7 -10   50.26    2.32 
   2  -7 -10   47.47    2.16 
  -2   7  10   50.59    2.33 
  -2   7  10   50.26    2.54 
  -2   7  10   47.46    2.02 
   1  -7 -10  103.47    3.43 
   1  -7 -10   98.00    3.25 
   1  -7 -10  103.16    3.44 
  -1   7  10  106.43    3.16 
  -1   7  10  102.62    3.33 
   0  -7 -10  127.29    4.01 
   0  -7 -10  128.77    3.89 
   0  -7 -10  133.94    4.00 
   0   7  10  131.45    3.85 
   0   7  10  136.62    3.81 
   0   7  10  135.54    4.28 
  -1  -7 -10  150.36    4.36 
  -1  -7 -10  151.39    4.39 
  -1  -7 -10  156.74    4.55 
  -1  -7 -10  159.01    4.62 
   1   7  10  153.26    4.24 
   1   7  10  153.21    4.31 
   1   7  10  152.63    4.69 
  -2  -7 -10  202.36    5.56 
  -2  -7 -10  193.88    5.31 
  -2  -7 -10  197.50    4.93 
  -2  -7 -10  195.49    5.50 
  -2  -7 -10  189.37    5.24 
   2   7  10  195.97    5.10 
   2   7  10  195.84    5.61 
   2   7  10  196.38    5.33 
  -3  -7 -10  156.94    4.45 
  -3  -7 -10  157.84    4.31 
  -3  -7 -10  160.92    4.12 
  -3  -7 -10  159.34    4.66 
  -3  -7 -10  163.39    4.68 
   3   7  10  159.18    4.64 
   3   7  10  155.34    4.14 
   3   7  10  159.59    4.73 
  -4  -7 -10   43.45    2.03 
  -4  -7 -10   42.63    2.06 
  -4  -7 -10   39.46    1.85 
  -4  -7 -10   43.38    1.61 
  -4  -7 -10   42.90    1.55 
   4   7  10   43.56    1.44 
   4   7  10   41.32    1.99 
   4   7  10   40.98    2.11 
  -5  -7 -10   24.71    1.22 
  -5  -7 -10   23.63    1.08 
  -5  -7 -10   24.71    1.72 
  -5  -7 -10   22.98    1.65 
   5   7  10   24.58    1.69 
   5   7  10   24.01    1.66 
  -6  -7 -10    0.44    0.84 
  -6  -7 -10   -1.09    0.70 
  -6  -7 -10   -0.74    0.54 
   6   7  10   -0.31    0.77 
   6   7  10    0.33    0.68 
  -7  -7 -10    0.44    0.81 
  -7  -7 -10    1.46    1.06 
  -7  -7 -10    0.58    0.62 
   7   7  10    2.00    0.87 
   7   7  10   -0.57    0.69 
  -8  -7 -10   11.61    1.29 
   8   7  10   12.32    1.59 
   8   7  10   13.96    1.53 
  -9  -7 -10   18.74    1.95 
   9   7  10   16.67    2.32 
   9   7  10   17.74    1.78 
 -10  -7 -10   -0.71    1.80 
  10   7  10   -0.51    0.85 
  11   7  10    8.41    1.23 
  11   7  10   10.12    1.41 
 -12  -7 -10   10.67    1.75 
  12   7  10   15.65    1.36 
  12   7  10   13.85    1.62 
   8  -8 -10    4.14    1.31 
   8  -8 -10    5.80    1.73 
  -8   8  10    2.70    1.83 
   7  -8 -10    3.08    1.47 
   7  -8 -10    2.14    1.12 
  -7   8  10    0.62    1.63 
  -7   8  10    1.96    1.57 
   6  -8 -10   -0.05    0.95 
   6  -8 -10   -0.75    1.22 
  -6   8  10   -0.35    1.32 
  -6   8  10   -1.06    1.40 
   5  -8 -10    4.22    1.24 
   5  -8 -10    5.64    1.24 
   5  -8 -10    3.48    0.99 
  -5   8  10    3.38    1.37 
  -5   8  10    3.09    1.26 
  -5   8  10    3.41    1.25 
   4  -8 -10   24.27    1.97 
   4  -8 -10   19.37    1.76 
  -4   8  10   22.89    2.14 
  -4   8  10   22.05    2.32 
   3  -8 -10   55.72    2.40 
  -3   8  10   54.12    2.80 
  -3   8  10   56.70    2.62 
  -3   8  10   54.01    1.89 
   2  -8 -10  177.35    5.30 
   2  -8 -10  180.50    5.31 
   2  -8 -10  180.53    5.14 
  -2   8  10  180.14    4.73 
  -2   8  10  173.53    5.23 
  -2   8  10  179.16    5.41 
   1  -8 -10  151.21    4.57 
   1  -8 -10  152.15    4.58 
   1  -8 -10  150.33    4.43 
  -1   8  10  151.17    4.43 
  -1   8  10  153.02    4.78 
   0  -8 -10   82.13    2.88 
   0  -8 -10   81.69    2.96 
   0  -8 -10   81.18    2.79 
   0   8  10   71.71    3.48 
   0   8  10   81.17    2.64 
   0   8  10   86.03    2.80 
  -1  -8 -10   63.46    2.42 
  -1  -8 -10   64.14    2.42 
  -1  -8 -10   66.58    2.59 
   1   8  10   67.16    2.35 
   1   8  10   65.29    2.77 
   1   8  10   66.88    2.29 
  -2  -8 -10   88.62    2.94 
  -2  -8 -10   91.39    3.15 
  -2  -8 -10   91.35    3.17 
  -2  -8 -10   89.21    2.83 
  -2  -8 -10   93.67    2.61 
   2   8  10   89.12    3.11 
   2   8  10   89.98    3.25 
   2   8  10   88.44    2.71 
  -3  -8 -10    1.98    0.72 
  -3  -8 -10    0.23    0.82 
  -3  -8 -10    1.19    0.58 
  -3  -8 -10    1.30    0.53 
  -3  -8 -10    1.32    0.75 
   3   8  10    0.47    0.77 
   3   8  10    0.88    0.49 
   3   8  10    1.11    0.82 
  -4  -8 -10    7.33    0.78 
  -4  -8 -10    6.36    0.86 
  -4  -8 -10    6.14    0.92 
  -4  -8 -10    6.90    0.89 
  -4  -8 -10    6.96    1.07 
   4   8  10   10.47    1.42 
   4   8  10    6.45    0.98 
   4   8  10    7.63    0.75 
  -5  -8 -10   10.12    1.38 
  -5  -8 -10   11.30    1.41 
  -5  -8 -10    8.66    1.03 
   5   8  10   11.84    1.55 
  -6  -8 -10    1.39    0.63 
  -6  -8 -10    2.55    1.14 
  -6  -8 -10    1.61    0.79 
   6   8  10    3.99    0.81 
   6   8  10    2.34    0.93 
  -7  -8 -10    2.58    0.69 
  -7  -8 -10    2.96    1.09 
  -7  -8 -10    2.11    0.88 
   7   8  10    2.37    0.99 
   7   8  10    1.84    0.77 
  -8  -8 -10    4.53    1.08 
  -8  -8 -10    6.05    0.92 
   8   8  10    4.61    0.90 
  -9  -8 -10   10.10    1.14 
  -9  -8 -10    8.28    1.26 
   9   8  10    8.50    1.28 
 -10  -8 -10   59.92    3.53 
  10   8  10   61.69    2.63 
  10   8  10   53.84    2.78 
  11   8  10   86.73    3.30 
  11   8  10   86.89    3.57 
 -12  -8 -10   72.57    3.70 
   7  -9 -10   11.19    1.68 
   7  -9 -10   10.49    1.47 
  -7   9  10    9.69    1.86 
  -7   9  10    7.55    1.74 
   6  -9 -10   23.15    2.08 
   6  -9 -10   21.48    2.24 
  -6   9  10   24.04    2.75 
  -6   9  10   28.41    3.09 
   5  -9 -10   46.57    2.43 
   5  -9 -10   49.40    2.64 
  -5   9  10   43.91    2.92 
  -5   9  10   49.47    3.09 
   4  -9 -10   89.95    3.36 
   4  -9 -10   87.40    3.26 
  -4   9  10   84.97    3.56 
  -4   9  10   92.35    3.70 
  -4   9  10   86.01    3.53 
   3  -9 -10  132.13    4.28 
   3  -9 -10  146.22    4.54 
  -3   9  10  141.60    4.50 
  -3   9  10  136.77    3.66 
  -3   9  10  139.70    4.69 
   2  -9 -10  115.73    3.70 
   2  -9 -10  114.82    3.87 
  -2   9  10   98.31    4.91 
  -2   9  10  120.79    4.04 
  -2   9  10  114.81    3.20 
   1  -9 -10   44.75    2.59 
   1  -9 -10   44.05    2.08 
   1  -9 -10   45.38    2.24 
  -1   9  10   44.91    2.15 
  -1   9  10   40.94    2.47 
  -1   9  10   47.20    2.50 
   0  -9 -10    8.82    1.19 
   0  -9 -10    6.47    0.94 
   0  -9 -10    7.67    1.06 
   0   9  10    8.70    1.17 
   0   9  10    6.07    0.90 
   0   9  10    6.24    1.24 
  -1  -9 -10    2.43    0.95 
  -1  -9 -10    1.87    0.75 
  -1  -9 -10    1.80    0.77 
   1   9  10    1.43    0.94 
   1   9  10    2.97    0.73 
   1   9  10    2.07    0.70 
  -2  -9 -10    4.68    0.77 
  -2  -9 -10    4.05    0.67 
  -2  -9 -10    2.19    1.09 
  -2  -9 -10    4.40    0.83 
   2   9  10    4.35    0.97 
   2   9  10    2.59    0.91 
   2   9  10    4.74    0.70 
  -3  -9 -10   66.71    2.20 
  -3  -9 -10   68.33    2.47 
  -3  -9 -10   68.82    2.65 
  -3  -9 -10   64.87    2.21 
   3   9  10   66.92    2.73 
   3   9  10   65.63    2.68 
   3   9  10   66.91    2.07 
  -4  -9 -10   23.82    1.71 
  -4  -9 -10   22.92    1.31 
  -4  -9 -10   21.63    1.51 
  -4  -9 -10   23.51    1.88 
   4   9  10   23.43    1.77 
   4   9  10   22.87    0.99 
  -5  -9 -10    1.55    0.77 
  -5  -9 -10    2.94    0.70 
  -5  -9 -10    2.63    0.95 
  -5  -9 -10    3.44    0.83 
   5   9  10    1.63    0.86 
  -6  -9 -10    0.86    0.99 
  -6  -9 -10    0.29    0.67 
  -6  -9 -10    0.22    0.76 
   6   9  10    0.89    0.72 
  -7  -9 -10   24.50    1.82 
  -7  -9 -10   25.27    1.55 
   7   9  10   22.75    1.68 
  -8  -9 -10   49.78    2.51 
  -8  -9 -10   48.60    2.12 
   8   9  10   48.23    2.31 
  -9  -9 -10   94.50    3.49 
  -9  -9 -10   80.74    3.42 
   9   9  10   91.49    3.57 
   9   9  10   88.92    3.35 
 -10  -9 -10   98.22    4.29 
 -10  -9 -10   88.52    3.32 
  10   9  10   86.96    3.28 
  10   9  10   92.95    4.29 
 -11  -9 -10   92.82    3.59 
  11   9  10   93.51    3.46 
 -12  -9 -10   62.51    3.09 
 -12  -9 -10   64.15    3.59 
   7 -10 -10   76.43    3.38 
   7 -10 -10   70.83    3.42 
  -7  10  10   71.10    3.90 
  -7  10  10   71.35    4.03 
   6 -10 -10   67.80    3.14 
   6 -10 -10   73.63    3.26 
  -6  10  10   72.97    3.76 
  -6  10  10   67.14    3.85 
   5 -10 -10   74.21    3.13 
   5 -10 -10   66.81    2.97 
  -5  10  10   69.49    3.57 
  -5  10  10   66.44    3.39 
   4 -10 -10   45.58    2.42 
   4 -10 -10   53.30    2.59 
   4 -10 -10   47.59    2.81 
  -4  10  10   48.89    2.96 
  -4  10  10   51.46    2.83 
   3 -10 -10   48.81    2.45 
   3 -10 -10   47.62    2.33 
  -3  10  10   48.56    2.62 
  -3  10  10   48.27    2.82 
   2 -10 -10   -0.62    0.74 
   2 -10 -10   -0.58    0.92 
   2 -10 -10   -0.38    0.95 
  -2  10  10   -0.42    0.55 
  -2  10  10    0.20    0.93 
  -2  10  10    1.64    1.02 
   1 -10 -10    0.74    0.93 
   1 -10 -10   -0.23    0.89 
   1 -10 -10    0.28    0.76 
  -1  10  10   -0.02    0.81 
  -1  10  10    0.95    0.99 
  -1  10  10    1.75    0.99 
   0 -10 -10    0.85    0.84 
   0 -10 -10   -0.32    0.71 
   0 -10 -10   -0.62    0.85 
   0  10  10   -0.82    0.89 
   0  10  10   -0.25    0.91 
   0  10  10    0.73    0.79 
   0  10  10    0.20    0.65 
  -1 -10 -10   23.76    2.65 
  -1 -10 -10   26.62    1.71 
  -1 -10 -10   26.05    1.89 
   1  10  10   25.72    1.92 
   1  10  10   28.05    1.57 
   1  10  10   25.88    2.05 
   1  10  10   26.21    1.87 
  -2 -10 -10    1.63    0.68 
  -2 -10 -10    0.78    0.72 
  -2 -10 -10    0.43    0.61 
  -2 -10 -10    1.05    0.92 
   2  10  10    0.06    0.87 
   2  10  10   -0.52    0.96 
   2  10  10    0.37    0.58 
  -3 -10 -10    9.20    1.11 
  -3 -10 -10   10.20    1.24 
  -3 -10 -10    8.39    1.00 
   3  10  10    9.53    0.93 
   3  10  10    9.94    1.15 
   3  10  10    9.56    1.17 
  -4 -10 -10    1.77    0.75 
  -4 -10 -10    1.56    1.00 
  -4 -10 -10    3.21    0.75 
  -4 -10 -10    1.60    0.79 
   4  10  10    2.47    0.88 
   4  10  10    0.15    0.93 
  -5 -10 -10   36.77    2.28 
  -5 -10 -10   34.01    1.98 
  -5 -10 -10   32.54    1.72 
  -5 -10 -10   34.81    1.83 
   5  10  10   33.30    2.00 
  -6 -10 -10   78.90    2.77 
  -6 -10 -10   84.64    3.02 
   6  10  10   80.55    2.90 
  -7 -10 -10   92.27    3.25 
  -7 -10 -10   89.99    3.05 
   7  10  10   93.53    3.16 
  -8 -10 -10   70.39    2.81 
  -8 -10 -10   62.44    2.90 
   8  10  10   69.62    2.51 
   8  10  10   67.75    2.85 
   8  10  10   67.74    3.09 
  -9 -10 -10   58.60    2.72 
  -9 -10 -10   54.78    2.51 
   9  10  10   55.57    2.62 
   9  10  10   54.17    2.10 
 -10 -10 -10   45.62    2.84 
 -10 -10 -10   41.18    2.37 
  10  10  10   43.70    2.36 
  10  10  10   40.01    1.68 
 -11 -10 -10   17.40    2.06 
  11  10  10   15.65    1.51 
 -12 -10 -10    5.06    2.17 
   6 -11 -10   29.82    2.38 
   6 -11 -10   34.04    2.60 
  -6  11  10   28.84    3.25 
  -6  11  10   33.46    3.14 
   5 -11 -10   20.40    2.17 
   5 -11 -10   11.30    1.42 
  -5  11  10   15.18    1.85 
  -5  11  10   15.74    1.80 
   4 -11 -10    1.92    1.29 
   4 -11 -10    0.86    0.93 
   4 -11 -10    0.24    1.10 
  -4  11  10    1.24    1.33 
  -4  11  10   -1.42    1.16 
   3 -11 -10    0.74    0.87 
   3 -11 -10    0.78    1.04 
   3 -11 -10    0.72    1.25 
  -3  11  10    0.05    1.10 
  -3  11  10    3.02    1.19 
   2 -11 -10   13.44    1.80 
   2 -11 -10   10.24    1.28 
   2 -11 -10   12.40    1.72 
  -2  11  10   14.80    2.04 
  -2  11  10   11.81    1.12 
  -2  11  10   11.12    1.09 
  -2  11  10   11.51    1.35 
  -2  11  10   12.09    1.50 
   1 -11 -10   26.01    2.02 
   1 -11 -10   25.04    1.96 
   1 -11 -10   29.72    1.83 
  -1  11  10   26.72    2.21 
  -1  11  10   24.71    2.09 
  -1  11  10   23.63    2.17 
  -1  11  10   23.29    1.93 
   0 -11 -10   13.86    1.81 
   0 -11 -10   14.81    1.56 
   0  11  10   17.73    2.01 
   0  11  10   20.38    1.61 
   0  11  10   13.84    1.46 
   0  11  10   15.44    1.95 
  -1 -11 -10   22.93    1.71 
  -1 -11 -10   22.52    1.94 
   1  11  10   24.86    2.10 
   1  11  10   24.80    1.55 
   1  11  10   21.72    1.87 
   1  11  10   23.88    2.00 
  -2 -11 -10   47.62    2.46 
  -2 -11 -10   47.16    1.96 
  -2 -11 -10   45.94    2.13 
   2  11  10   48.49    2.42 
   2  11  10   46.17    1.86 
   2  11  10   44.67    2.40 
   2  11  10   49.22    2.52 
  -3 -11 -10   19.63    1.42 
  -3 -11 -10   20.20    1.99 
  -3 -11 -10   21.88    1.60 
   3  11  10   17.62    1.75 
   3  11  10   24.67    1.90 
   3  11  10   21.48    1.18 
  -4 -11 -10  103.84    3.36 
  -4 -11 -10  102.71    3.26 
   4  11  10  106.03    3.58 
   4  11  10  106.04    3.77 
   4  11  10  103.96    3.56 
  -5 -11 -10  152.61    4.45 
  -5 -11 -10  155.92    4.59 
  -5 -11 -10  147.92    4.36 
   5  11  10  146.47    4.55 
   5  11  10  152.38    4.60 
  -6 -11 -10  175.78    5.09 
  -6 -11 -10  169.21    4.95 
   6  11  10  174.19    4.99 
   6  11  10  172.72    5.01 
  -7 -11 -10  104.45    3.49 
   7  11  10   97.06    3.28 
   7  11  10   99.83    3.35 
  -8 -11 -10   41.12    2.29 
  -8 -11 -10   36.46    2.12 
   8  11  10   33.18    2.71 
   8  11  10   35.55    2.44 
  -9 -11 -10   20.84    2.07 
  -9 -11 -10   16.55    1.83 
   9  11  10   19.40    1.41 
   9  11  10   17.47    2.11 
 -10 -11 -10   -1.46    1.15 
 -10 -11 -10    1.83    1.12 
  10  11  10    1.75    1.05 
 -11 -11 -10    4.50    1.29 
   6 -12 -10    0.77    1.40 
  -6  12  10   -1.53    1.85 
  -6  12  10    0.41    1.60 
   5 -12 -10   13.60    1.67 
   5 -12 -10    9.42    1.39 
  -5  12  10    9.98    1.72 
  -5  12  10    9.81    1.81 
   4 -12 -10   10.16    1.54 
   4 -12 -10    9.08    1.32 
  -4  12  10    9.01    1.59 
  -4  12  10    8.50    1.59 
   3 -12 -10   13.95    1.58 
   3 -12 -10   10.85    1.30 
  -3  12  10   14.17    1.59 
  -3  12  10   12.21    1.57 
   2 -12 -10   14.65    1.95 
   2 -12 -10   13.64    1.69 
  -2  12  10   12.68    1.61 
  -2  12  10   12.93    1.51 
  -2  12  10   15.50    1.19 
   1 -12 -10    2.17    1.11 
   1 -12 -10    1.07    0.86 
  -1  12  10   -0.08    1.14 
  -1  12  10    1.49    1.11 
  -1  12  10    0.38    0.71 
  -1  12  10    1.36    1.00 
  -1  12  10    1.37    0.70 
   0 -12 -10    3.55    0.96 
   0 -12 -10    3.54    1.14 
   0  12  10    4.96    1.27 
   0  12  10    5.39    1.24 
   0  12  10    4.76    0.87 
   0  12  10    4.03    0.98 
   0  12  10    4.09    1.19 
  -1 -12 -10   43.11    2.49 
  -1 -12 -10   44.97    2.20 
   1  12  10   46.31    2.02 
   1  12  10   43.69    2.47 
   1  12  10   43.61    2.52 
   1  12  10   40.60    2.57 
   1  12  10   44.42    2.18 
  -2 -12 -10   49.38    2.69 
  -2 -12 -10   45.71    2.20 
  -2 -12 -10   50.64    2.13 
   2  12  10   46.67    2.59 
   2  12  10   50.91    1.98 
   2  12  10   50.33    2.55 
   2  12  10   51.66    2.61 
  -3 -12 -10   74.30    2.74 
  -3 -12 -10   78.77    2.86 
   3  12  10   77.76    2.40 
   3  12  10   79.89    3.12 
   3  12  10   76.34    3.15 
   3  12  10   78.74    3.21 
  -4 -12 -10  107.45    3.43 
  -4 -12 -10  106.17    3.40 
   4  12  10  105.65    3.86 
   4  12  10  101.42    3.67 
  -5 -12 -10   56.35    2.74 
  -5 -12 -10   60.91    2.45 
   5  12  10   65.06    3.05 
   5  12  10   58.48    2.62 
   5  12  10   54.46    3.00 
  -6 -12 -10   29.69    1.93 
   6  12  10   32.36    2.03 
   6  12  10   30.63    1.99 
  -7 -12 -10   -0.39    0.99 
  -7 -12 -10    1.13    0.93 
   7  12  10    0.06    0.92 
   7  12  10    2.01    1.29 
   7  12  10    0.98    0.87 
  -8 -12 -10   -0.40    1.03 
  -8 -12 -10    0.01    1.01 
   8  12  10   -1.59    1.41 
  -9 -12 -10    1.74    1.11 
  -9 -12 -10    2.29    1.15 
   9  12  10    1.71    1.17 
   9  12  10    0.80    1.55 
 -10 -12 -10    7.63    1.39 
  10  12  10    8.61    1.23 
  10  12  10    6.81    2.12 
   5 -13 -10    1.96    1.51 
   5 -13 -10    3.66    1.31 
  -5  13  10    3.48    1.63 
  -5  13  10    2.28    1.67 
   4 -13 -10    0.41    1.34 
   4 -13 -10    0.18    0.97 
  -4  13  10   -0.77    1.36 
  -4  13  10   -1.70    1.45 
   3 -13 -10    1.66    0.97 
   3 -13 -10    4.43    1.38 
  -3  13  10    3.42    1.35 
  -3  13  10    1.97    1.38 
   2 -13 -10   16.19    1.87 
   2 -13 -10   22.73    2.20 
  -2  13  10   20.44    1.24 
  -2  13  10   23.30    2.28 
  -2  13  10   19.65    2.43 
   1 -13 -10   52.75    2.45 
   1 -13 -10   53.76    2.82 
  -1  13  10   51.63    2.65 
  -1  13  10   47.96    2.92 
  -1  13  10   53.86    2.07 
  -1  13  10   50.60    2.14 
   0 -13 -10  108.54    4.02 
   0 -13 -10  105.28    3.63 
   0  13  10  113.29    4.46 
   0  13  10  107.33    3.49 
   0  13  10  105.37    3.86 
   0  13  10  107.42    4.07 
   0  13  10  105.38    3.67 
  -1 -13 -10   83.36    3.15 
   1  13  10   85.64    3.17 
   1  13  10   87.56    3.48 
   1  13  10   83.75    3.61 
   1  13  10   86.63    3.01 
   1  13  10   91.04    3.53 
  -2 -13 -10   57.66    2.48 
   2  13  10   57.95    2.84 
   2  13  10   53.60    2.93 
   2  13  10   60.51    2.79 
   2  13  10   55.07    2.22 
   2  13  10   56.52    2.76 
  -3 -13 -10   38.44    2.10 
  -3 -13 -10   35.76    2.02 
   3  13  10   36.18    1.65 
   3  13  10   45.35    3.83 
   3  13  10   40.89    2.44 
   3  13  10   34.77    2.47 
   3  13  10   37.60    2.35 
  -4 -13 -10   11.47    1.19 
  -4 -13 -10   13.01    1.32 
   4  13  10   10.06    1.29 
   4  13  10   11.58    1.45 
   4  13  10    9.66    1.47 
  -5 -13 -10    0.08    0.84 
   5  13  10   -1.10    1.06 
   5  13  10   -1.14    1.04 
   5  13  10   -0.69    1.19 
  -6 -13 -10    1.26    0.91 
   6  13  10    1.19    1.29 
   6  13  10    2.00    1.05 
   6  13  10   -2.24    1.61 
  -7 -13 -10   11.42    1.40 
   7  13  10   12.57    1.67 
   7  13  10   13.56    1.83 
   7  13  10   10.64    1.96 
  -8 -13 -10    8.65    1.37 
   8  13  10    7.02    1.84 
  -9 -13 -10    3.33    1.27 
   4 -14 -10   41.67    2.70 
  -4  14  10   41.33    3.16 
  -4  14  10   42.42    3.24 
   3 -14 -10   66.10    3.02 
  -3  14  10   68.85    3.57 
  -3  14  10   67.65    3.49 
   2 -14 -10  112.87    4.01 
  -2  14  10  116.78    4.28 
  -2  14  10  119.21    4.49 
   1 -14 -10   77.79    3.14 
  -1  14  10   77.20    2.78 
  -1  14  10   82.31    3.54 
  -1  14  10   78.20    3.30 
  -1  14  10   81.32    3.63 
   0 -14 -10   82.85    3.21 
   0  14  10   81.39    3.12 
   0  14  10   87.74    3.27 
   0  14  10   87.99    3.74 
  -1 -14 -10   53.55    2.51 
   1  14  10   56.03    2.99 
   1  14  10   58.09    2.53 
   1  14  10   51.62    2.63 
  -2 -14 -10   13.60    1.37 
  -2 -14 -10   11.74    1.31 
   2  14  10   13.70    1.61 
   2  14  10   12.09    1.16 
   2  14  10   15.15    2.04 
   2  14  10   16.30    2.23 
  -3 -14 -10    0.07    0.89 
  -3 -14 -10   -0.96    0.92 
   3  14  10    1.69    1.30 
   3  14  10    0.40    0.73 
   3  14  10    0.22    1.07 
   3  14  10    1.79    1.19 
  -4 -14 -10    1.41    0.93 
  -4 -14 -10    2.23    1.06 
   4  14  10   -0.04    1.06 
   4  14  10    1.00    1.29 
   4  14  10    1.98    1.28 
  -5 -14 -10   12.97    1.42 
   5  14  10   14.25    1.54 
   5  14  10   12.34    1.35 
   5  14  10   10.60    1.68 
  -6 -14 -10   16.03    1.81 
   6  14  10   13.91    1.64 
   6  14  10   13.65    1.91 
   6  14  10   12.90    1.88 
  -7 -14 -10    0.07    1.03 
   7  14  10    1.32    1.58 
   2 -15 -10   41.85    2.49 
  -2  15  10   42.80    3.13 
  -2  15  10   41.25    2.96 
   1 -15 -10    1.03    1.07 
  -1  15  10    3.80    1.47 
  -1  15  10    2.65    1.36 
   0 -15 -10    6.37    1.21 
   0  15  10    4.97    1.42 
   0  15  10    3.21    1.10 
   0  15  10    3.74    1.29 
  -1 -15 -10   -0.11    0.89 
   1  15  10   -0.01    1.12 
   1  15  10   -0.18    1.28 
  -2 -15 -10   19.62    1.87 
  -2 -15 -10   23.15    2.02 
   2  15  10   20.63    1.89 
   2  15  10   24.92    2.45 
   2  15  10   21.41    2.38 
  -3 -15 -10   21.60    1.88 
  -3 -15 -10   20.80    1.97 
   3  15  10   17.54    2.28 
   3  15  10   21.33    2.45 
  -4 -15 -10   15.94    1.58 
  -4 -15 -10   14.27    1.40 
   4  15  10   20.24    2.25 
   4  15  10   11.70    1.75 
   4  15  10   19.11    2.44 
  -5 -15 -10    0.79    1.11 
   5  15  10   -0.16    1.49 
   5  15  10    1.09    1.87 
   5  15  10    0.65    1.08 
  -4   7 -11   71.59    6.01 
  -5   7 -11   64.32    3.88 
   5  -7  11   62.75    3.73 
  -6   7 -11   47.14    3.43 
  -1   6 -11   43.02    4.49 
   1  -6  11   36.76    3.18 
  -2   6 -11   42.26    3.36 
   2  -6  11   42.27    3.18 
  -3   6 -11   53.81    3.62 
  -3   6 -11   51.32    2.62 
   3  -6  11   48.82    3.25 
  -4   6 -11   32.47    3.14 
  -4   6 -11   31.90    2.48 
   4  -6  11   30.10    2.88 
  -5   6 -11    6.22    1.65 
  -5   6 -11    8.30    1.51 
   5  -6  11    6.08    1.59 
  -6   6 -11   -0.36    1.49 
  -6   6 -11    2.01    1.49 
   6  -6  11    3.14    1.51 
  -7   6 -11    1.90    1.61 
  -7   6 -11    4.59    1.52 
   7  -6  11    4.53    1.60 
  -8   6 -11    7.87    1.42 
   8  -6  11   11.07    1.88 
   1   5 -11   66.34    4.04 
   0   5 -11   77.16    4.01 
   0  -5  11   74.73    2.79 
  -1   5 -11   80.47    4.09 
  -1   5 -11   81.06    2.94 
   1  -5  11   80.80    3.00 
  -2   5 -11   35.73    2.18 
  -2   5 -11   37.28    3.11 
   2  -5  11   37.15    2.16 
  -3   5 -11    2.00    1.12 
  -3   5 -11   -0.77    1.38 
   3  -5  11    1.74    0.96 
  -4   5 -11    1.12    1.21 
  -4   5 -11   -1.94    1.25 
   4  -5  11    0.84    1.12 
  -5   5 -11    1.70    1.28 
  -5   5 -11    0.63    1.40 
   5  -5  11   -0.99    1.24 
  -6   5 -11   10.96    1.68 
  -6   5 -11   14.16    1.62 
   6  -5  11   17.14    2.32 
  -7   5 -11    6.55    1.47 
  -7   5 -11    7.40    1.56 
   7  -5  11    6.99    1.57 
  -8   5 -11    6.30    1.27 
  -8   5 -11    4.18    1.48 
   8  -5  11    6.31    1.52 
  -9   5 -11    1.78    1.06 
   9  -5  11    2.35    1.48 
  10  -5  11   12.95    1.70 
   2   4 -11   41.95    3.52 
  -2  -4  11   42.38    2.15 
   1   4 -11   44.27    3.42 
  -1  -4  11   42.40    2.16 
   0   4 -11   40.78    3.14 
   0  -4  11   41.50    2.13 
  -1   4 -11    3.21    1.04 
  -1   4 -11    4.27    1.50 
   1  -4  11    4.06    0.98 
  -2   4 -11    0.85    0.97 
  -2   4 -11   -0.89    1.24 
   2  -4  11   -0.05    0.87 
  -3   4 -11    5.35    1.15 
  -3   4 -11    2.20    1.31 
   3  -4  11    5.75    1.01 
  -4   4 -11    2.14    1.24 
  -4   4 -11   -0.26    1.07 
  -5   4 -11    5.84    1.42 
  -5   4 -11    4.15    1.26 
   5  -4  11    5.18    1.03 
   5  -4  11    3.91    1.74 
  -6   4 -11   -0.23    1.18 
  -6   4 -11    0.30    1.19 
   6  -4  11   -0.35    1.56 
   6  -4  11   -1.06    0.87 
  -7   4 -11   -0.71    1.27 
  -7   4 -11    0.28    1.07 
   7  -4  11    0.06    2.15 
   7  -4  11    2.38    1.21 
  -8   4 -11   33.75    2.09 
  -8   4 -11   28.39    2.70 
   8  -4  11   32.62    2.46 
  -9   4 -11   74.04    2.74 
   9  -4  11   72.21    3.46 
 -10   4 -11   72.63    2.57 
  10  -4  11   71.32    3.61 
  11  -4  11   64.26    3.44 
   3   3 -11   18.92    2.20 
  -3  -3  11   21.50    2.02 
   2   3 -11    3.87    1.59 
  -2  -3  11    2.17    1.04 
   1   3 -11   -0.56    1.32 
  -1  -3  11    0.04    0.95 
   0   3 -11    0.98    1.27 
   0  -3  11    0.11    0.86 
  -1   3 -11   19.72    1.93 
  -1   3 -11   23.03    2.53 
   1  -3  11   20.97    1.72 
   1  -3  11   22.55    2.98 
  -2   3 -11   27.33    2.54 
  -2   3 -11   25.85    2.01 
   2  -3  11   27.68    1.81 
  -3   3 -11    2.21    1.00 
  -3   3 -11    1.92    0.97 
  -3   3 -11   -0.08    1.12 
   3  -3  11    1.87    0.84 
  -4   3 -11    1.48    1.04 
  -4   3 -11    1.90    0.93 
  -4   3 -11    0.30    1.11 
   4  -3  11    0.88    0.83 
  -5   3 -11    8.88    1.30 
  -5   3 -11    7.79    1.12 
  -5   3 -11   11.32    1.43 
   5  -3  11   10.72    1.47 
   5  -3  11   11.45    1.22 
  -6   3 -11   36.97    2.44 
  -6   3 -11   28.44    1.99 
  -6   3 -11   39.10    2.62 
   6  -3  11   34.71    2.50 
   6  -3  11   40.28    2.13 
  -7   3 -11   44.81    2.80 
  -7   3 -11   44.96    2.29 
   7  -3  11   45.84    2.69 
   7  -3  11   47.86    2.36 
  -8   3 -11  127.56    4.64 
  -8   3 -11  137.52    4.06 
   8  -3  11  131.60    4.51 
   8  -3  11  130.15    4.66 
  -9   3 -11   83.11    3.63 
  -9   3 -11   81.35    2.84 
   9  -3  11   68.87    3.41 
   9  -3  11   77.87    3.35 
 -10   3 -11   48.75    2.15 
  10  -3  11   53.03    2.96 
 -11   3 -11   13.73    1.43 
  11  -3  11   15.14    1.83 
  12  -3  11   19.03    2.67 
   4   2 -11    1.49    1.70 
  -4  -2  11    3.98    1.43 
   3   2 -11   -0.86    1.48 
  -3  -2  11   -2.30    1.15 
   2   2 -11    2.22    1.40 
  -2  -2  11    6.05    1.14 
   1   2 -11    5.77    1.42 
  -1  -2  11    4.27    1.07 
  -1  -2  11    3.15    1.29 
   0   2 -11    2.06    1.24 
   0   2 -11    0.92    0.89 
   0   2 -11    1.48    0.91 
   0  -2  11    1.86    0.92 
   0  -2  11    1.42    1.27 
  -1   2 -11    1.42    1.11 
  -1   2 -11   -0.71    0.83 
   1  -2  11   -1.43    1.03 
   1  -2  11   -0.16    0.80 
  -2   2 -11    0.54    0.91 
  -2   2 -11    0.94    1.08 
  -2   2 -11    0.34    0.79 
   2  -2  11    1.19    0.81 
   2  -2  11    0.60    1.03 
  -3   2 -11   67.22    3.09 
  -3   2 -11   69.81    2.92 
   3  -2  11   72.27    2.66 
  -4   2 -11   73.43    2.98 
  -4   2 -11   70.05    3.10 
   4  -2  11   72.93    2.71 
  -5   2 -11  111.46    3.87 
  -5   2 -11  108.76    3.96 
  -6   2 -11  128.27    4.36 
  -6   2 -11  138.04    4.15 
   6  -2  11  129.61    4.09 
  -7   2 -11  154.46    5.01 
  -7   2 -11  157.54    4.61 
   7  -2  11  154.39    4.70 
  -8   2 -11  143.17    4.18 
  -8   2 -11  134.79    4.72 
   8  -2  11  139.31    4.39 
  -9   2 -11   19.67    2.47 
  -9   2 -11   17.42    1.63 
   9  -2  11   20.40    2.10 
   9  -2  11   17.81    2.23 
 -10   2 -11    5.66    1.00 
  10  -2  11    3.20    1.24 
  10  -2  11    3.21    1.21 
 -11   2 -11    0.64    0.87 
  11  -2  11   -0.60    1.24 
  12  -2  11    5.97    1.49 
 -13   2 -11   10.60    2.04 
  13  -2  11   12.59    1.84 
   5   1 -11    0.11    1.65 
   5   1 -11   -0.06    0.98 
  -5  -1  11    4.89    1.57 
   4   1 -11    0.59    1.51 
  -4  -1  11    2.15    1.43 
   3   1 -11    5.69    1.51 
  -3  -1  11    6.79    1.42 
  -3  -1  11    4.24    1.58 
   2   1 -11    3.58    1.31 
  -2  -1  11    4.12    1.40 
  -2  -1  11    3.04    1.20 
   1   1 -11   -0.50    1.10 
  -1  -1  11    0.50    0.98 
  -1  -1  11    0.26    1.15 
   0   1 -11   15.02    1.59 
   0   1 -11   16.92    1.75 
   0  -1  11   19.40    2.29 
   0  -1  11   19.65    1.78 
  -1   1 -11   64.08    2.65 
  -1   1 -11   67.61    3.04 
   1  -1  11   61.64    3.04 
   1  -1  11   66.39    2.59 
  -2   1 -11   89.58    3.16 
  -2   1 -11   90.00    3.45 
   2  -1  11   91.56    3.06 
   2  -1  11   84.61    3.44 
  -3   1 -11  217.17    6.12 
  -3   1 -11  215.67    6.38 
  -3   1 -11  210.14    6.20 
   3  -1  11  215.43    5.89 
  -4   1 -11  150.21    4.43 
  -4   1 -11  152.14    4.72 
  -4   1 -11  149.74    4.66 
   4  -1  11  149.94    4.44 
  -5   1 -11  131.54    4.08 
  -5   1 -11  131.31    4.29 
  -5   1 -11  129.47    3.95 
   5  -1  11  130.05    4.36 
  -6   1 -11   88.06    3.40 
  -6   1 -11   88.73    3.03 
  -6   1 -11   94.23    3.19 
   6  -1  11   89.98    3.14 
  -7   1 -11   30.44    1.84 
  -7   1 -11   28.78    2.29 
   7  -1  11   26.34    1.86 
  -8   1 -11    5.61    1.01 
  -8   1 -11    5.16    1.24 
   8  -1  11    3.45    0.99 
  -9   1 -11   -0.68    1.14 
  -9   1 -11   -0.59    0.82 
   9  -1  11   -0.02    0.93 
   9  -1  11    0.55    0.90 
 -10   1 -11    8.22    1.08 
 -10   1 -11    7.52    1.43 
  10  -1  11    8.60    1.33 
  10  -1  11    9.75    1.38 
 -11   1 -11   12.07    1.52 
  11  -1  11   12.28    1.56 
  11  -1  11   10.97    1.47 
 -12   1 -11    5.39    1.54 
  12  -1  11    0.88    1.31 
 -13   1 -11    2.54    1.64 
  13  -1  11    3.88    1.43 
   6   0 -11    1.51    1.82 
  -6   0  11    3.51    1.78 
   5   0 -11   -0.66    0.93 
   5   0 -11   -2.25    1.49 
  -5   0  11   -0.43    1.52 
  -5   0  11    1.96    1.38 
   4   0 -11   -1.09    1.30 
   4   0 -11    0.24    0.85 
  -4   0  11   -0.93    1.40 
  -4   0  11    3.99    1.40 
   3   0 -11    5.22    0.90 
   3   0 -11    2.61    1.30 
  -3   0  11    4.22    1.38 
  -3   0  11    5.31    2.29 
   2   0 -11   26.94    2.40 
   2   0 -11   24.91    1.85 
  -2   0  11   24.51    2.19 
  -2   0  11   21.53    2.42 
   1   0 -11   68.41    3.47 
   1   0 -11   74.71    3.25 
  -1   0  11   77.05    3.05 
  -1   0  11   74.73    3.28 
   0   0 -11  131.65    4.12 
   0   0 -11  133.73    4.41 
   0   0  11  133.45    4.20 
   0   0  11  128.88    4.46 
  -1   0 -11  124.70    4.02 
  -1   0 -11  129.89    4.25 
   1   0  11  126.54    4.31 
   1   0  11  131.35    4.05 
  -2   0 -11  214.66    5.99 
  -2   0 -11  219.06    6.18 
  -2   0 -11  213.69    5.93 
   2   0  11  217.41    5.92 
   2   0  11  209.52    6.21 
  -3   0 -11  170.39    5.10 
  -3   0 -11  169.56    5.13 
  -3   0 -11  173.92    4.89 
   3   0  11  174.57    4.91 
   3   0  11  168.88    5.18 
  -4   0 -11   53.76    2.55 
  -4   0 -11   55.68    2.53 
  -4   0 -11   53.77    2.39 
  -4   0 -11   52.84    2.18 
   4   0  11   51.74    2.28 
  -5   0 -11   15.93    1.62 
  -5   0 -11   19.77    1.90 
  -5   0 -11   18.11    1.48 
   5   0  11   18.20    1.59 
  -6   0 -11    1.16    0.84 
  -6   0 -11    0.03    0.65 
  -6   0 -11    0.50    0.87 
   6   0  11   -0.59    0.85 
  -7   0 -11    3.17    1.06 
  -7   0 -11    5.66    1.01 
  -7   0 -11    4.59    0.80 
   7   0  11    2.92    0.90 
  -8   0 -11   12.92    1.51 
  -8   0 -11   10.30    1.37 
   8   0  11   13.34    1.65 
  -9   0 -11   15.83    1.64 
  -9   0 -11   18.23    1.62 
   9   0  11   18.65    1.87 
 -10   0 -11    4.60    0.99 
 -10   0 -11    3.34    1.21 
  10   0  11    3.33    1.08 
  10   0  11    1.18    1.06 
 -11   0 -11   -0.06    0.87 
  11   0  11   -0.19    1.03 
  11   0  11    1.73    1.16 
 -12   0 -11   11.16    1.62 
  12   0  11   12.96    1.60 
 -13   0 -11   23.40    2.85 
  13   0  11   26.89    2.48 
 -14   0 -11   39.79    3.39 
  14   0  11   52.83    3.16 
   6  -1 -11    0.92    1.60 
   6  -1 -11    3.11    1.05 
  -6   1  11    1.62    1.41 
  -6   1  11   -0.86    1.67 
  -6   1  11    1.20    1.64 
   5  -1 -11   21.45    1.73 
   5  -1 -11   20.54    2.76 
  -5   1  11   19.43    2.52 
  -5   1  11   15.17    1.85 
  -5   1  11   25.70    2.93 
   4  -1 -11   18.14    1.62 
   4  -1 -11   15.26    1.70 
  -4   1  11   21.35    2.56 
  -4   1  11   19.64    2.23 
  -4   1  11   15.13    1.71 
   3  -1 -11   73.23    3.31 
   3  -1 -11   71.04    2.59 
  -3   1  11   71.33    3.06 
  -3   1  11   70.97    3.35 
  -3   1  11   73.17    3.30 
   2  -1 -11  138.04    4.48 
   2  -1 -11  128.73    3.83 
  -2   1  11  127.18    4.44 
  -2   1  11  132.01    4.86 
  -2   1  11  130.69    4.22 
   1  -1 -11  168.68    5.10 
   1  -1 -11  163.52    4.55 
  -1   1  11  164.43    5.01 
  -1   1  11  162.00    5.13 
   0  -1 -11  132.34    4.74 
   0  -1 -11  134.90    3.95 
   0  -1 -11  137.00    4.24 
   0  -1 -11  136.45    5.14 
   0   1  11  138.32    4.48 
   0   1  11  142.13    4.36 
  -1  -1 -11   42.01    3.80 
  -1  -1 -11   45.55    2.27 
  -1  -1 -11   49.18    2.21 
   1   1  11   51.48    2.53 
   1   1  11   48.38    2.38 
  -2  -1 -11   27.20    2.06 
  -2  -1 -11   27.55    1.73 
  -2  -1 -11   29.43    1.87 
   2   1  11   27.44    1.91 
   2   1  11   30.42    2.02 
  -3  -1 -11    1.44    0.84 
  -3  -1 -11    1.02    0.87 
  -3  -1 -11    2.25    0.71 
   3   1  11    3.24    0.85 
   3   1  11    2.97    0.92 
  -4  -1 -11    5.61    0.81 
  -4  -1 -11    4.73    0.98 
  -4  -1 -11    6.34    1.07 
   4   1  11    4.26    0.89 
   4   1  11    4.97    1.03 
  -5  -1 -11   27.62    2.01 
  -5  -1 -11   26.66    1.78 
  -5  -1 -11   28.31    1.56 
   5   1  11   25.38    2.59 
   5   1  11   28.16    1.74 
  -6  -1 -11   53.77    2.27 
  -6  -1 -11   52.50    2.05 
  -6  -1 -11   51.20    2.51 
   6   1  11   46.36    3.39 
  -7  -1 -11   20.71    2.02 
  -7  -1 -11   24.35    1.66 
  -7  -1 -11   21.44    1.46 
   7   1  11   22.23    1.72 
  -8  -1 -11    3.95    1.09 
  -8  -1 -11    7.69    1.05 
   8   1  11    4.81    0.94 
  -9  -1 -11    1.80    0.92 
   9   1  11    0.02    0.87 
 -10  -1 -11   34.42    1.95 
  10   1  11   33.60    2.21 
 -11  -1 -11   40.67    2.10 
  11   1  11   44.04    2.42 
  11   1  11   40.38    2.65 
 -12  -1 -11   83.28    3.44 
  12   1  11   80.70    3.35 
 -13  -1 -11   45.43    4.42 
  13   1  11   50.67    2.83 
 -14  -1 -11   42.85    2.92 
  14   1  11   42.97    2.89 
   6  -2 -11    3.79    1.55 
   6  -2 -11    7.09    1.13 
  -6   2  11    4.12    1.49 
  -6   2  11    4.32    1.78 
  -6   2  11    3.90    1.56 
   5  -2 -11   54.02    2.44 
   5  -2 -11   52.60    3.16 
  -5   2  11   54.65    3.07 
  -5   2  11   52.86    3.15 
  -5   2  11   57.42    3.34 
   4  -2 -11   65.82    3.16 
   4  -2 -11   65.07    2.54 
  -4   2  11   60.95    3.02 
  -4   2  11   65.43    3.28 
  -4   2  11   64.93    3.16 
   3  -2 -11   61.51    2.93 
   3  -2 -11   60.82    2.34 
  -3   2  11   58.29    2.86 
  -3   2  11   59.39    2.77 
  -3   2  11   62.49    3.06 
   2  -2 -11   59.13    3.16 
   2  -2 -11   60.45    2.30 
  -2   2  11   54.18    4.40 
  -2   2  11   63.00    2.82 
  -2   2  11   61.57    2.68 
   1  -2 -11   44.49    1.98 
   1  -2 -11   48.79    2.42 
  -1   2  11   47.38    2.46 
  -1   2  11   44.56    2.49 
  -1   2  11   48.34    2.26 
   0  -2 -11   -0.06    0.79 
   0  -2 -11   -0.16    0.64 
   0  -2 -11   -0.41    0.79 
   0  -2 -11    0.01    0.88 
   0   2  11    0.78    0.90 
   0   2  11    0.19    0.86 
  -1  -2 -11    3.76    0.84 
  -1  -2 -11    4.31    0.95 
  -1  -2 -11    4.11    0.90 
  -1  -2 -11    3.88    0.77 
   1   2  11    4.02    1.01 
   1   2  11    2.69    0.92 
  -2  -2 -11   23.72    1.76 
  -2  -2 -11   22.23    1.72 
  -2  -2 -11   21.75    1.80 
  -2  -2 -11   23.48    1.53 
   2   2  11   22.39    1.86 
   2   2  11   21.60    1.85 
  -3  -2 -11   42.05    1.93 
  -3  -2 -11   44.74    2.16 
  -3  -2 -11   45.80    2.25 
   3   2  11   45.65    2.18 
   3   2  11   45.26    2.26 
  -4  -2 -11   69.67    2.41 
  -4  -2 -11   70.03    2.82 
  -4  -2 -11   67.87    2.64 
   4   2  11   69.77    2.80 
   4   2  11   71.72    2.67 
  -5  -2 -11   40.78    2.28 
  -5  -2 -11   43.82    2.06 
  -5  -2 -11   41.30    1.77 
   5   2  11   42.83    2.24 
   5   2  11   44.49    2.09 
  -6  -2 -11   19.13    1.85 
  -6  -2 -11   17.79    1.44 
  -6  -2 -11   18.17    1.56 
   6   2  11   16.85    1.67 
  -7  -2 -11    4.44    0.96 
  -7  -2 -11    2.44    0.94 
   7   2  11    2.52    0.87 
  -8  -2 -11   41.49    2.09 
   8   2  11   42.05    2.18 
  -9  -2 -11   65.76    2.61 
   9   2  11   64.43    2.72 
 -10  -2 -11  132.34    4.13 
  10   2  11  137.00    4.39 
 -11  -2 -11   88.53    3.95 
 -11  -2 -11  103.38    3.44 
  11   2  11   99.43    3.82 
  11   2  11   98.87    3.65 
 -12  -2 -11   78.63    3.09 
  12   2  11   76.84    3.12 
 -13  -2 -11   62.57    2.90 
  13   2  11   64.89    3.01 
 -14  -2 -11   16.26    1.61 
  14   2  11   22.57    2.39 
   7  -3 -11   58.05    3.48 
   7  -3 -11   58.19    2.75 
  -7   3  11   66.45    4.15 
   6  -3 -11   93.20    3.91 
   6  -3 -11   92.02    3.30 
  -6   3  11   92.75    4.38 
  -6   3  11   88.66    3.97 
  -6   3  11   89.83    3.75 
   5  -3 -11   43.95    2.26 
  -5   3  11   49.39    2.91 
  -5   3  11   50.25    3.25 
  -5   3  11   47.08    2.75 
   4  -3 -11   62.35    2.48 
   4  -3 -11   60.25    2.88 
  -4   3  11   59.06    2.92 
  -4   3  11   59.55    3.24 
  -4   3  11   58.97    2.84 
   3  -3 -11   54.83    2.63 
   3  -3 -11   57.61    2.29 
   3  -3 -11   43.10    2.93 
  -3   3  11   55.36    2.89 
  -3   3  11   52.17    2.64 
  -3   3  11   53.43    2.66 
   2  -3 -11   22.31    1.92 
   2  -3 -11   19.03    1.51 
  -2   3  11   16.63    2.09 
  -2   3  11   23.04    1.87 
  -2   3  11   17.38    1.86 
   1  -3 -11   11.80    1.30 
   1  -3 -11   11.97    1.66 
   1  -3 -11   12.29    1.29 
  -1   3  11    9.72    1.48 
  -1   3  11   14.70    1.61 
  -1   3  11   12.90    1.70 
   0  -3 -11    9.14    1.12 
   0  -3 -11   14.59    1.53 
   0  -3 -11   10.78    1.30 
   0  -3 -11   11.40    1.58 
   0   3  11    9.33    1.23 
   0   3  11    9.22    1.05 
   0   3  11   10.26    1.19 
  -1  -3 -11   10.36    1.24 
  -1  -3 -11    8.03    1.18 
  -1  -3 -11    9.59    1.04 
  -1  -3 -11    8.04    1.07 
   1   3  11    8.14    1.11 
   1   3  11    8.63    0.95 
   1   3  11    8.53    1.10 
  -2  -3 -11    3.22    0.75 
  -2  -3 -11    3.40    0.76 
  -2  -3 -11    2.67    0.81 
  -2  -3 -11    2.64    0.93 
   2   3  11    2.49    0.88 
   2   3  11    2.78    0.89 
  -3  -3 -11    8.27    1.06 
  -3  -3 -11   10.73    1.23 
  -3  -3 -11    9.19    1.15 
   3   3  11    8.85    1.07 
   3   3  11    8.56    1.07 
  -4  -3 -11   16.95    2.10 
  -4  -3 -11   24.42    1.65 
  -4  -3 -11   22.11    1.82 
   4   3  11   22.01    1.70 
   4   3  11   22.67    1.73 
  -5  -3 -11  121.09    3.92 
  -5  -3 -11  120.07    3.43 
  -5  -3 -11  117.61    3.71 
   5   3  11  119.48    3.75 
   5   3  11  117.66    3.82 
  -6  -3 -11   98.71    3.55 
  -6  -3 -11  104.96    3.06 
  -6  -3 -11  103.48    3.40 
   6   3  11  103.76    3.51 
   6   3  11  104.18    3.44 
  -7  -3 -11  123.52    3.48 
  -7  -3 -11  126.92    3.88 
   7   3  11  119.22    4.17 
  -8  -3 -11  331.09    8.29 
  -8  -3 -11  331.09    8.68 
   8   3  11  337.44    8.78 
  -9  -3 -11  234.41    6.39 
  -9  -3 -11  231.14    5.94 
   9   3  11  230.10    6.47 
 -10  -3 -11   75.33    2.41 
 -10  -3 -11   74.45    2.89 
  10   3  11   77.06    3.08 
 -11  -3 -11   93.18    3.95 
 -11  -3 -11  100.89    3.19 
  11   3  11   97.31    3.61 
  11   3  11   85.54    3.68 
 -12  -3 -11   20.27    1.83 
  12   3  11   20.72    2.15 
 -13  -3 -11    2.20    1.05 
  13   3  11    2.18    1.19 
  14   3  11    1.29    1.22 
   7  -4 -11   67.20    2.96 
   7  -4 -11   54.57    3.39 
  -7   4  11   68.62    3.62 
  -7   4  11   64.16    3.99 
   6  -4 -11   80.12    3.14 
   6  -4 -11   75.23    3.37 
  -6   4  11   77.68    3.25 
  -6   4  11   85.20    4.03 
  -6   4  11   83.38    3.76 
   5  -4 -11    5.52    1.30 
   5  -4 -11    3.34    0.98 
  -5   4  11    4.70    1.38 
  -5   4  11    5.09    1.20 
  -5   4  11    4.20    1.52 
   4  -4 -11    4.42    1.14 
   4  -4 -11    4.99    0.99 
   4  -4 -11    4.61    1.19 
  -4   4  11    4.23    1.43 
  -4   4  11    6.02    1.10 
  -4   4  11    4.43    1.25 
   3  -4 -11   -0.87    0.88 
   3  -4 -11   -2.06    0.85 
   3  -4 -11    0.88    0.78 
  -3   4  11   -1.65    0.84 
  -3   4  11   -1.82    1.00 
  -3   4  11   -0.48    1.12 
   2  -4 -11    2.03    0.78 
   2  -4 -11    2.97    0.97 
  -2   4  11    1.95    1.09 
  -2   4  11    2.04    0.92 
  -2   4  11    3.12    1.01 
   1  -4 -11    1.55    0.73 
   1  -4 -11    1.72    0.88 
   1  -4 -11    1.91    1.06 
  -1   4  11    2.06    0.85 
  -1   4  11    0.64    0.96 
   0  -4 -11   13.55    1.70 
   0  -4 -11    9.39    1.08 
   0  -4 -11    8.65    0.95 
   0  -4 -11    7.15    2.00 
   0   4  11    8.34    1.18 
   0   4  11    8.10    0.99 
   0   4  11    7.84    1.05 
  -1  -4 -11    4.31    0.77 
  -1  -4 -11    3.31    0.85 
  -1  -4 -11    3.96    1.01 
  -1  -4 -11    4.46    0.89 
   1   4  11    4.05    1.02 
   1   4  11    3.09    0.87 
   1   4  11    4.20    0.81 
  -2  -4 -11   42.05    1.87 
  -2  -4 -11   38.51    1.81 
  -2  -4 -11   41.05    2.12 
  -2  -4 -11   41.85    2.07 
   2   4  11   40.97    1.79 
   2   4  11   42.43    2.22 
   2   4  11   39.53    2.05 
  -3  -4 -11  150.86    4.32 
  -3  -4 -11  150.09    4.54 
  -3  -4 -11  151.79    4.48 
   3   4  11  152.53    4.51 
   3   4  11  154.74    4.63 
  -4  -4 -11  197.97    5.18 
  -4  -4 -11  197.71    5.62 
  -4  -4 -11  189.98    5.42 
   4   4  11  192.21    5.48 
   4   4  11  192.31    5.54 
  -5  -4 -11  246.19    6.82 
  -5  -4 -11  254.95    6.19 
  -5  -4 -11  255.61    7.00 
  -5  -4 -11  254.91    6.49 
   5   4  11  260.32    6.88 
   5   4  11  251.69    6.88 
  -6  -4 -11  375.97    9.19 
  -6  -4 -11  374.76   10.24 
  -6  -4 -11  368.25    9.57 
   6   4  11  367.13    9.57 
   6   4  11  371.62    9.67 
  -7  -4 -11  306.44    7.66 
   7   4  11  261.35    8.16 
  -8  -4 -11   89.33    3.50 
  -8  -4 -11   96.07    3.30 
  -8  -4 -11   97.53    2.75 
   8   4  11   95.74    3.31 
  -9  -4 -11   14.72    1.08 
  -9  -4 -11   12.65    1.70 
   9   4  11   15.51    1.71 
 -10  -4 -11    2.93    1.06 
 -10  -4 -11    0.84    1.06 
 -10  -4 -11    2.53    0.75 
 -10  -4 -11    1.98    0.60 
  10   4  11    1.91    0.93 
  10   4  11    2.18    0.99 
 -11  -4 -11    0.70    1.23 
 -11  -4 -11    1.74    0.76 
 -11  -4 -11    2.43    0.63 
  11   4  11    3.96    1.11 
  11   4  11    2.09    1.03 
 -12  -4 -11   10.70    0.98 
  12   4  11   13.99    1.77 
  12   4  11   12.97    1.82 
  13   4  11   14.91    1.94 
  14   4  11   13.24    1.46 
   7  -5 -11    9.02    1.30 
  -7   5  11   12.20    1.97 
  -7   5  11    9.56    1.76 
   6  -5 -11    2.29    1.02 
   6  -5 -11    1.70    1.16 
  -6   5  11    1.92    1.00 
  -6   5  11    2.54    1.33 
  -6   5  11    1.87    1.60 
   5  -5 -11   12.02    1.33 
  -5   5  11   10.42    1.21 
  -5   5  11   11.24    1.49 
  -5   5  11   11.14    1.70 
   4  -5 -11    4.77    1.17 
   4  -5 -11    6.19    1.54 
   4  -5 -11    3.06    0.92 
  -4   5  11    4.52    0.99 
  -4   5  11    6.52    1.32 
  -4   5  11    5.33    1.38 
   3  -5 -11   12.47    1.49 
   3  -5 -11   14.51    1.67 
  -3   5  11   16.13    1.88 
  -3   5  11   12.86    1.57 
  -3   5  11   17.04    1.69 
   2  -5 -11    1.70    1.14 
   2  -5 -11    1.10    0.73 
  -2   5  11    0.56    1.02 
  -2   5  11    1.48    0.83 
  -2   5  11    1.04    0.90 
   1  -5 -11    1.01    0.99 
   1  -5 -11    0.35    0.74 
   1  -5 -11    1.08    0.90 
  -1   5  11    0.63    0.79 
  -1   5  11    0.09    0.99 
   0  -5 -11    4.69    0.96 
   0  -5 -11    4.08    0.80 
   0   5  11    3.77    0.87 
   0   5  11    2.40    1.24 
   0   5  11    2.56    0.79 
  -1  -5 -11   87.27    2.90 
  -1  -5 -11   85.25    3.08 
  -1  -5 -11   89.30    3.00 
  -1  -5 -11   87.37    3.17 
   1   5  11   88.46    2.88 
   1   5  11   91.54    3.08 
   1   5  11   90.22    3.30 
  -2  -5 -11  170.67    5.05 
  -2  -5 -11  178.62    4.96 
  -2  -5 -11  175.35    4.88 
  -2  -5 -11  177.25    5.15 
   2   5  11  179.14    5.04 
   2   5  11  176.53    4.77 
   2   5  11  178.07    5.23 
  -3  -5 -11  183.06    5.13 
  -3  -5 -11  180.19    5.26 
  -3  -5 -11  187.39    5.35 
  -3  -5 -11  190.26    5.08 
   3   5  11  192.95    5.30 
   3   5  11  187.41    5.44 
  -4  -5 -11  196.67    5.61 
  -4  -5 -11  205.07    4.95 
  -4  -5 -11  205.51    5.31 
  -4  -5 -11  198.22    5.67 
   4   5  11  197.95    5.60 
   4   5  11  198.09    5.71 
  -5  -5 -11  171.13    5.00 
  -5  -5 -11  172.97    5.12 
   5   5  11  170.97    5.01 
   5   5  11  174.68    5.02 
  -6  -5 -11   99.58    2.76 
  -6  -5 -11  101.98    2.88 
  -6  -5 -11   98.54    3.37 
  -6  -5 -11   95.77    3.45 
   6   5  11  100.81    3.43 
   6   5  11   96.89    3.31 
  -7  -5 -11   39.20    1.52 
  -7  -5 -11   36.04    2.07 
  -7  -5 -11   35.26    2.20 
   7   5  11   35.98    1.95 
   7   5  11   38.10    2.16 
   7   5  11   32.45    3.05 
  -8  -5 -11    4.39    1.05 
  -8  -5 -11    3.77    1.00 
  -8  -5 -11    5.50    0.63 
   8   5  11    4.68    1.06 
   8   5  11    5.13    0.98 
  -9  -5 -11   13.65    1.78 
   9   5  11   10.16    1.19 
   9   5  11   12.56    1.59 
  10   5  11   20.53    1.91 
  10   5  11   23.17    1.91 
 -11  -5 -11   11.48    1.62 
  11   5  11   10.89    1.35 
  11   5  11   13.62    1.82 
  12   5  11   10.16    1.40 
  12   5  11   10.95    1.25 
  13   5  11    1.43    1.35 
  13   5  11    1.77    1.06 
  14   5  11    2.94    1.53 
   7  -6 -11    2.04    1.07 
   7  -6 -11    3.47    1.97 
  -7   6  11   -1.01    1.70 
  -7   6  11    0.80    1.52 
   6  -6 -11    5.62    1.16 
   6  -6 -11    7.07    1.78 
  -6   6  11   10.33    1.73 
  -6   6  11    7.35    1.58 
  -6   6  11    5.45    0.98 
   5  -6 -11    6.94    1.63 
   5  -6 -11    6.37    1.14 
  -5   6  11    5.56    0.98 
  -5   6  11    5.69    1.51 
  -5   6  11    4.25    1.46 
   4  -6 -11    0.39    1.24 
   4  -6 -11   -0.99    1.08 
   4  -6 -11   -0.53    0.83 
  -4   6  11   -0.20    1.10 
  -4   6  11    0.36    0.81 
  -4   6  11   -1.27    1.12 
   3  -6 -11    2.99    0.90 
   3  -6 -11   -1.13    0.95 
   3  -6 -11    3.68    1.27 
  -3   6  11    1.43    0.78 
  -3   6  11    2.35    1.21 
  -3   6  11    1.58    1.02 
   2  -6 -11   26.59    2.03 
   2  -6 -11   25.27    1.72 
   2  -6 -11   29.72    2.17 
  -2   6  11   26.53    1.70 
  -2   6  11   27.58    2.33 
  -2   6  11   25.25    1.97 
   1  -6 -11   83.92    2.94 
   1  -6 -11   88.31    3.23 
   1  -6 -11   86.14    3.16 
  -1   6  11   90.19    3.50 
  -1   6  11   83.15    2.91 
  -1   6  11   85.72    3.09 
   0  -6 -11  209.33    5.75 
   0  -6 -11  209.64    5.62 
   0   6  11  184.03    6.63 
   0   6  11  210.98    5.59 
   0   6  11  203.84    6.52 
  -1  -6 -11  157.76    4.84 
  -1  -6 -11  163.67    4.67 
  -1  -6 -11  168.84    4.76 
  -1  -6 -11  172.57    4.97 
   1   6  11  157.05    5.11 
   1   6  11  166.35    4.80 
   1   6  11  167.57    4.58 
  -2  -6 -11  102.15    3.40 
  -2  -6 -11  107.55    3.54 
  -2  -6 -11   98.37    3.59 
  -2  -6 -11  100.36    3.24 
   2   6  11  102.64    3.07 
   2   6  11  102.48    3.33 
   2   6  11  103.26    3.59 
  -3  -6 -11  125.03    3.81 
  -3  -6 -11  129.32    3.31 
  -3  -6 -11  133.94    3.76 
  -3  -6 -11  133.38    4.07 
  -3  -6 -11  123.60    3.99 
   3   6  11  128.89    3.57 
   3   6  11  127.47    3.92 
   3   6  11  130.41    4.14 
  -4  -6 -11   34.11    1.97 
  -4  -6 -11   35.00    1.96 
  -4  -6 -11   35.83    1.78 
  -4  -6 -11   34.91    1.80 
   4   6  11   36.29    1.96 
   4   6  11   35.84    2.12 
  -5  -6 -11    8.69    1.14 
  -5  -6 -11    7.54    0.86 
  -5  -6 -11    7.46    1.04 
  -5  -6 -11    8.44    1.07 
   5   6  11    7.35    1.02 
   5   6  11    7.18    1.00 
  -6  -6 -11    3.60    0.93 
  -6  -6 -11    3.30    0.61 
  -6  -6 -11    3.47    0.64 
  -6  -6 -11    3.36    1.00 
   6   6  11    2.51    0.86 
   6   6  11    2.88    0.94 
  -7  -6 -11   18.90    1.11 
  -7  -6 -11   23.60    1.24 
  -7  -6 -11   22.79    1.92 
  -7  -6 -11   23.25    1.90 
   7   6  11   21.42    1.68 
   7   6  11   19.53    2.73 
  -8  -6 -11   18.56    1.96 
  -8  -6 -11   17.12    2.45 
   8   6  11   17.33    1.72 
   8   6  11   19.38    1.75 
  -9  -6 -11   26.91    2.04 
   9   6  11   25.08    1.95 
   9   6  11   24.57    1.89 
  10   6  11    5.42    1.12 
 -11  -6 -11    1.95    1.30 
  11   6  11    2.49    1.07 
  12   6  11   15.31    2.14 
  12   6  11   15.28    1.98 
  13   6  11   29.76    1.94 
  13   6  11   26.75    2.46 
   7  -7 -11    1.02    1.11 
   7  -7 -11    1.67    1.82 
  -7   7  11    0.74    1.76 
  -7   7  11   -1.43    1.50 
   6  -7 -11    1.99    1.60 
   6  -7 -11    0.33    1.01 
  -6   7  11   -0.83    1.40 
  -6   7  11   -2.04    1.46 
   5  -7 -11    1.32    1.39 
   5  -7 -11    1.75    0.97 
  -5   7  11    1.13    0.76 
  -5   7  11    2.25    1.44 
  -5   7  11    1.11    1.30 
   4  -7 -11   28.11    1.93 
   4  -7 -11   28.94    2.38 
   4  -7 -11   29.71    2.49 
  -4   7  11   27.63    2.38 
  -4   7  11   30.52    2.61 
  -4   7  11   25.38    2.08 
   3  -7 -11   55.27    2.48 
   3  -7 -11   63.37    2.87 
  -3   7  11   58.41    2.23 
  -3   7  11   57.31    3.05 
  -3   7  11   58.01    2.76 
   2  -7 -11  133.44    4.30 
   2  -7 -11  131.97    4.40 
   2  -7 -11  125.28    4.00 
  -2   7  11  131.07    3.83 
  -2   7  11  130.21    4.54 
  -2   7  11  133.67    4.18 
   1  -7 -11  151.99    4.60 
   1  -7 -11  162.75    4.83 
   1  -7 -11  160.38    4.82 
  -1   7  11  156.71    5.03 
  -1   7  11  158.04    4.45 
  -1   7  11  154.30    4.63 
   0  -7 -11  138.69    4.20 
   0  -7 -11  139.99    4.30 
   0  -7 -11  137.99    5.07 
   0   7  11  139.57    4.13 
   0   7  11  144.54    4.61 
   0   7  11  141.92    4.12 
  -1  -7 -11   88.68    2.96 
  -1  -7 -11   79.91    3.91 
  -1  -7 -11   86.21    2.87 
   1   7  11   85.64    2.78 
   1   7  11   78.09    4.57 
  -2  -7 -11   14.47    1.65 
  -2  -7 -11   17.65    1.69 
  -2  -7 -11   14.67    1.45 
  -2  -7 -11   15.54    1.42 
   2   7  11   15.97    1.26 
   2   7  11   17.40    1.52 
   2   7  11   18.90    1.90 
  -3  -7 -11    4.11    0.98 
  -3  -7 -11    3.12    0.55 
  -3  -7 -11    3.13    0.73 
  -3  -7 -11    2.68    0.76 
  -3  -7 -11    2.13    0.87 
   3   7  11    2.20    0.80 
   3   7  11    2.25    0.93 
   3   7  11    3.06    0.61 
  -4  -7 -11   12.81    1.55 
  -4  -7 -11   14.99    0.98 
  -4  -7 -11   13.07    1.20 
  -4  -7 -11   12.71    1.49 
  -4  -7 -11   13.62    1.38 
   4   7  11   11.91    1.66 
   4   7  11   12.65    1.52 
  -5  -7 -11   25.97    1.26 
  -5  -7 -11   24.58    1.78 
  -5  -7 -11   26.15    1.33 
  -5  -7 -11   28.02    2.25 
   5   7  11   29.34    1.84 
   5   7  11   27.32    1.87 
  -6  -7 -11   34.68    1.46 
  -6  -7 -11   31.65    2.05 
  -6  -7 -11   32.82    2.72 
   6   7  11   35.08    2.10 
   6   7  11   33.33    1.97 
  -7  -7 -11    3.52    0.98 
  -7  -7 -11    3.57    1.07 
  -7  -7 -11    2.81    0.68 
   7   7  11    2.74    0.96 
   7   7  11    1.24    0.95 
  -8  -7 -11    3.28    0.74 
  -8  -7 -11    4.36    1.05 
  -8  -7 -11    3.07    1.11 
   8   7  11    2.56    1.14 
   8   7  11    1.63    0.82 
   9   7  11    2.16    0.94 
 -11  -7 -11   56.21    3.18 
  11   7  11   51.96    2.79 
  11   7  11   58.60    2.81 
 -12  -7 -11   81.10    4.56 
  12   7  11   77.27    3.34 
  12   7  11   76.73    3.37 
   7  -8 -11    6.44    1.34 
   7  -8 -11    4.50    1.76 
  -7   8  11    7.60    1.83 
  -7   8  11    6.93    1.81 
   6  -8 -11   37.85    2.43 
   6  -8 -11   31.69    2.76 
  -6   8  11   38.97    3.12 
  -6   8  11   44.65    3.38 
   5  -8 -11   69.03    3.00 
   5  -8 -11   76.30    3.34 
  -5   8  11   70.87    3.70 
  -5   8  11   73.00    3.49 
   4  -8 -11   88.66    3.29 
   4  -8 -11   85.97    3.65 
   4  -8 -11   91.68    3.56 
  -4   8  11   96.31    3.92 
  -4   8  11   89.43    3.63 
  -4   8  11   89.86    3.64 
  -4   8  11   82.28    2.66 
   3  -8 -11   88.45    3.41 
   3  -8 -11   82.75    3.19 
  -3   8  11   91.25    3.43 
  -3   8  11   85.56    2.75 
  -3   8  11   90.57    3.68 
   2  -8 -11  120.15    4.50 
   2  -8 -11  116.31    3.80 
   2  -8 -11  120.40    4.00 
  -2   8  11  119.32    4.25 
  -2   8  11  119.24    3.90 
  -2   8  11  112.09    3.44 
   1  -8 -11   37.19    2.00 
   1  -8 -11   41.74    2.22 
   1  -8 -11   38.69    2.23 
  -1   8  11   39.37    2.52 
  -1   8  11   37.69    1.84 
  -1   8  11   39.53    2.11 
   0  -8 -11    6.18    1.04 
   0  -8 -11    5.35    0.98 
   0  -8 -11    4.34    1.05 
   0   8  11    4.41    1.13 
   0   8  11    4.26    0.84 
   0   8  11    5.09    0.93 
  -1  -8 -11    0.26    0.78 
  -1  -8 -11    0.87    0.71 
  -1  -8 -11    1.64    1.00 
   1   8  11    1.58    0.74 
   1   8  11    0.84    0.95 
  -2  -8 -11    3.32    0.78 
  -2  -8 -11    4.25    1.19 
  -2  -8 -11    4.05    0.61 
  -2  -8 -11    2.08    0.84 
  -2  -8 -11    4.07    0.84 
   2   8  11    2.76    0.80 
   2   8  11    3.77    0.72 
   2   8  11    2.48    1.75 
  -3  -8 -11   21.55    1.43 
  -3  -8 -11   24.72    1.58 
  -3  -8 -11   24.19    1.17 
  -3  -8 -11   24.08    1.97 
  -3  -8 -11   25.22    1.85 
   3   8  11   24.38    1.26 
   3   8  11   21.50    2.32 
   3   8  11   22.35    1.68 
  -4  -8 -11   24.99    1.86 
  -4  -8 -11   24.52    1.62 
  -4  -8 -11   25.57    1.24 
  -4  -8 -11   22.57    1.80 
  -4  -8 -11   25.53    1.33 
   4   8  11   21.57    1.90 
   4   8  11   24.75    1.15 
  -5  -8 -11   10.84    1.28 
  -5  -8 -11   10.27    1.05 
  -5  -8 -11   10.10    0.92 
  -5  -8 -11    9.33    1.10 
   5   8  11    8.93    1.21 
  -6  -8 -11    6.16    0.79 
  -6  -8 -11    5.51    1.13 
  -6  -8 -11    4.63    1.02 
   6   8  11    5.90    1.40 
  -7  -8 -11   47.48    2.46 
  -7  -8 -11   52.55    2.57 
  -7  -8 -11   53.53    1.99 
   7   8  11   50.05    2.35 
  -8  -8 -11   37.83    1.79 
  -8  -8 -11   37.02    2.33 
   8   8  11   37.22    2.10 
  -9  -8 -11  150.23    4.42 
   9   8  11  150.79    4.61 
  10   8  11  135.80    4.62 
  10   8  11  142.10    4.44 
 -11  -8 -11  118.52    4.59 
  11   8  11  121.45    4.18 
  11   8  11  131.39    5.02 
 -12  -8 -11   52.71    3.98 
  12   8  11   54.97    2.91 
   6  -9 -11   73.44    3.25 
   6  -9 -11   71.86    3.53 
  -6   9  11   73.45    3.86 
  -6   9  11   73.83    3.96 
   5  -9 -11   70.17    3.05 
   5  -9 -11   73.27    3.32 
  -5   9  11   68.64    3.73 
  -5   9  11   71.72    3.54 
   4  -9 -11   69.42    2.86 
   4  -9 -11   69.43    3.11 
   4  -9 -11   62.31    3.28 
  -4   9  11   69.33    3.48 
  -4   9  11   64.11    3.20 
   3  -9 -11   29.92    2.03 
   3  -9 -11   37.80    2.40 
  -3   9  11   33.83    1.52 
  -3   9  11   34.51    2.59 
  -3   9  11   37.93    2.42 
  -3   9  11   31.37    2.39 
   2  -9 -11   10.11    1.35 
   2  -9 -11    6.96    1.06 
  -2   9  11    6.39    1.34 
  -2   9  11    6.29    1.18 
  -2   9  11    7.17    1.06 
   1  -9 -11    3.05    1.06 
   1  -9 -11    2.56    0.88 
   1  -9 -11    3.74    1.01 
  -1   9  11    1.93    1.07 
  -1   9  11    1.31    0.72 
  -1   9  11    1.66    1.10 
   0  -9 -11   13.93    1.49 
   0  -9 -11   14.16    1.45 
   0  -9 -11   13.07    1.62 
   0   9  11   12.76    1.45 
   0   9  11   14.73    1.53 
   0   9  11   12.31    1.43 
  -1  -9 -11   12.54    1.48 
  -1  -9 -11   12.26    1.63 
  -1  -9 -11   13.42    1.44 
   1   9  11   14.19    1.37 
   1   9  11   11.43    1.36 
  -2  -9 -11    2.21    0.77 
  -2  -9 -11    0.88    0.90 
  -2  -9 -11    2.89    0.86 
  -2  -9 -11    2.04    0.60 
   2   9  11    2.05    0.77 
   2   9  11    1.27    0.66 
   2   9  11    1.50    0.98 
  -3  -9 -11    9.86    1.17 
  -3  -9 -11   10.22    1.03 
  -3  -9 -11   10.42    1.27 
  -3  -9 -11   11.57    1.39 
  -3  -9 -11    9.29    1.18 
   3   9  11    9.24    1.04 
   3   9  11    8.87    1.18 
   3   9  11    9.11    1.35 
  -4  -9 -11   13.02    1.13 
  -4  -9 -11   13.06    1.42 
  -4  -9 -11   15.32    1.75 
  -4  -9 -11   13.85    1.16 
  -4  -9 -11   13.79    1.63 
   4   9  11   15.06    0.95 
  -5  -9 -11   21.95    1.91 
  -5  -9 -11   20.18    1.31 
  -5  -9 -11   17.49    1.73 
  -5  -9 -11   17.37    1.56 
  -6  -9 -11   60.34    2.77 
  -6  -9 -11   58.71    2.15 
  -6  -9 -11   57.20    2.56 
   6   9  11   57.19    2.87 
  -7  -9 -11  158.72    4.87 
  -7  -9 -11  156.35    4.52 
  -7  -9 -11  168.12    5.17 
   7   9  11  158.32    4.74 
  -8  -9 -11  129.88    3.85 
  -8  -9 -11  136.16    4.33 
   8   9  11  133.85    4.08 
   8   9  11  109.35    4.22 
  -9  -9 -11  123.48    3.94 
   9   9  11  128.90    4.39 
   9   9  11  128.16    4.08 
 -10  -9 -11   48.37    2.45 
  10   9  11   48.31    2.50 
 -11  -9 -11   25.17    2.15 
 -11  -9 -11   31.48    2.82 
  11   9  11   29.74    2.31 
 -12  -9 -11    2.78    1.28 
 -12  -9 -11    6.32    1.87 
   6 -10 -11   27.62    2.37 
   6 -10 -11   28.27    2.78 
  -6  10  11   31.83    3.28 
  -6  10  11   24.86    3.03 
   5 -10 -11    9.21    1.63 
   5 -10 -11    9.01    1.34 
  -5  10  11    9.08    1.66 
  -5  10  11    7.76    1.79 
   4 -10 -11    2.91    1.31 
   4 -10 -11    2.81    1.02 
  -4  10  11    3.28    1.41 
  -4  10  11    2.49    1.29 
   3 -10 -11   -1.01    1.13 
   3 -10 -11    2.61    1.16 
   3 -10 -11    1.28    0.94 
  -3  10  11    2.07    1.34 
  -3  10  11    0.98    1.19 
   2 -10 -11   21.56    2.02 
   2 -10 -11   16.42    1.71 
  -2  10  11   16.76    2.32 
  -2  10  11   20.57    1.93 
  -2  10  11   18.19    1.32 
   1 -10 -11    1.56    0.85 
   1 -10 -11    2.28    1.10 
   1 -10 -11    1.35    0.96 
  -1  10  11    2.54    1.10 
  -1  10  11    2.31    0.76 
  -1  10  11    3.48    1.13 
  -1  10  11    1.16    1.00 
   0 -10 -11    0.62    0.91 
   0 -10 -11    1.55    0.82 
   0 -10 -11    1.18    1.01 
   0  10  11    0.50    1.04 
   0  10  11    0.54    0.81 
   0  10  11    1.45    0.74 
  -1 -10 -11   -0.43    0.92 
  -1 -10 -11   -0.77    0.77 
  -1 -10 -11   -0.27    0.80 
   1  10  11   -0.11    0.97 
   1  10  11   -0.20    0.72 
   1  10  11   -0.75    0.73 
  -2 -10 -11   68.49    2.48 
  -2 -10 -11   65.22    2.60 
  -2 -10 -11   67.15    2.86 
  -2 -10 -11   67.82    2.26 
   2  10  11   66.67    2.29 
   2  10  11   68.58    2.98 
   2  10  11   66.45    2.85 
  -3 -10 -11   49.21    1.98 
  -3 -10 -11   49.22    2.25 
  -3 -10 -11   49.90    2.56 
  -3 -10 -11   50.48    1.94 
   3  10  11   53.96    2.57 
   3  10  11   48.63    2.42 
   3  10  11   52.52    1.83 
  -4 -10 -11  148.73    4.52 
  -4 -10 -11  153.52    4.29 
  -4 -10 -11  156.73    4.76 
  -4 -10 -11  160.07    4.93 
   4  10  11  154.05    4.80 
   4  10  11  152.79    3.97 
  -5 -10 -11  155.78    4.35 
  -5 -10 -11  151.40    4.71 
  -5 -10 -11  158.73    4.94 
  -5 -10 -11  153.99    4.57 
   5  10  11  153.57    4.77 
  -6 -10 -11  174.35    5.23 
  -6 -10 -11  182.19    5.56 
  -6 -10 -11  173.05    4.91 
   6  10  11  175.49    5.15 
  -7 -10 -11  111.62    3.54 
  -7 -10 -11  111.47    3.84 
   7  10  11  113.08    3.73 
   7  10  11  120.35    4.11 
  -8 -10 -11   37.56    1.96 
  -8 -10 -11   41.08    2.82 
   8  10  11   37.43    2.15 
   8  10  11   39.86    2.70 
  -9 -10 -11   20.98    1.81 
   9  10  11   21.10    1.94 
 -10 -10 -11    1.10    1.24 
 -10 -10 -11    1.74    1.06 
  10  10  11    3.97    0.83 
  10  10  11    2.14    1.07 
 -11 -10 -11    1.80    1.14 
 -11 -10 -11    2.05    1.50 
  11  10  11    0.26    1.09 
   6 -11 -11    1.35    1.57 
  -6  11  11   -1.03    1.60 
   5 -11 -11    6.65    1.62 
   5 -11 -11    6.06    1.30 
  -5  11  11    5.85    1.67 
  -5  11  11    5.59    1.71 
   4 -11 -11   14.55    1.80 
   4 -11 -11   16.01    1.77 
  -4  11  11   15.89    1.80 
  -4  11  11   11.22    1.72 
   3 -11 -11    8.96    1.47 
   3 -11 -11    6.43    1.17 
   3 -11 -11    8.51    1.47 
  -3  11  11    4.76    1.36 
  -3  11  11    8.87    1.64 
   2 -11 -11   13.39    1.90 
   2 -11 -11   10.45    1.28 
  -2  11  11   10.00    1.17 
  -2  11  11    8.67    1.38 
  -2  11  11   10.46    1.51 
   1 -11 -11    4.77    1.24 
   1 -11 -11    4.61    1.23 
   1 -11 -11    5.02    1.03 
  -1  11  11    5.90    1.11 
  -1  11  11    5.88    0.85 
  -1  11  11    3.62    1.22 
  -1  11  11    5.76    1.30 
   0 -11 -11   13.23    1.54 
   0 -11 -11   13.26    1.89 
   0 -11 -11   14.29    1.81 
   0  11  11   11.02    1.41 
   0  11  11   14.04    1.99 
   0  11  11   13.49    1.58 
   0  11  11   11.11    1.18 
  -1 -11 -11  134.78    4.41 
  -1 -11 -11  132.73    4.06 
  -1 -11 -11  127.89    4.13 
   1  11  11  129.21    3.87 
   1  11  11  127.96    4.45 
   1  11  11  136.90    4.55 
   1  11  11  131.95    4.38 
  -2 -11 -11  119.44    3.50 
  -2 -11 -11  119.52    4.11 
  -2 -11 -11  113.72    3.77 
   2  11  11  119.26    3.48 
   2  11  11  114.30    4.06 
   2  11  11  116.51    4.02 
   2  11  11  122.93    4.17 
  -3 -11 -11  100.99    3.73 
  -3 -11 -11   99.50    3.09 
  -3 -11 -11   95.05    3.33 
   3  11  11   98.97    3.62 
   3  11  11   93.68    3.56 
   3  11  11  100.37    2.88 
   3  11  11   97.17    3.64 
  -4 -11 -11  165.05    4.68 
  -4 -11 -11  168.19    5.30 
  -4 -11 -11  167.30    4.87 
   4  11  11  167.43    5.21 
   4  11  11  175.01    5.18 
   4  11  11  161.33    5.07 
   4  11  11  169.33    4.29 
  -5 -11 -11   96.91    3.30 
  -5 -11 -11   98.74    3.80 
  -5 -11 -11   98.55    3.12 
  -5 -11 -11   97.25    3.47 
   5  11  11   95.32    3.49 
   5  11  11   92.13    3.42 
  -6 -11 -11   67.18    2.56 
  -6 -11 -11   70.50    2.87 
   6  11  11   64.34    2.70 
   6  11  11   64.99    2.75 
  -7 -11 -11    5.40    1.16 
  -7 -11 -11    8.06    1.24 
   7  11  11    6.25    1.07 
   7  11  11    6.88    1.10 
  -8 -11 -11    0.17    0.95 
   8  11  11   -0.06    0.90 
   8  11  11    1.34    0.90 
  -9 -11 -11   -0.84    0.93 
   9  11  11    0.82    0.99 
   9  11  11    1.35    0.83 
 -10 -11 -11   10.21    1.49 
  10  11  11    9.06    1.32 
 -11 -11 -11   12.45    1.62 
 -11 -11 -11    6.83    1.56 
  11  11  11   11.56    1.47 
   5 -12 -11    6.97    1.52 
   5 -12 -11    8.43    1.76 
  -5  12  11    5.17    1.75 
  -5  12  11    7.05    1.77 
   4 -12 -11    2.06    1.41 
   4 -12 -11    1.49    1.00 
  -4  12  11    0.30    1.43 
  -4  12  11   -0.50    1.39 
   3 -12 -11    7.03    1.43 
   3 -12 -11    5.90    1.77 
   3 -12 -11    4.94    1.15 
  -3  12  11    3.93    1.41 
  -3  12  11    3.72    1.40 
   2 -12 -11   17.78    2.13 
   2 -12 -11   12.86    1.55 
   2 -12 -11   17.02    1.83 
  -2  12  11   17.30    2.16 
  -2  12  11   15.24    1.76 
  -2  12  11   14.38    1.20 
   1 -12 -11   52.02    2.51 
   1 -12 -11   54.33    2.80 
  -1  12  11   52.66    2.58 
  -1  12  11   51.38    2.07 
  -1  12  11   55.70    3.08 
  -1  12  11   52.49    2.14 
   0 -12 -11   79.54    3.03 
   0 -12 -11   78.89    3.32 
   0  12  11   83.10    3.61 
   0  12  11   73.48    3.36 
   0  12  11   76.86    2.96 
  -1 -12 -11   93.93    3.71 
  -1 -12 -11   94.02    3.37 
   1  12  11   91.05    3.14 
   1  12  11   98.63    3.68 
   1  12  11  101.11    3.83 
   1  12  11   98.38    3.81 
  -2 -12 -11   63.20    2.38 
  -2 -12 -11   69.64    3.05 
  -2 -12 -11   64.92    2.65 
   2  12  11   57.56    2.98 
   2  12  11   64.67    2.96 
   2  12  11   64.31    2.99 
   2  12  11   60.10    2.28 
  -3 -12 -11   60.43    2.59 
  -3 -12 -11   63.90    2.42 
  -3 -12 -11   64.87    3.07 
   3  12  11   58.81    2.86 
   3  12  11   66.05    2.95 
   3  12  11   60.68    2.12 
   3  12  11   64.68    2.98 
  -4 -12 -11   28.60    1.72 
  -4 -12 -11   29.20    1.88 
   4  12  11   27.41    2.31 
   4  12  11   32.05    2.20 
   4  12  11   31.11    2.19 
  -5 -12 -11    3.71    0.99 
  -5 -12 -11    2.97    0.91 
   5  12  11    3.33    1.05 
   5  12  11    4.10    1.15 
  -6 -12 -11    1.62    0.97 
   6  12  11    1.06    0.96 
   6  12  11    1.26    1.01 
  -7 -12 -11   20.41    1.79 
   7  12  11   13.74    1.79 
   7  12  11   16.51    1.83 
  -8 -12 -11    6.13    1.23 
   8  12  11    5.94    1.08 
   8  12  11    5.14    1.11 
  -9 -12 -11    1.86    1.09 
   9  12  11    0.89    1.04 
 -10 -12 -11    0.75    1.16 
  10  12  11    2.54    1.99 
   4 -13 -11   44.02    3.04 
   4 -13 -11   38.19    2.59 
  -4  13  11   48.52    3.35 
  -4  13  11   42.47    3.20 
   3 -13 -11   59.30    3.18 
   3 -13 -11   55.29    2.85 
  -3  13  11   61.39    3.25 
  -3  13  11   56.01    3.43 
   2 -13 -11   97.73    3.95 
   2 -13 -11   98.88    3.64 
  -2  13  11   98.98    3.81 
  -2  13  11  101.77    4.22 
   1 -13 -11  112.76    4.18 
   1 -13 -11  106.44    3.84 
  -1  13  11  112.56    4.44 
  -1  13  11  110.09    3.29 
  -1  13  11  111.01    3.89 
  -1  13  11  110.96    3.44 
   0 -13 -11   96.60    3.82 
   0 -13 -11   96.72    3.53 
   0  13  11  101.94    3.35 
   0  13  11   96.08    4.02 
   0  13  11   98.73    3.22 
   0  13  11   97.30    3.44 
  -1 -13 -11   26.99    1.94 
  -1 -13 -11   30.85    2.46 
   1  13  11   28.55    1.87 
   1  13  11   27.24    2.75 
   1  13  11   27.40    2.02 
   1  13  11   27.95    2.54 
   1  13  11   29.54    3.24 
  -2 -13 -11    5.65    1.30 
  -2 -13 -11    2.89    0.98 
   2  13  11    3.87    1.30 
   2  13  11    2.49    0.84 
   2  13  11    4.97    1.25 
  -3 -13 -11    0.45    0.90 
   3  13  11   -0.43    0.66 
   3  13  11   -0.63    1.03 
   3  13  11    0.73    1.20 
   3  13  11    0.56    1.05 
  -4 -13 -11    3.65    0.97 
  -4 -13 -11    4.55    1.08 
   4  13  11    4.96    1.37 
   4  13  11    4.72    1.15 
  -5 -13 -11   15.53    1.64 
  -5 -13 -11   14.10    1.68 
   5  13  11   16.72    2.06 
   5  13  11   16.13    1.64 
  -6 -13 -11    6.89    1.16 
   6  13  11    5.21    1.27 
   6  13  11    6.08    1.51 
   6  13  11    4.94    1.13 
  -7 -13 -11    2.50    1.08 
   7  13  11    0.57    1.48 
   7  13  11    3.78    1.09 
   7  13  11    2.78    1.08 
  -8 -13 -11    1.28    1.13 
   8  13  11   -0.48    1.02 
   8  13  11    3.05    1.62 
   9  13  11   18.71    2.12 
   3 -14 -11   71.82    3.54 
   3 -14 -11   70.11    3.29 
  -3  14  11   57.37    3.46 
  -3  14  11   68.61    3.70 
   2 -14 -11   58.63    3.25 
   2 -14 -11   55.66    2.76 
  -2  14  11   52.33    3.06 
  -2  14  11   53.09    3.45 
   1 -14 -11    9.60    1.35 
   1 -14 -11    8.27    1.72 
  -1  14  11    8.54    1.00 
  -1  14  11    6.44    1.35 
  -1  14  11   11.57    1.67 
   0 -14 -11    9.71    1.31 
   0  14  11   13.57    1.74 
   0  14  11    9.65    1.21 
   0  14  11    9.74    1.38 
  -1 -14 -11    1.82    1.00 
   1  14  11   -1.65    1.23 
   1  14  11    1.89    1.03 
   1  14  11    1.70    1.01 
  -2 -14 -11    6.13    1.16 
  -2 -14 -11    9.71    1.23 
   2  14  11    8.75    1.10 
   2  14  11    8.16    1.34 
   2  14  11    9.94    1.51 
  -3 -14 -11   11.88    1.30 
  -3 -14 -11   12.86    1.34 
   3  14  11   11.10    1.52 
   3  14  11   11.30    0.98 
   3  14  11   12.26    1.55 
   3  14  11   13.96    1.65 
  -4 -14 -11    2.61    1.02 
  -4 -14 -11    3.56    1.07 
   4  14  11    3.19    1.34 
   4  14  11    3.86    1.24 
   4  14  11    2.53    1.37 
  -5 -14 -11    8.82    1.24 
   5  14  11    7.50    1.56 
   5  14  11    8.34    1.35 
   5  14  11   11.70    1.54 
  -6 -14 -11    1.27    1.03 
   6  14  11    4.06    1.26 
   6  14  11    2.93    1.61 
   6  14  11    0.32    1.06 
  -7 -14 -11   24.65    2.11 
   7  14  11   23.06    3.21 
   7  14  11   28.39    2.14 
  -1  15  11   16.75    2.00 
  -1  15  11   15.52    1.75 
   0 -15 -11   -0.11    1.04 
   0  15  11    0.78    1.32 
   0  15  11    1.22    1.49 
   0  15  11    0.50    1.26 
  -1 -15 -11   18.13    1.94 
   1  15  11   23.20    2.70 
   1  15  11   20.25    2.17 
   1  15  11   15.25    1.94 
  -2 -15 -11    8.74    1.25 
   2  15  11    8.68    1.09 
   2  15  11    9.87    1.60 
   2  15  11    6.69    1.48 
  -3 -15 -11    0.81    0.99 
  -3 -15 -11   -0.01    1.00 
   3  15  11    2.04    1.38 
   3  15  11    0.44    1.33 
  -4 -15 -11    5.57    1.24 
  -4 -15 -11    5.79    1.20 
   4  15  11    5.54    1.54 
   4  15  11    4.22    1.42 
   1  -5  12   16.70    1.87 
  -2   5 -12   -0.82    1.63 
  -3   5 -12    5.57    1.76 
  -3   5 -12    7.83    1.33 
   3  -5  12    9.31    1.32 
  -4   5 -12    7.69    1.41 
  -4   5 -12    2.80    1.57 
   4  -5  12    5.72    1.25 
  -5   5 -12   -1.01    1.38 
  -5   5 -12    0.57    1.54 
   5  -5  12    1.81    1.56 
  -6   5 -12    2.08    1.55 
  -6   5 -12    3.37    1.55 
   6  -5  12   -1.38    1.36 
  -7   5 -12    4.85    2.01 
  -7   5 -12    5.89    1.54 
   7  -5  12    5.46    1.58 
  -8   5 -12   12.60    1.58 
  -9   5 -12   42.34    2.42 
   0   4 -12   -0.21    1.61 
   0  -4  12    1.08    1.05 
  -1   4 -12    8.06    1.19 
  -1   4 -12    3.88    1.65 
   1  -4  12    7.05    1.24 
  -2   4 -12   -1.08    1.44 
  -2   4 -12    1.79    1.16 
  -3   4 -12    4.42    1.52 
  -3   4 -12    0.12    1.15 
   3  -4  12    1.66    1.05 
  -4   4 -12    0.95    1.31 
  -4   4 -12   -0.52    1.35 
   4  -4  12    0.41    1.01 
  -5   4 -12    9.38    1.61 
  -5   4 -12    8.29    1.48 
   5  -4  12   10.07    1.26 
  -6   4 -12   19.62    2.69 
  -6   4 -12   23.12    2.71 
   6  -4  12   22.28    2.08 
  -7   4 -12   44.10    2.97 
  -7   4 -12   46.75    2.65 
   7  -4  12   45.72    3.04 
  -8   4 -12   64.54    4.30 
   8  -4  12   71.12    3.45 
  -9   4 -12   80.30    3.08 
   9  -4  12   78.92    3.75 
 -10   4 -12   47.64    2.40 
  10  -4  12   43.62    3.10 
   2   3 -12    0.60    1.63 
  -2  -3  12    1.72    1.15 
   1   3 -12    1.13    1.61 
  -1  -3  12    2.51    1.08 
   0   3 -12    3.10    1.58 
   0  -3  12    2.33    1.06 
  -1   3 -12    7.67    1.26 
  -1   3 -12   10.87    1.75 
   1  -3  12   10.49    1.45 
  -2   3 -12    3.16    1.17 
  -2   3 -12    4.27    1.52 
  -3   3 -12   11.51    1.55 
  -3   3 -12   10.56    1.36 
   3  -3  12   11.61    1.27 
  -4   3 -12   59.99    3.01 
  -4   3 -12   55.20    3.14 
   4  -3  12   56.58    2.56 
  -5   3 -12   85.92    3.68 
  -5   3 -12   84.74    3.59 
   5  -3  12   83.51    3.18 
  -6   3 -12   66.27    3.39 
  -6   3 -12   66.35    2.99 
  -6   3 -12   59.45    3.25 
   6  -3  12   66.97    2.86 
  -7   3 -12   57.31    3.23 
  -7   3 -12   69.36    2.97 
   7  -3  12   66.43    2.86 
  -8   3 -12   61.02    2.70 
  -8   3 -12   68.45    3.37 
   8  -3  12   58.94    2.86 
   8  -3  12   53.77    3.05 
  -9   3 -12   19.35    1.95 
   9  -3  12   16.82    1.83 
 -10   3 -12    2.95    1.09 
  10  -3  12    1.17    1.36 
  11  -3  12    3.42    1.62 
   3   2 -12    0.40    1.60 
  -3  -2  12   -0.02    1.26 
   2   2 -12    1.43    1.60 
  -2  -2  12    0.56    1.47 
   1   2 -12    0.71    1.45 
   0   2 -12    4.74    1.50 
  -1   2 -12   14.88    2.06 
  -1   2 -12   18.53    2.57 
   1  -2  12   17.99    2.28 
  -2   2 -12   69.81    2.95 
  -2   2 -12   63.22    3.30 
  -3   2 -12  102.61    3.64 
  -3   2 -12   95.06    3.54 
  -3   2 -12  101.65    4.02 
   3  -2  12  102.93    3.46 
  -4   2 -12   96.64    3.46 
  -4   2 -12   95.19    3.69 
  -4   2 -12   99.53    3.83 
   4  -2  12   97.81    3.39 
  -5   2 -12   56.95    3.01 
  -5   2 -12   59.46    3.02 
  -5   2 -12   61.21    2.68 
   5  -2  12   61.06    2.60 
  -6   2 -12   44.77    2.76 
  -6   2 -12   37.88    2.22 
  -6   2 -12   40.52    2.37 
   6  -2  12   39.94    2.21 
   6  -2  12   37.24    2.60 
  -7   2 -12   32.76    2.58 
  -7   2 -12   30.59    2.03 
  -7   2 -12   29.01    2.52 
   7  -2  12   28.68    2.11 
   7  -2  12   28.88    2.57 
  -8   2 -12    4.17    1.14 
  -8   2 -12    4.25    1.34 
   8  -2  12   -0.20    2.10 
   8  -2  12    3.62    1.09 
  -9   2 -12    7.61    1.24 
   9  -2  12    7.74    1.29 
   9  -2  12    7.10    1.38 
 -10   2 -12    6.92    1.20 
  10  -2  12    6.69    1.42 
 -11   2 -12    4.59    1.09 
  11  -2  12    8.62    1.66 
  12  -2  12    0.50    1.51 
   4   1 -12   -2.88    1.61 
  -4  -1  12    0.90    1.54 
   3   1 -12    0.81    1.59 
  -3  -1  12    2.92    1.46 
   2   1 -12   11.57    1.80 
  -2  -1  12    9.50    1.48 
   1   1 -12   35.63    2.91 
  -1  -1  12   35.36    2.46 
   0   1 -12   76.82    3.54 
   0  -1  12   79.09    3.56 
   0  -1  12   61.35    4.07 
  -1   1 -12   96.75    3.47 
  -1   1 -12   93.26    3.49 
  -1   1 -12  100.45    3.89 
   1  -1  12   89.48    3.94 
  -2   1 -12  105.31    3.57 
  -2   1 -12  101.81    3.88 
  -2   1 -12   99.54    3.55 
   2  -1  12  103.57    3.98 
   2  -1  12   79.73    4.38 
  -3   1 -12   90.04    3.62 
  -3   1 -12  101.75    3.48 
   3  -1  12   98.04    3.35 
   3  -1  12   80.11    3.60 
  -4   1 -12   38.89    2.49 
  -4   1 -12   39.10    2.53 
   4  -1  12   38.69    2.13 
  -5   1 -12   14.77    1.51 
  -5   1 -12   15.18    2.12 
   5  -1  12   16.48    1.69 
  -6   1 -12    2.77    1.16 
   6  -1  12    0.03    0.83 
  -7   1 -12    6.84    1.38 
  -7   1 -12    7.38    1.17 
   7  -1  12    4.99    1.07 
   7  -1  12    6.01    1.22 
  -8   1 -12    2.35    1.26 
  -8   1 -12    4.10    1.06 
   8  -1  12    1.41    1.13 
   8  -1  12    2.93    1.09 
  -9   1 -12    1.71    1.26 
  -9   1 -12    1.90    1.01 
   9  -1  12    2.67    1.20 
   9  -1  12    2.04    1.05 
 -10   1 -12    2.18    1.05 
  10  -1  12    2.19    1.12 
  10  -1  12    0.96    1.20 
 -11   1 -12    7.60    1.17 
  11  -1  12    7.20    1.48 
 -12   1 -12   15.03    1.73 
  12  -1  12   18.65    2.61 
 -13   1 -12   34.41    3.56 
  13  -1  12   34.87    2.98 
   4   0 -12   22.58    1.89 
   4   0 -12   18.10    2.13 
  -4   0  12   21.81    2.11 
   3   0 -12   43.35    2.19 
   3   0 -12   51.10    3.29 
  -3   0  12   48.45    3.08 
   2   0 -12   77.43    3.62 
  -2   0  12   75.20    3.35 
  -2   0  12   68.84    3.54 
   1   0 -12   93.22    3.83 
  -1   0  12   91.79    3.88 
  -1   0  12   86.59    3.53 
   0   0 -12   59.41    3.01 
   0   0 -12   56.61    2.69 
   0   0 -12   52.42    2.68 
   0   0  12   54.64    3.07 
   0   0  12   55.75    3.27 
  -1   0 -12   32.83    2.20 
  -1   0 -12   35.35    2.48 
   1   0  12   25.58    3.27 
   1   0  12   30.30    2.54 
  -2   0 -12   30.62    2.14 
  -2   0 -12   31.86    2.29 
   2   0  12   31.02    2.46 
  -3   0 -12    1.85    1.06 
  -3   0 -12    1.59    0.93 
   3   0  12   -0.46    1.03 
   3   0  12   -0.27    0.98 
  -4   0 -12    4.95    1.16 
  -4   0 -12    6.28    1.21 
  -4   0 -12    6.81    1.21 
   4   0  12    1.91    1.05 
   4   0  12    4.48    0.94 
  -5   0 -12   14.82    2.19 
  -5   0 -12   16.23    2.05 
  -5   0 -12   16.05    1.56 
   5   0  12   12.76    1.64 
  -6   0 -12   11.55    1.43 
  -6   0 -12   13.43    1.66 
  -6   0 -12   14.41    1.55 
   6   0  12   15.85    1.69 
  -7   0 -12    9.68    1.25 
  -7   0 -12   11.85    1.45 
  -7   0 -12    9.54    1.05 
   7   0  12   10.32    1.28 
  -8   0 -12    4.72    1.08 
  -8   0 -12    3.21    0.87 
  -8   0 -12    4.88    1.28 
   8   0  12    1.60    0.94 
   8   0  12    1.48    1.02 
  -9   0 -12   -0.16    0.95 
  -9   0 -12   -1.04    1.16 
   9   0  12   -0.07    1.00 
   9   0  12   -1.47    1.05 
 -10   0 -12   26.46    1.91 
  10   0  12   22.27    2.20 
  10   0  12   21.97    2.40 
 -11   0 -12   61.14    2.62 
  11   0  12   63.78    3.07 
  12   0  12   50.03    2.98 
 -13   0 -12   66.19    3.73 
  13   0  12   66.89    3.47 
   5  -1 -12   53.01    3.74 
   5  -1 -12   51.77    2.49 
  -5   1  12   46.41    3.79 
  -5   1  12   50.94    3.67 
   4  -1 -12   53.17    2.42 
   4  -1 -12   52.30    3.39 
  -4   1  12   47.94    3.32 
  -4   1  12   61.01    3.52 
  -4   1  12   45.83    3.03 
   3  -1 -12   83.92    3.79 
   3  -1 -12   82.71    2.94 
  -3   1  12   87.93    3.81 
  -3   1  12   84.28    3.80 
   2  -1 -12   88.19    3.67 
   2  -1 -12   88.67    2.95 
  -2   1  12   82.17    3.72 
  -2   1  12   84.58    3.62 
   1  -1 -12   50.59    2.14 
   1  -1 -12   43.83    2.56 
   1  -1 -12   47.60    2.79 
  -1   1  12   51.76    2.78 
  -1   1  12   48.03    2.91 
   0  -1 -12   18.42    2.16 
   0  -1 -12   19.53    1.95 
   0   1  12   19.52    2.10 
   0   1  12   21.20    2.25 
  -1  -1 -12    0.06    0.95 
  -1  -1 -12   -0.57    0.88 
   1   1  12   -1.02    1.01 
   1   1  12   -1.06    1.60 
  -2  -1 -12    9.24    1.26 
  -2  -1 -12    8.14    1.14 
   2   1  12    4.74    1.77 
   2   1  12    6.76    1.27 
  -3  -1 -12   17.62    1.93 
  -3  -1 -12   19.13    1.85 
  -3  -1 -12   18.83    1.86 
  -3  -1 -12   15.60    1.61 
   3   1  12   16.73    2.03 
  -4  -1 -12   12.26    1.71 
  -4  -1 -12    9.48    1.32 
  -4  -1 -12   11.40    1.45 
   4   1  12   10.11    1.19 
   4   1  12    8.42    1.22 
  -5  -1 -12    5.88    1.16 
  -5  -1 -12    8.80    0.98 
  -5  -1 -12    6.87    1.40 
   5   1  12    7.84    1.12 
  -6  -1 -12    2.43    0.97 
  -6  -1 -12    2.68    1.06 
  -6  -1 -12    2.94    0.78 
   6   1  12    2.58    0.92 
  -7  -1 -12   12.10    1.41 
  -7  -1 -12   13.54    1.65 
  -7  -1 -12   15.23    1.47 
   7   1  12   12.25    1.67 
  -8  -1 -12   27.62    1.96 
  -8  -1 -12   29.32    1.72 
  -8  -1 -12   26.29    2.38 
   8   1  12   27.44    2.00 
  -9  -1 -12   63.42    2.41 
  -9  -1 -12   56.94    3.10 
  -9  -1 -12   63.64    2.63 
   9   1  12   53.75    2.88 
   9   1  12   66.86    2.83 
 -10  -1 -12  161.49    4.79 
  10   1  12  159.20    5.25 
  10   1  12  164.93    5.11 
 -11  -1 -12   96.57    3.34 
  11   1  12   91.62    3.68 
 -12  -1 -12   61.51    3.68 
  12   1  12   63.00    3.06 
 -13  -1 -12   21.87    2.01 
  13   1  12   29.56    2.64 
   5  -2 -12  103.18    3.52 
   5  -2 -12  107.80    4.51 
  -5   2  12   90.05    4.24 
  -5   2  12  112.67    4.68 
  -5   2  12  103.10    4.20 
   4  -2 -12   43.49    2.26 
   4  -2 -12   44.64    3.07 
  -4   2  12   44.32    2.87 
  -4   2  12   40.42    3.23 
  -4   2  12   43.16    3.15 
   3  -2 -12   32.49    1.92 
   3  -2 -12   35.38    2.66 
  -3   2  12   29.39    2.76 
  -3   2  12   30.32    2.67 
  -3   2  12   30.08    2.41 
   2  -2 -12   25.17    2.25 
   2  -2 -12   26.78    2.36 
   2  -2 -12   26.96    1.77 
  -2   2  12   27.02    2.15 
  -2   2  12   22.35    2.48 
  -2   2  12   29.97    2.55 
   1  -2 -12    3.77    1.06 
   1  -2 -12    4.50    0.89 
   1  -2 -12    3.42    1.13 
  -1   2  12    2.08    1.16 
  -1   2  12    3.52    1.19 
   0  -2 -12   -0.11    0.94 
   0  -2 -12    1.13    0.77 
   0  -2 -12   -0.22    0.95 
   0   2  12    0.34    1.05 
   0   2  12    1.07    1.04 
  -1  -2 -12    0.11    0.88 
  -1  -2 -12    1.19    0.96 
  -1  -2 -12    0.90    0.77 
  -1  -2 -12    0.85    1.52 
   1   2  12   -0.14    0.97 
   1   2  12   -0.72    1.07 
  -2  -2 -12    1.82    0.86 
  -2  -2 -12    0.96    0.94 
  -2  -2 -12    1.74    1.00 
   2   2  12    2.71    1.02 
  -3  -2 -12    0.91    0.78 
  -3  -2 -12   -0.44    0.93 
  -3  -2 -12    0.03    0.86 
   3   2  12    0.34    0.90 
  -4  -2 -12    5.64    1.12 
  -4  -2 -12    5.61    0.91 
   4   2  12    4.75    1.03 
   4   2  12    5.51    1.03 
  -5  -2 -12   50.34    2.10 
  -5  -2 -12   52.15    2.42 
  -5  -2 -12   53.87    2.62 
   5   2  12   52.92    2.41 
   5   2  12   49.00    2.56 
  -6  -2 -12   93.22    3.21 
  -6  -2 -12   92.04    2.96 
  -6  -2 -12   89.03    3.48 
   6   2  12   92.33    3.25 
  -7  -2 -12  122.41    3.90 
  -7  -2 -12  122.56    3.61 
  -7  -2 -12  114.64    4.13 
   7   2  12  124.99    3.98 
  -8  -2 -12  171.83    4.96 
  -8  -2 -12  168.50    4.65 
   8   2  12  162.10    5.02 
  -9  -2 -12  112.52    3.75 
  -9  -2 -12  113.58    3.39 
   9   2  12  109.80    3.84 
 -10  -2 -12  130.15    3.77 
 -10  -2 -12  129.15    4.08 
  10   2  12  128.03    4.32 
  10   2  12  122.83    4.44 
 -11  -2 -12   15.48    1.84 
  11   2  12   10.10    1.38 
 -12  -2 -12   11.29    1.53 
  12   2  12   12.17    1.50 
 -13  -2 -12    8.94    1.43 
  13   2  12    8.16    1.51 
   6  -3 -12   14.08    1.92 
   6  -3 -12   17.25    2.00 
  -6   3  12   14.51    2.25 
   5  -3 -12    4.48    1.13 
   5  -3 -12    3.61    1.50 
  -5   3  12    6.33    1.83 
  -5   3  12    3.36    1.46 
  -5   3  12    2.58    1.42 
   4  -3 -12    0.15    1.23 
   4  -3 -12   -0.62    0.86 
  -4   3  12    1.56    1.44 
  -4   3  12   -1.23    1.16 
  -4   3  12    3.07    1.36 
   3  -3 -12    4.15    1.25 
   3  -3 -12    3.66    0.95 
  -3   3  12    5.38    1.21 
  -3   3  12    3.86    1.38 
  -3   3  12    5.05    1.29 
   2  -3 -12    9.01    1.42 
   2  -3 -12    9.66    1.09 
   2  -3 -12   10.81    1.38 
  -2   3  12   10.49    1.31 
  -2   3  12    9.10    1.28 
  -2   3  12   10.59    1.57 
   1  -3 -12    9.94    1.07 
  -1   3  12   10.92    1.22 
  -1   3  12   10.18    1.42 
  -1   3  12   10.53    1.31 
   0  -3 -12   20.44    2.61 
   0  -3 -12   22.50    1.59 
   0   3  12   23.26    2.06 
   0   3  12   21.30    1.79 
   0   3  12   25.98    2.22 
  -1  -3 -12    0.39    0.83 
  -1  -3 -12    0.72    1.02 
  -1  -3 -12    1.72    0.89 
  -1  -3 -12    1.84    0.81 
   1   3  12    0.35    0.90 
   1   3  12    1.32    0.99 
  -2  -3 -12    1.37    0.82 
  -2  -3 -12    1.86    0.77 
  -2  -3 -12    2.36    1.04 
  -2  -3 -12    2.59    0.94 
   2   3  12    1.14    1.17 
   2   3  12    2.92    0.98 
  -3  -3 -12   25.02    1.66 
  -3  -3 -12   25.61    1.92 
  -3  -3 -12   23.26    1.87 
   3   3  12   26.10    2.74 
   3   3  12   24.38    1.97 
  -4  -3 -12   47.18    3.50 
  -4  -3 -12   61.24    2.29 
  -4  -3 -12   65.10    2.81 
   4   3  12   58.57    2.75 
   4   3  12   62.02    2.71 
  -5  -3 -12  161.75    4.87 
  -5  -3 -12  162.12    5.09 
  -5  -3 -12  166.46    4.60 
   5   3  12  165.78    5.03 
   5   3  12  167.85    4.91 
  -6  -3 -12   37.95    2.08 
  -6  -3 -12   38.07    2.38 
  -6  -3 -12   39.66    1.78 
   6   3  12   37.12    2.25 
   6   3  12   37.98    2.13 
  -7  -3 -12   40.75    2.20 
  -7  -3 -12   40.42    2.00 
   7   3  12   45.56    2.25 
  -8  -3 -12   68.60    2.79 
   8   3  12   67.05    2.81 
  -9  -3 -12   -1.23    0.97 
  -9  -3 -12    1.20    0.85 
   9   3  12    0.16    0.86 
 -10  -3 -12    1.43    0.88 
 -10  -3 -12    2.55    1.09 
 -10  -3 -12    2.77    1.17 
  10   3  12    2.35    1.09 
  10   3  12    1.11    1.12 
 -11  -3 -12   24.37    2.48 
  11   3  12   26.68    2.30 
 -12  -3 -12   28.49    2.13 
  12   3  12   28.47    2.26 
  12   3  12   28.53    2.57 
 -13  -3 -12   12.66    1.30 
  13   3  12   16.45    2.19 
  14   3  12    7.97    1.51 
   6  -4 -12   -0.62    1.02 
   6  -4 -12   -0.78    1.37 
  -6   4  12   -0.38    1.82 
  -6   4  12    3.87    1.66 
   5  -4 -12    7.30    1.15 
   5  -4 -12    5.25    1.46 
  -5   4  12   11.24    1.95 
  -5   4  12    7.66    1.45 
  -5   4  12    6.90    1.53 
   4  -4 -12   12.17    1.29 
  -4   4  12   11.69    1.46 
  -4   4  12    9.79    1.74 
   3  -4 -12   14.93    1.64 
   3  -4 -12   17.40    2.04 
   3  -4 -12   16.47    2.13 
  -3   4  12   14.98    1.53 
  -3   4  12   13.31    1.44 
  -3   4  12   15.30    1.72 
   2  -4 -12    2.66    1.05 
   2  -4 -12    1.45    1.04 
   2  -4 -12    1.43    0.82 
  -2   4  12    0.09    1.18 
  -2   4  12    0.64    1.04 
  -2   4  12    1.09    1.03 
   1  -4 -12   -0.07    0.72 
   1  -4 -12    0.61    1.19 
  -1   4  12   -0.23    0.95 
  -1   4  12   -0.95    1.08 
  -1   4  12    1.04    0.92 
   0  -4 -12    5.89    0.91 
   0  -4 -12    6.26    1.13 
   0  -4 -12    6.43    1.27 
   0   4  12    5.56    1.06 
   0   4  12    5.85    1.24 
   0   4  12    4.61    0.97 
  -1  -4 -12   93.62    3.30 
  -1  -4 -12   99.44    3.53 
  -1  -4 -12   96.01    3.49 
  -1  -4 -12   94.30    3.15 
   1   4  12   97.43    3.60 
   1   4  12   96.91    3.24 
   1   4  12   96.12    3.46 
  -2  -4 -12  115.54    3.65 
  -2  -4 -12  117.35    3.70 
  -2  -4 -12  122.67    4.01 
  -2  -4 -12  117.83    3.92 
   2   4  12  122.77    4.19 
   2   4  12  117.88    3.93 
  -3  -4 -12  165.80    5.04 
  -3  -4 -12  162.92    5.15 
  -3  -4 -12  169.95    4.76 
   3   4  12  169.10    5.42 
   3   4  12  172.00    5.04 
  -4  -4 -12  125.76    3.74 
  -4  -4 -12  130.04    4.16 
   4   4  12  126.62    4.26 
   4   4  12  126.05    4.11 
  -5  -4 -12  117.91    3.97 
  -5  -4 -12  126.75    4.98 
  -5  -4 -12  106.90    4.33 
   5   4  12  124.48    4.02 
   5   4  12  128.75    3.98 
  -6  -4 -12   96.02    3.41 
  -6  -4 -12  100.00    2.98 
   6   4  12   91.73    3.42 
   6   4  12   96.66    3.38 
  -7  -4 -12   34.55    2.09 
  -7  -4 -12   36.44    1.65 
   7   4  12   35.92    2.07 
  -8  -4 -12    6.54    0.80 
  -8  -4 -12    6.15    1.16 
   8   4  12    5.85    1.05 
  -9  -4 -12   13.71    2.45 
  -9  -4 -12   13.36    1.20 
   9   4  12    9.98    1.22 
 -10  -4 -12   12.11    1.74 
 -10  -4 -12    7.10    1.39 
 -10  -4 -12   12.81    1.22 
  10   4  12    9.01    1.33 
  10   4  12    9.72    1.28 
 -11  -4 -12   26.15    1.51 
 -11  -4 -12   24.28    1.77 
  11   4  12   23.78    2.28 
 -12  -4 -12    6.08    0.91 
 -12  -4 -12    4.78    0.95 
  12   4  12    6.01    1.32 
 -13  -4 -12   -0.57    0.93 
  13   4  12   -0.16    1.18 
   6  -5 -12    1.49    1.07 
   6  -5 -12   -1.65    1.90 
  -6   5  12    5.13    1.63 
  -6   5  12    5.27    1.93 
   5  -5 -12    5.27    1.81 
   5  -5 -12    2.33    1.02 
  -5   5  12    1.62    1.14 
  -5   5  12    4.24    1.52 
  -5   5  12    4.28    1.73 
   4  -5 -12    0.44    1.53 
   4  -5 -12   -0.03    0.88 
  -4   5  12    0.94    1.46 
  -4   5  12    2.10    1.06 
  -4   5  12   -0.43    1.22 
   3  -5 -12    9.12    1.15 
   3  -5 -12    6.81    1.33 
   3  -5 -12    8.64    1.61 
  -3   5  12    7.90    1.22 
  -3   5  12    9.38    1.38 
  -3   5  12    8.51    1.57 
   2  -5 -12   36.09    2.02 
   2  -5 -12   39.99    2.64 
  -2   5  12   40.54    2.75 
  -2   5  12   33.65    2.16 
  -2   5  12   36.59    2.25 
   1  -5 -12   61.20    2.89 
   1  -5 -12   58.19    2.38 
  -1   5  12   61.92    3.03 
  -1   5  12   53.04    2.54 
  -1   5  12   58.80    2.57 
   0  -5 -12  137.25    4.43 
   0  -5 -12  132.19    4.00 
   0  -5 -12  126.01    4.16 
   0   5  12  139.34    4.52 
   0   5  12  124.01    4.09 
   0   5  12  134.46    4.17 
  -1  -5 -12  248.89    6.91 
  -1  -5 -12  245.66    6.68 
  -1  -5 -12  242.04    6.82 
  -1  -5 -12  243.65    6.58 
   1   5  12  248.85    6.74 
   1   5  12  242.43    6.94 
   1   5  12  243.54    6.51 
  -2  -5 -12  178.11    5.29 
  -2  -5 -12  174.44    5.06 
  -2  -5 -12  183.90    5.41 
  -2  -5 -12  183.37    5.13 
   2   5  12  183.08    4.97 
   2   5  12  179.53    5.26 
   2   5  12  183.30    5.47 
  -3  -5 -12   89.93    3.32 
  -3  -5 -12   87.48    3.05 
  -3  -5 -12   96.49    3.08 
  -3  -5 -12   93.29    3.35 
   3   5  12   91.95    3.28 
   3   5  12   94.03    3.48 
  -4  -5 -12   40.33    3.40 
   4   5  12   48.36    2.43 
   4   5  12   47.18    2.34 
  -5  -5 -12   18.15    0.94 
  -5  -5 -12   21.49    1.41 
   5   5  12   18.24    1.80 
   5   5  12   19.16    1.79 
  -6  -5 -12    1.61    0.63 
  -6  -5 -12    0.36    0.48 
   6   5  12   -0.07    0.78 
   6   5  12   -0.20    0.84 
   7   5  12    1.51    0.91 
   7   5  12    1.12    0.83 
  -8  -5 -12    0.85    0.60 
  -8  -5 -12    1.62    1.00 
   8   5  12    0.38    0.88 
  -9  -5 -12    0.37    1.01 
  -9  -5 -12    0.97    0.62 
  -9  -5 -12    0.26    1.04 
   9   5  12   -0.44    0.87 
 -10  -5 -12    1.06    1.12 
 -10  -5 -12    1.02    1.22 
 -10  -5 -12    1.24    0.60 
  10   5  12   -0.13    1.19 
  10   5  12    0.97    0.98 
 -11  -5 -12    4.52    2.50 
  11   5  12    6.03    1.28 
  13   5  12   49.08    2.86 
  13   5  12   44.54    3.85 
   6  -6 -12    0.55    1.89 
   6  -6 -12    0.80    1.06 
  -6   6  12   -2.12    1.68 
  -6   6  12    3.10    1.44 
   5  -6 -12   15.24    1.84 
   5  -6 -12   12.02    2.08 
  -5   6  12   14.64    2.01 
  -5   6  12   23.36    2.57 
  -5   6  12   13.36    1.85 
   4  -6 -12   69.81    3.50 
   4  -6 -12   59.73    2.70 
  -4   6  12   64.05    3.19 
  -4   6  12   60.89    2.67 
  -4   6  12   66.89    3.62 
   3  -6 -12   88.47    3.64 
   3  -6 -12   97.06    3.95 
   3  -6 -12   90.35    3.31 
  -3   6  12   94.77    3.59 
  -3   6  12   98.01    4.04 
  -3   6  12   93.13    3.25 
   2  -6 -12  109.91    3.74 
   2  -6 -12  118.82    4.26 
  -2   6  12  113.54    3.73 
  -2   6  12  121.19    4.42 
  -2   6  12  115.64    3.92 
   1  -6 -12  173.05    5.13 
   1  -6 -12  182.90    5.48 
  -1   6  12  176.38    5.12 
  -1   6  12  180.45    5.60 
  -1   6  12  176.45    5.17 
   0  -6 -12  168.54    4.96 
   0  -6 -12  170.30    5.23 
   0  -6 -12  176.11    5.17 
   0   6  12  171.37    5.02 
   0   6  12  182.44    5.51 
  -1  -6 -12   84.97    3.24 
  -1  -6 -12   81.28    3.14 
  -1  -6 -12   78.98    3.00 
  -1  -6 -12   79.08    2.88 
   1   6  12   81.21    3.33 
   1   6  12   83.94    2.84 
   1   6  12   87.22    3.07 
  -2  -6 -12   24.70    1.73 
  -2  -6 -12   24.92    1.87 
  -2  -6 -12   25.62    1.64 
   2   6  12   27.88    1.56 
   2   6  12   23.46    1.87 
   2   6  12   22.60    2.06 
  -3  -6 -12    1.92    0.80 
  -3  -6 -12    1.74    0.80 
  -3  -6 -12    0.18    0.88 
   3   6  12    0.65    0.84 
   3   6  12    1.66    0.94 
   3   6  12    1.41    0.66 
  -4  -6 -12    1.25    0.95 
  -4  -6 -12    3.03    0.80 
  -4  -6 -12   -0.32    0.74 
  -4  -6 -12    2.70    0.48 
   4   6  12    1.58    0.85 
   4   6  12    1.84    0.95 
  -5  -6 -12   10.98    1.25 
  -5  -6 -12   12.10    0.92 
  -5  -6 -12   10.89    1.26 
   5   6  12   10.26    1.25 
   5   6  12   10.62    1.24 
  -6  -6 -12   37.34    1.45 
  -6  -6 -12   38.31    2.20 
  -6  -6 -12   35.24    1.69 
  -6  -6 -12   35.94    2.30 
   6   6  12   39.88    2.26 
   6   6  12   39.04    2.15 
  -7  -6 -12   10.45    1.13 
  -7  -6 -12   10.82    1.37 
  -7  -6 -12   10.70    1.02 
   7   6  12    9.93    1.17 
   7   6  12   11.29    1.29 
  -8  -6 -12    2.23    1.12 
  -8  -6 -12    2.48    0.60 
   8   6  12    2.24    1.22 
   8   6  12    2.04    0.95 
  -9  -6 -12   14.43    1.94 
   9   6  12   10.74    1.25 
 -10  -6 -12   49.04    2.71 
 -10  -6 -12   51.60    2.94 
  10   6  12   48.20    2.60 
 -11  -6 -12   87.69    4.26 
  11   6  12   85.61    3.48 
  12   6  12   95.28    3.80 
  12   6  12  101.04    3.89 
  13   6  12   68.11    3.36 
  13   6  12   61.30    2.70 
   6  -7 -12   33.64    2.41 
   6  -7 -12   26.70    3.30 
  -6   7  12   33.95    3.08 
  -6   7  12   36.64    3.45 
   5  -7 -12   93.45    3.67 
   5  -7 -12   92.23    4.31 
  -5   7  12   99.39    4.48 
  -5   7  12  110.28    3.94 
  -5   7  12   98.16    4.14 
   4  -7 -12  123.15    4.19 
   4  -7 -12  137.50    4.76 
  -4   7  12  128.81    4.94 
  -4   7  12  127.07    3.86 
  -4   7  12  125.72    4.53 
   3  -7 -12  110.41    3.81 
   3  -7 -12  105.92    4.14 
   3  -7 -12  122.28    4.29 
  -3   7  12  116.01    3.78 
  -3   7  12  113.90    4.10 
  -3   7  12  117.17    4.50 
   2  -7 -12  105.78    3.84 
   2  -7 -12   99.83    3.48 
  -2   7  12  101.40    4.08 
  -2   7  12  100.55    3.64 
   1  -7 -12   56.72    2.72 
   1  -7 -12   55.60    3.17 
   1  -7 -12   56.96    2.45 
  -1   7  12   54.53    2.51 
  -1   7  12   54.77    2.36 
  -1   7  12   56.83    3.06 
   0  -7 -12   20.26    1.59 
   0  -7 -12   15.84    1.84 
   0  -7 -12   18.86    1.84 
   0   7  12   16.60    1.68 
   0   7  12   16.05    2.14 
   0   7  12   16.99    1.67 
  -1  -7 -12    7.53    1.11 
  -1  -7 -12    5.87    0.99 
  -1  -7 -12    7.35    1.18 
   1   7  12    5.55    0.90 
   1   7  12    5.00    0.98 
   1   7  12    5.70    1.19 
  -2  -7 -12   16.87    1.76 
  -2  -7 -12   17.31    1.61 
  -2  -7 -12   14.34    1.51 
   2   7  12   16.98    1.97 
   2   7  12   15.55    1.36 
   2   7  12   15.25    1.66 
  -3  -7 -12    8.47    0.83 
  -3  -7 -12    9.15    1.20 
  -3  -7 -12    9.14    1.06 
  -3  -7 -12    9.99    1.25 
   3   7  12    7.99    0.84 
   3   7  12    7.93    1.07 
   3   7  12    7.72    1.20 
  -4  -7 -12   10.06    1.02 
  -4  -7 -12    9.62    1.23 
  -4  -7 -12   10.88    1.24 
  -4  -7 -12    8.53    1.05 
  -4  -7 -12   10.93    0.87 
   4   7  12   10.45    1.26 
   4   7  12    8.52    1.09 
  -5  -7 -12    9.81    1.29 
  -5  -7 -12    8.78    1.47 
  -5  -7 -12   10.81    0.97 
  -5  -7 -12    8.63    1.13 
   5   7  12   12.39    1.70 
   5   7  12    8.66    1.14 
  -6  -7 -12   -0.20    0.59 
  -6  -7 -12    0.02    0.94 
  -6  -7 -12    1.48    1.08 
  -6  -7 -12    1.35    0.61 
   6   7  12    0.02    0.84 
  -7  -7 -12   21.72    1.98 
  -7  -7 -12   24.60    1.33 
   7   7  12   20.87    1.87 
  -8  -7 -12   50.31    2.58 
  -8  -7 -12   42.93    1.85 
   8   7  12   46.73    2.36 
 -10  -7 -12  110.61    4.24 
  10   7  12  108.38    4.01 
  10   7  12  115.15    3.93 
 -11  -7 -12   76.33    3.97 
  11   7  12   70.88    3.14 
  11   7  12   66.95    3.17 
  12   7  12   68.33    3.28 
   6  -8 -12   73.82    3.29 
   6  -8 -12   60.37    3.75 
  -6   8  12   71.99    3.82 
  -6   8  12   78.48    4.14 
   5  -8 -12   64.79    3.49 
   5  -8 -12   64.57    3.04 
  -5   8  12   71.18    3.90 
  -5   8  12   69.47    3.58 
   4  -8 -12   41.00    2.77 
   4  -8 -12   31.50    2.25 
  -4   8  12   34.97    3.13 
  -4   8  12   37.77    1.99 
  -4   8  12   38.93    2.81 
   3  -8 -12   15.80    1.72 
   3  -8 -12   14.94    1.67 
   3  -8 -12   17.85    1.86 
  -3   8  12   12.94    1.54 
  -3   8  12   13.59    1.81 
  -3   8  12   12.09    1.52 
   2  -8 -12   -1.05    1.00 
   2  -8 -12    2.52    1.20 
   2  -8 -12    2.09    0.91 
  -2   8  12    1.48    1.33 
  -2   8  12    2.20    0.84 
  -2   8  12    2.97    1.12 
   1  -8 -12   11.91    1.67 
   1  -8 -12    9.94    1.13 
   1  -8 -12   13.32    1.89 
  -1   8  12    8.16    1.16 
  -1   8  12    8.82    1.44 
   0  -8 -12   32.52    2.12 
   0  -8 -12   32.80    1.95 
   0  -8 -12   33.33    2.22 
   0   8  12   34.36    1.99 
   0   8  12   31.12    1.92 
   0   8  12   34.76    2.43 
  -1  -8 -12   17.30    1.57 
  -1  -8 -12   15.89    1.83 
  -1  -8 -12   14.88    1.65 
   1   8  12   16.74    1.51 
   1   8  12   17.82    1.62 
   1   8  12   14.82    2.04 
  -2  -8 -12   42.87    2.11 
  -2  -8 -12   45.40    2.38 
  -2  -8 -12   46.02    2.15 
   2   8  12   44.83    1.90 
   2   8  12   44.88    2.54 
   2   8  12   43.90    2.16 
  -3  -8 -12    1.25    0.78 
  -3  -8 -12    2.11    0.96 
  -3  -8 -12    0.03    0.51 
  -3  -8 -12   -0.69    0.76 
   3   8  12    0.61    0.93 
   3   8  12    0.40    0.82 
   3   8  12   -0.42    0.57 
  -4  -8 -12    0.78    0.54 
  -4  -8 -12    0.71    0.69 
  -4  -8 -12    0.24    0.75 
  -4  -8 -12    1.01    1.04 
  -4  -8 -12   -0.59    0.91 
   4   8  12   -0.79    0.88 
   4   8  12    0.73    0.84 
  -5  -8 -12   17.08    2.08 
  -5  -8 -12   15.73    1.84 
  -5  -8 -12   15.06    1.24 
  -5  -8 -12   15.85    1.16 
   5   8  12   18.58    1.88 
  -6  -8 -12   75.76    2.30 
  -6  -8 -12   77.61    3.16 
  -6  -8 -12   79.91    2.51 
   6   8  12   83.04    3.08 
  -7  -8 -12   88.87    3.38 
  -7  -8 -12   80.07    2.66 
   7   8  12   81.77    3.13 
  -8  -8 -12   97.99    3.69 
  -8  -8 -12   92.65    3.00 
   8   8  12   94.18    3.40 
  -9  -8 -12  115.11    3.62 
   9   8  12  119.93    4.14 
   9   8  12  119.47    4.00 
 -10  -8 -12   41.77    2.12 
 -10  -8 -12   36.95    2.81 
  10   8  12   37.20    2.52 
  10   8  12   43.43    2.45 
 -11  -8 -12   14.76    2.05 
  11   8  12   15.00    1.55 
  12   8  12    1.72    1.26 
   6  -9 -12   21.57    2.92 
   6  -9 -12   22.98    2.27 
  -6   9  12   28.07    3.38 
   5  -9 -12    3.11    1.13 
   5  -9 -12    3.46    1.62 
  -5   9  12    1.30    1.57 
  -5   9  12    2.91    1.63 
   4  -9 -12    2.45    1.09 
   4  -9 -12    0.92    1.38 
  -4   9  12    0.35    1.30 
  -4   9  12   -1.76    1.35 
   3  -9 -12    3.25    1.29 
   3  -9 -12    7.01    1.44 
   3  -9 -12    3.77    1.05 
  -3   9  12    5.36    1.48 
  -3   9  12    5.77    1.32 
   2  -9 -12   10.19    1.47 
   2  -9 -12    2.94    1.14 
   2  -9 -12    6.32    1.10 
  -2   9  12    7.64    1.25 
  -2   9  12    6.18    0.93 
  -2   9  12    9.26    1.59 
   1  -9 -12   23.05    1.77 
   1  -9 -12   22.10    2.50 
   1  -9 -12   20.77    2.09 
  -1   9  12   20.03    1.64 
  -1   9  12   18.27    2.42 
  -1   9  12   22.38    1.94 
   0  -9 -12   18.43    1.95 
   0  -9 -12   16.18    1.54 
   0  -9 -12   16.62    1.64 
   0   9  12   12.11    1.53 
   0   9  12   16.71    1.72 
   0   9  12   18.33    1.70 
  -1  -9 -12    0.21    0.90 
  -1  -9 -12   -0.39    0.75 
  -1  -9 -12    1.21    1.00 
   1   9  12   -0.61    1.01 
   1   9  12    0.96    0.79 
   1   9  12   -0.33    0.81 
  -2  -9 -12   10.33    1.35 
  -2  -9 -12    9.92    1.15 
  -2  -9 -12    9.58    1.12 
   2   9  12    8.89    1.31 
   2   9  12    8.59    1.09 
   2   9  12   11.48    1.29 
  -3  -9 -12   68.45    2.70 
  -3  -9 -12   71.87    2.55 
  -3  -9 -12   71.22    2.99 
  -3  -9 -12   71.93    2.26 
   3   9  12   74.66    3.14 
   3   9  12   73.47    2.81 
   3   9  12   70.58    2.34 
  -4  -9 -12  156.26    4.67 
  -4  -9 -12  144.55    4.69 
  -4  -9 -12  140.68    4.39 
  -4  -9 -12  144.40    3.99 
   4   9  12  147.23    4.74 
   4   9  12  145.99    3.89 
  -5  -9 -12   99.87    3.44 
  -5  -9 -12  106.50    3.08 
  -5  -9 -12  108.13    3.78 
  -5  -9 -12   98.73    2.90 
   5   9  12  101.90    3.70 
  -6  -9 -12  112.06    3.40 
  -6  -9 -12  120.33    4.14 
   6   9  12  116.13    3.91 
  -7  -9 -12  132.17    4.47 
  -7  -9 -12  131.45    3.81 
   7   9  12  135.81    4.22 
   7   9  12  119.88    4.31 
  -8  -9 -12   55.66    2.93 
  -8  -9 -12   50.19    2.15 
   8   9  12   52.28    2.68 
   8   9  12   52.07    2.50 
  -9  -9 -12    9.03    1.47 
  -9  -9 -12   12.19    1.20 
   9   9  12    9.05    1.78 
   9   9  12   14.66    1.86 
 -10  -9 -12   -0.12    0.96 
 -10  -9 -12    1.93    1.39 
  10   9  12    1.96    1.07 
 -11  -9 -12    2.23    1.81 
 -11  -9 -12    0.94    1.02 
  11   9  12   -0.48    1.10 
 -12  -9 -12    9.64    1.49 
  12   9  12   11.08    1.54 
   5 -10 -12   13.30    1.94 
   5 -10 -12    9.93    1.42 
  -5  10  12    4.84    1.78 
  -5  10  12    8.91    1.82 
   4 -10 -12   12.49    1.76 
   4 -10 -12   10.37    1.39 
  -4  10  12    9.74    1.65 
  -4  10  12    7.94    1.73 
   3 -10 -12   19.04    1.95 
   3 -10 -12   20.30    2.34 
   3 -10 -12   20.51    2.31 
  -3  10  12   19.46    1.27 
  -3  10  12   17.14    1.94 
  -3  10  12   16.93    1.76 
   2 -10 -12    1.84    1.24 
   2 -10 -12   -0.21    1.15 
   2 -10 -12    0.28    0.90 
  -2  10  12    0.82    1.35 
  -2  10  12    0.60    0.73 
  -2  10  12   -0.13    1.10 
   1 -10 -12    8.00    1.12 
   1 -10 -12   10.47    1.44 
  -1  10  12    9.19    1.49 
  -1  10  12    9.78    1.03 
  -1  10  12    8.89    1.23 
   0 -10 -12   20.26    2.08 
   0 -10 -12   19.04    1.75 
   0 -10 -12   20.27    1.98 
   0  10  12   22.03    2.04 
   0  10  12   20.24    2.38 
  -1 -10 -12   79.75    3.27 
  -1 -10 -12   79.58    2.95 
  -1 -10 -12   73.38    2.96 
   1  10  12   77.74    2.83 
   1  10  12   79.39    3.46 
   1  10  12   83.75    2.83 
  -2 -10 -12  185.53    5.20 
  -2 -10 -12  183.66    5.39 
  -2 -10 -12  186.48    5.66 
   2  10  12  188.41    5.06 
   2  10  12  192.23    5.79 
   2  10  12  182.97    5.30 
  -3 -10 -12  182.23    4.99 
  -3 -10 -12  186.09    4.88 
  -3 -10 -12  178.61    5.54 
  -3 -10 -12  178.10    5.26 
   3  10  12  180.55    4.82 
   3  10  12  186.88    5.63 
   3  10  12  181.72    5.54 
  -4 -10 -12  202.55    5.96 
  -4 -10 -12  195.41    5.60 
  -4 -10 -12  173.91    5.57 
  -4 -10 -12  203.04    5.25 
   4  10  12  206.28    5.95 
   4  10  12  200.05    5.04 
  -5 -10 -12  116.25    4.15 
  -5 -10 -12  115.43    3.80 
  -5 -10 -12  118.23    3.47 
   5  10  12  116.12    4.05 
  -6 -10 -12   67.59    3.11 
  -6 -10 -12   68.19    2.46 
   6  10  12   68.43    2.90 
  -7 -10 -12   12.25    1.15 
  -7 -10 -12   12.61    1.65 
   7  10  12   12.90    1.31 
   7  10  12   14.61    1.97 
  -8 -10 -12   -0.33    0.99 
  -8 -10 -12    2.96    0.86 
   8  10  12   -0.07    0.91 
  -9 -10 -12    5.03    1.08 
  -9 -10 -12    3.98    1.24 
   9  10  12    3.91    1.14 
 -10 -10 -12    6.97    1.17 
 -10 -10 -12    6.96    1.52 
  10  10  12    9.61    1.32 
 -11 -10 -12    7.72    1.35 
 -11 -10 -12    2.94    2.85 
  11  10  12    3.10    1.28 
   5 -11 -12   11.64    1.90 
  -5  11  12    5.88    1.67 
   4 -11 -12   -0.24    1.02 
   4 -11 -12    2.22    1.50 
  -4  11  12    0.86    1.49 
  -4  11  12    0.33    1.44 
   3 -11 -12    8.15    1.25 
   3 -11 -12    8.97    1.64 
  -3  11  12    6.80    1.46 
  -3  11  12    6.47    1.63 
   2 -11 -12   15.86    2.20 
   2 -11 -12   18.26    1.83 
   2 -11 -12   15.43    1.76 
  -2  11  12   19.45    2.68 
  -2  11  12   21.14    2.21 
  -2  11  12   17.77    1.62 
   1 -11 -12   31.42    2.11 
   1 -11 -12   30.06    2.40 
  -1  11  12   31.75    2.21 
  -1  11  12   30.34    2.77 
  -1  11  12   31.02    1.79 
   0 -11 -12  145.73    4.65 
   0 -11 -12  148.99    4.89 
   0 -11 -12  145.49    4.63 
   0  11  12  159.61    5.46 
   0  11  12  139.24    4.83 
   0  11  12  153.47    5.13 
   0  11  12  143.85    4.38 
  -1 -11 -12  191.64    5.81 
  -1 -11 -12  177.91    5.46 
  -1 -11 -12  193.60    5.48 
   1  11  12  188.20    5.94 
   1  11  12  184.67    5.84 
   1  11  12  188.87    5.25 
   1  11  12  195.36    5.34 
  -2 -11 -12  100.21    3.83 
  -2 -11 -12  101.08    3.39 
  -2 -11 -12  102.31    3.54 
   2  11  12  102.32    3.19 
   2  11  12  104.29    3.97 
   2  11  12  104.99    3.48 
  -3 -11 -12   69.21    3.10 
  -3 -11 -12   65.88    2.71 
  -3 -11 -12   66.14    2.34 
   3  11  12   64.40    3.01 
   3  11  12   64.22    3.09 
   3  11  12   66.04    2.25 
  -4 -11 -12   35.58    2.05 
  -4 -11 -12   36.58    1.76 
  -4 -11 -12   39.57    2.53 
   4  11  12   39.05    2.45 
   4  11  12   37.87    1.47 
   4  11  12   36.39    2.38 
  -5 -11 -12   10.71    1.22 
  -5 -11 -12   11.38    1.31 
  -5 -11 -12   12.38    1.62 
   5  11  12    7.73    1.52 
   5  11  12   10.48    1.31 
  -6 -11 -12    1.84    1.11 
  -6 -11 -12    0.28    0.78 
  -6 -11 -12    1.26    1.24 
   6  11  12   -1.38    0.93 
  -7 -11 -12    8.78    1.14 
   7  11  12    7.70    1.20 
  -8 -11 -12   12.10    1.33 
   8  11  12   12.60    1.37 
  -9 -11 -12    6.87    1.37 
  -9 -11 -12    4.86    1.10 
   9  11  12    4.29    1.17 
   9  11  12    7.70    1.10 
 -10 -11 -12    1.53    1.38 
 -10 -11 -12    2.11    1.17 
  10  11  12    2.27    1.22 
   4 -12 -12   47.39    3.15 
   4 -12 -12   46.99    3.10 
  -4  12  12   48.57    3.25 
  -4  12  12   44.38    3.44 
   3 -12 -12   81.94    3.70 
   3 -12 -12   80.22    3.38 
  -3  12  12   81.59    3.61 
  -3  12  12   76.22    4.03 
   2 -12 -12  119.20    4.19 
   2 -12 -12  127.39    4.53 
   2 -12 -12  114.79    4.53 
  -2  12  12  123.80    4.30 
  -2  12  12  129.49    4.85 
   1 -12 -12  135.50    4.49 
   1 -12 -12  137.28    4.73 
  -1  12  12  138.22    4.42 
  -1  12  12  135.63    5.02 
  -1  12  12  135.75    3.94 
   0 -12 -12   78.57    3.19 
   0 -12 -12   78.25    3.11 
   0 -12 -12   75.11    3.39 
   0  12  12   76.34    2.98 
   0  12  12   71.57    3.62 
   0  12  12   77.01    2.78 
  -1 -12 -12   37.45    2.62 
  -1 -12 -12   38.67    2.20 
   1  12  12   35.83    2.79 
   1  12  12   39.95    2.13 
   1  12  12   43.54    3.47 
   1  12  12   37.30    2.05 
  -2 -12 -12   12.05    1.31 
  -2 -12 -12   12.25    1.67 
   2  12  12   10.79    1.45 
   2  12  12   13.58    1.98 
   2  12  12   12.43    1.64 
   2  12  12   12.27    1.39 
  -3 -12 -12   -0.78    1.12 
  -3 -12 -12    0.12    0.91 
  -3 -12 -12    0.78    0.78 
   3  12  12    0.74    1.13 
   3  12  12    1.15    1.15 
   3  12  12    0.00    0.66 
  -4 -12 -12    5.75    1.05 
  -4 -12 -12    4.89    1.39 
  -4 -12 -12    2.78    0.89 
   4  12  12    4.43    0.63 
   4  12  12    5.43    1.26 
   4  12  12    3.57    1.19 
  -5 -12 -12    8.52    1.04 
  -5 -12 -12    5.31    1.10 
   5  12  12    6.15    1.31 
   5  12  12    7.80    1.29 
   6  12  12   14.79    1.99 
   6  12  12   17.70    2.02 
  -7 -12 -12    3.60    1.06 
  -7 -12 -12    0.45    1.15 
   7  12  12    2.36    1.11 
   7  12  12    2.44    1.07 
  -8 -12 -12   -0.93    1.24 
  -8 -12 -12   -0.06    0.94 
   8  12  12    1.76    1.05 
   8  12  12    2.04    1.07 
  -9 -12 -12   12.42    1.44 
  -9 -12 -12   11.24    1.59 
   9  12  12   12.76    1.45 
  10  12  12   32.06    2.53 
   3 -13 -12   92.39    3.81 
   3 -13 -12   95.55    4.07 
  -3  13  12   92.49    4.35 
  -3  13  12   90.05    3.97 
   2 -13 -12   85.84    3.46 
   2 -13 -12   90.88    3.87 
  -2  13  12   83.10    4.15 
  -2  13  12   80.57    3.59 
   1 -13 -12   57.80    3.21 
   1 -13 -12   61.00    2.81 
  -1  13  12   57.65    2.87 
  -1  13  12   60.23    3.57 
  -1  13  12   57.34    2.34 
   0 -13 -12   16.93    1.89 
   0 -13 -12   14.91    1.80 
   0  13  12   12.05    1.65 
   0  13  12   13.35    1.78 
   0  13  12   14.74    1.87 
   0  13  12   14.55    1.79 
  -1 -13 -12    0.14    0.91 
  -1 -13 -12    0.94    1.31 
   1  13  12    0.60    1.31 
   1  13  12   -0.35    0.96 
   1  13  12    1.09    1.00 
  -2 -13 -12    6.32    1.17 
  -2 -13 -12    8.88    1.59 
   2  13  12    6.54    1.49 
   2  13  12    7.79    1.04 
  -3 -13 -12   13.55    1.82 
  -3 -13 -12   12.22    1.36 
   3  13  12   11.94    1.34 
   3  13  12   14.36    1.63 
   3  13  12   14.09    1.66 
  -4 -13 -12    9.31    1.22 
  -4 -13 -12   10.32    1.33 
   4  13  12   10.36    1.55 
   4  13  12   11.90    1.51 
  -5 -13 -12    1.31    0.94 
  -5 -13 -12    1.33    0.94 
   5  13  12    1.44    1.28 
   5  13  12    2.80    1.19 
  -6 -13 -12    5.28    1.05 
   6  13  12    4.01    1.22 
   6  13  12    5.14    1.32 
  -7 -13 -12   24.86    1.95 
   7  13  12   20.09    2.16 
   7  13  12   27.57    2.23 
  -8 -13 -12   52.83    2.94 
  -8 -13 -12   52.50    2.65 
   8  13  12   49.33    2.71 
   2 -14 -12   -0.17    1.61 
  -2  14  12    0.79    1.43 
  -2  14  12    3.15    1.61 
   1 -14 -12   14.11    1.88 
   1 -14 -12   11.17    1.44 
  -1  14  12   11.90    1.92 
  -1  14  12   12.34    1.62 
   0 -14 -12    8.36    1.69 
   0 -14 -12    7.78    1.34 
   0  14  12    5.99    1.13 
   0  14  12    8.04    1.34 
   0  14  12    7.49    1.68 
  -1 -14 -12   22.97    2.03 
  -1 -14 -12   25.27    2.76 
   1  14  12   26.52    2.29 
   1  14  12   23.56    1.96 
   1  14  12   23.64    2.79 
  -2 -14 -12    5.94    1.24 
   2  14  12    8.95    1.40 
   2  14  12    8.38    1.11 
   2  14  12    9.37    1.60 
  -3 -14 -12    1.91    1.01 
  -3 -14 -12    1.74    0.96 
   3  14  12    0.54    1.22 
   3  14  12    1.14    1.31 
   3  14  12    2.59    0.78 
  -4 -14 -12    3.01    1.06 
  -4 -14 -12    3.57    1.06 
   4  14  12    9.11    2.40 
   4  14  12    4.09    1.38 
   4  14  12    5.77    1.51 
  -5 -14 -12    4.64    1.17 
  -5 -14 -12    2.32    1.08 
   5  14  12    5.98    1.38 
   5  14  12    3.60    1.52 
   5  14  12    3.40    1.48 
  -6 -14 -12   65.45    2.79 
   6  14  12   63.28    3.13 
   6  14  12   62.34    3.71 
   6  14  12   65.35    3.11 
   7  14  12   77.24    3.30 
   1  15  12    1.43    1.13 
   1  15  12    0.71    1.51 
  -2 -15 -12   20.38    2.04 
   2  15  12   16.76    1.90 
  -3 -15 -12   31.85    2.22 
  -3 -15 -12   32.25    2.19 
   3  15  12   26.00    2.78 
   2  -4  13   11.30    1.42 
  -3   4 -13    6.73    1.78 
  -3   4 -13    7.97    1.45 
   3  -4  13   10.92    1.43 
  -4   4 -13   46.60    2.87 
  -4   4 -13   42.92    3.32 
   4  -4  13   40.63    2.72 
  -5   4 -13   88.01    4.16 
  -5   4 -13   85.05    3.90 
   5  -4  13   87.29    3.50 
  -6   4 -13   69.24    3.87 
  -6   4 -13   76.84    3.88 
   6  -4  13   67.70    3.23 
  -7   4 -13   78.19    3.47 
   7  -4  13   67.10    3.67 
  -8   4 -13   47.35    2.88 
   8  -4  13   41.69    3.42 
   0   3 -13    4.11    2.25 
   0  -3  13    6.43    1.30 
  -1   3 -13    8.16    1.69 
  -1   3 -13    7.86    1.38 
   1  -3  13    8.88    1.38 
  -2   3 -13   55.95    3.57 
  -2   3 -13   55.77    3.04 
   2  -3  13   58.07    2.83 
  -3   3 -13   47.94    2.89 
  -3   3 -13   41.25    3.32 
   3  -3  13   42.69    2.53 
  -4   3 -13  113.82    4.29 
  -4   3 -13  111.37    4.55 
   4  -3  13  113.29    3.94 
  -5   3 -13   69.05    3.52 
  -5   3 -13   74.11    3.80 
   5  -3  13   73.75    3.12 
  -6   3 -13   26.90    2.87 
  -6   3 -13   30.26    2.57 
   6  -3  13   26.14    2.30 
  -7   3 -13   15.37    1.74 
   7  -3  13   21.86    2.18 
  -8   3 -13    2.33    1.35 
   8  -3  13    0.07    1.37 
   8  -3  13    1.62    1.22 
  -9   3 -13    2.44    1.29 
   9  -3  13   -0.78    1.33 
 -10   3 -13   12.48    1.50 
  10  -3  13   10.65    1.74 
   1   2 -13   35.70    3.39 
  -1  -2  13   31.73    2.55 
   0   2 -13   53.88    3.67 
   0  -2  13   57.62    2.90 
  -1   2 -13   61.40    3.63 
  -1   2 -13   61.07    3.07 
   1  -2  13   61.99    2.86 
  -2   2 -13   93.58    3.73 
  -2   2 -13   95.87    4.19 
   2  -2  13   95.07    3.49 
  -3   2 -13   40.37    3.01 
  -3   2 -13   42.97    2.77 
   3  -2  13   42.63    2.43 
  -4   2 -13   46.70    3.06 
  -4   2 -13   46.82    2.89 
   4  -2  13   42.74    2.46 
  -5   2 -13    7.98    1.54 
  -5   2 -13    8.25    1.57 
   5  -2  13   10.05    1.31 
  -6   2 -13    2.39    1.31 
  -6   2 -13    0.34    1.32 
   6  -2  13    0.33    0.97 
  -7   2 -13   -0.42    1.22 
  -7   2 -13    2.63    1.38 
   7  -2  13    0.00    1.01 
  -8   2 -13    6.22    1.36 
   8  -2  13    5.44    1.28 
  -9   2 -13    5.19    1.54 
   9  -2  13    4.32    1.25 
 -10   2 -13    1.58    1.20 
  10  -2  13    0.31    1.40 
 -11   2 -13    2.16    1.16 
  11  -2  13    5.31    1.58 
   2   1 -13   28.61    3.36 
  -2  -1  13   29.99    2.77 
   1   1 -13   66.96    3.78 
  -1  -1  13   58.31    3.06 
   0   1 -13   59.71    3.50 
   0  -1  13   53.37    2.83 
  -1   1 -13   36.14    2.58 
  -1   1 -13   38.78    2.98 
   1  -1  13   37.57    2.38 
  -2   1 -13   10.20    1.53 
  -2   1 -13   13.41    1.51 
   2  -1  13   14.76    1.97 
  -3   1 -13    0.71    1.22 
  -3   1 -13   -0.66    1.12 
   3  -1  13    0.69    0.99 
  -4   1 -13    0.05    0.95 
  -4   1 -13   -0.76    1.18 
  -4   1 -13    2.04    1.23 
   4  -1  13    0.61    0.96 
  -5   1 -13    5.06    1.40 
  -5   1 -13    4.02    1.36 
  -5   1 -13    4.89    1.09 
   5  -1  13    5.16    1.15 
  -6   1 -13   13.62    1.79 
  -6   1 -13    9.70    1.56 
  -6   1 -13   13.89    1.96 
   6  -1  13    9.57    1.25 
  -7   1 -13    9.00    1.20 
  -7   1 -13   11.94    1.46 
  -7   1 -13    9.74    1.54 
   7  -1  13   10.08    1.27 
  -8   1 -13    2.02    1.04 
  -8   1 -13    1.14    1.16 
  -8   1 -13    0.75    2.31 
   8  -1  13    0.77    1.06 
  -9   1 -13    7.13    2.12 
  -9   1 -13    6.12    1.19 
   9  -1  13    8.63    1.38 
 -10   1 -13   19.39    2.04 
  10  -1  13   16.81    2.32 
 -11   1 -13   69.39    2.88 
  11  -1  13   66.64    3.47 
  12  -1  13   69.43    3.65 
   3   0 -13   41.93    3.64 
  -3   0  13   46.86    3.39 
   2   0 -13   38.84    3.31 
  -2   0  13   42.83    3.09 
   1   0 -13   31.60    2.93 
  -1   0  13   25.55    2.64 
   0   0 -13    2.84    1.33 
   0   0  13    5.25    1.28 
  -1   0 -13    3.64    1.14 
  -1   0 -13   -0.50    1.21 
   1   0  13    1.54    1.49 
   1   0  13    0.29    1.09 
  -2   0 -13    2.47    1.24 
  -2   0 -13    3.29    1.01 
  -2   0 -13    3.10    1.15 
   2   0  13    4.48    1.13 
   2   0  13    3.20    1.26 
  -3   0 -13   19.19    2.16 
  -3   0 -13   21.23    2.39 
  -3   0 -13   16.78    1.93 
   3   0  13   22.50    1.97 
   3   0  13   21.50    2.41 
  -4   0 -13    9.55    1.54 
  -4   0 -13   17.15    2.18 
   4   0  13    9.84    1.24 
   4   0  13    8.77    1.46 
  -5   0 -13    5.59    1.32 
  -5   0 -13    0.02    0.82 
  -5   0 -13    5.01    1.28 
   5   0  13    5.81    1.11 
  -6   0 -13    0.56    1.06 
  -6   0 -13    3.03    1.27 
   6   0  13   -0.75    0.95 
   6   0  13    1.49    0.95 
  -7   0 -13   10.91    1.43 
  -7   0 -13   10.67    1.49 
   7   0  13   10.08    1.29 
   7   0  13    7.59    1.36 
  -8   0 -13   31.01    2.17 
  -8   0 -13   29.05    2.68 
   8   0  13   26.42    2.19 
   9   0  13   67.57    3.12 
 -10   0 -13   94.85    3.55 
  10   0  13   94.58    3.78 
 -11   0 -13   93.48    3.43 
  11   0  13   98.33    3.94 
  11   0  13   92.71    3.90 
 -12   0 -13   40.02    2.37 
  12   0  13   40.35    2.97 
   3  -1 -13   21.46    1.98 
   3  -1 -13   20.87    2.14 
  -3   1  13   19.06    2.07 
   2  -1 -13    8.36    1.59 
   2  -1 -13    8.42    1.16 
  -2   1  13    6.88    1.61 
   1  -1 -13    0.55    1.28 
  -1   1  13    0.57    1.31 
  -1   1  13    2.08    1.31 
   0  -1 -13    1.23    1.25 
   0   1  13    0.23    1.20 
   0   1  13   -1.45    1.26 
  -1  -1 -13    1.53    0.99 
  -1  -1 -13    2.71    1.21 
  -1  -1 -13    4.18    1.20 
   1   1  13    0.70    1.23 
   1   1  13    1.56    1.13 
  -2  -1 -13    2.22    1.18 
  -2  -1 -13    3.99    1.00 
  -2  -1 -13    3.86    1.13 
   2   1  13    1.84    1.06 
   2   1  13   -0.81    1.15 
  -3  -1 -13   -0.80    0.86 
  -3  -1 -13   -0.84    1.08 
  -3  -1 -13    0.79    1.01 
   3   1  13    2.86    1.01 
   3   1  13   -0.51    1.08 
  -4  -1 -13    4.71    1.18 
  -4  -1 -13    5.99    1.27 
   4   1  13    6.39    1.12 
   4   1  13    8.07    1.32 
  -5  -1 -13   27.60    2.11 
  -5  -1 -13   29.58    2.45 
   5   1  13   27.63    1.99 
  -6  -1 -13  115.44    3.81 
  -6  -1 -13  111.65    4.13 
  -6  -1 -13  109.44    3.65 
   6   1  13  109.08    3.81 
  -7  -1 -13   94.36    3.39 
  -7  -1 -13   88.58    3.11 
  -7  -1 -13   90.98    3.73 
   7   1  13   90.90    3.43 
  -8  -1 -13   98.93    4.00 
  -8  -1 -13   98.53    3.32 
  -8  -1 -13  100.26    3.63 
   8   1  13   99.56    3.63 
   8   1  13   92.61    3.80 
  -9  -1 -13  101.18    5.13 
  -9  -1 -13  113.79    3.61 
   9   1  13  119.26    4.04 
 -10  -1 -13   90.62    3.15 
  10   1  13   86.59    3.59 
 -11  -1 -13   27.39    2.08 
 -11  -1 -13   26.81    2.45 
  11   1  13   23.42    2.45 
 -12  -1 -13    4.84    1.31 
  12   1  13    5.12    1.47 
 -13  -1 -13   -0.71    1.65 
  13   1  13    0.50    1.50 
   4  -2 -13    0.21    1.06 
   4  -2 -13    0.45    1.60 
  -4   2  13    2.41    1.81 
  -4   2  13    1.24    1.42 
   3  -2 -13    2.32    0.96 
   3  -2 -13    3.41    1.47 
  -3   2  13    3.06    1.51 
  -3   2  13    3.43    1.34 
  -3   2  13    1.57    1.60 
   2  -2 -13    4.99    1.43 
   2  -2 -13    4.03    1.00 
  -2   2  13    2.43    1.38 
  -2   2  13    3.08    1.48 
   1  -2 -13   10.45    1.17 
   1  -2 -13    6.59    1.33 
  -1   2  13    6.83    1.46 
  -1   2  13    8.34    1.49 
   0  -2 -13   -0.70    0.97 
   0  -2 -13   -0.39    0.82 
   0  -2 -13   -0.38    1.13 
   0   2  13    1.87    1.12 
   0   2  13    0.30    1.16 
  -1  -2 -13    0.97    0.92 
  -1  -2 -13   -0.62    1.08 
  -1  -2 -13   -1.32    0.94 
   1   2  13   -0.01    1.16 
   1   2  13   -0.77    1.02 
  -2  -2 -13    6.18    1.37 
  -2  -2 -13    8.21    1.28 
   2   2  13    6.28    1.27 
   2   2  13    6.47    1.31 
  -3  -2 -13   17.42    1.98 
  -3  -2 -13   19.73    2.00 
   3   2  13   18.11    1.91 
   3   2  13   15.52    1.60 
  -4  -2 -13   61.98    2.82 
  -4  -2 -13   60.67    2.54 
  -4  -2 -13   63.51    2.93 
   4   2  13   65.20    3.00 
   4   2  13   63.80    2.73 
  -5  -2 -13   97.58    3.25 
  -5  -2 -13   97.52    3.48 
  -5  -2 -13   92.10    3.74 
   5   2  13   98.43    3.75 
   5   2  13   98.41    3.50 
  -6  -2 -13   80.20    3.14 
  -6  -2 -13   82.31    2.87 
  -6  -2 -13   83.02    3.46 
   6   2  13   80.21    3.15 
  -7  -2 -13   56.07    2.99 
  -7  -2 -13   59.02    2.65 
  -7  -2 -13   56.91    2.34 
   7   2  13   58.25    2.69 
  -8  -2 -13   49.06    2.11 
  -8  -2 -13   41.74    2.75 
  -8  -2 -13   45.17    2.46 
   8   2  13   43.81    2.44 
  -9  -2 -13   11.45    1.45 
  -9  -2 -13   10.08    1.57 
  -9  -2 -13   10.92    1.11 
   9   2  13   11.11    1.48 
   9   2  13   12.56    1.47 
 -10  -2 -13    3.28    1.36 
 -10  -2 -13    4.56    0.95 
  10   2  13    4.96    1.21 
 -11  -2 -13   30.32    1.95 
 -11  -2 -13   26.85    2.60 
  11   2  13   29.97    2.48 
 -12  -2 -13    4.43    1.02 
 -12  -2 -13    3.51    1.31 
  12   2  13    0.48    1.25 
  12   2  13    3.09    1.35 
 -13  -2 -13   -1.09    2.55 
  13   2  13    1.54    1.39 
   4  -3 -13    4.44    1.15 
   4  -3 -13    6.42    1.66 
  -4   3  13    2.29    1.54 
  -4   3  13    3.43    1.59 
  -4   3  13    4.29    1.82 
   3  -3 -13    4.34    1.44 
   3  -3 -13    5.79    1.12 
  -3   3  13    2.58    1.38 
  -3   3  13    4.05    1.49 
  -3   3  13    3.07    1.60 
   2  -3 -13    0.86    0.87 
   2  -3 -13   -1.48    1.13 
  -2   3  13    1.09    1.36 
  -2   3  13    0.86    1.31 
  -2   3  13    0.62    1.19 
   1  -3 -13    0.42    1.16 
   1  -3 -13   -0.75    1.06 
   1  -3 -13    0.29    0.82 
  -1   3  13   -0.26    1.16 
  -1   3  13    2.16    1.06 
  -1   3  13    0.58    1.20 
   0  -3 -13   15.47    1.54 
   0  -3 -13   16.55    2.25 
   0  -3 -13   16.90    1.59 
   0  -3 -13   17.34    2.15 
   0   3  13   19.07    2.26 
   0   3  13   15.46    1.67 
  -1  -3 -13   60.75    2.84 
  -1  -3 -13   56.13    2.40 
  -1  -3 -13   55.60    2.87 
   1   3  13   59.82    2.96 
   1   3  13   59.94    3.00 
  -2  -3 -13   92.80    3.59 
  -2  -3 -13   92.23    3.57 
   2   3  13   95.65    3.65 
   2   3  13   98.43    3.68 
  -3  -3 -13  125.76    4.21 
  -3  -3 -13  121.63    4.21 
  -3  -3 -13  125.75    3.93 
   3   3  13  121.64    4.23 
   3   3  13  130.67    4.29 
  -4  -3 -13  141.45    4.65 
  -4  -3 -13  139.58    4.29 
  -4  -3 -13  145.32    4.54 
   4   3  13  150.98    4.63 
   4   3  13  143.92    4.71 
  -5  -3 -13   97.02    3.76 
  -5  -3 -13   99.44    3.19 
  -5  -3 -13   98.33    3.47 
   5   3  13   95.40    3.66 
   5   3  13   92.80    3.47 
  -6  -3 -13    3.90    1.10 
  -6  -3 -13    3.93    0.86 
  -6  -3 -13    3.58    1.14 
   6   3  13    3.24    0.98 
   6   3  13    3.07    1.06 
  -7  -3 -13    8.07    1.28 
  -7  -3 -13    3.54    1.13 
  -7  -3 -13    6.06    0.90 
   7   3  13    5.80    1.15 
  -8  -3 -13    0.85    1.05 
  -8  -3 -13   -0.11    1.04 
  -8  -3 -13   -0.03    0.72 
   8   3  13   -0.07    0.90 
  -9  -3 -13   18.56    1.97 
  -9  -3 -13   17.67    1.54 
   9   3  13   14.83    1.92 
 -10  -3 -13    5.95    0.95 
 -10  -3 -13    5.48    1.28 
  10   3  13    4.74    1.17 
 -11  -3 -13   47.61    2.64 
 -11  -3 -13   42.07    2.13 
  11   3  13   44.43    2.77 
 -12  -3 -13    4.85    0.94 
 -12  -3 -13    0.37    1.25 
  12   3  13    1.58    1.21 
 -13  -3 -13    2.73    1.19 
  13   3  13    0.81    1.34 
   5  -4 -13   -2.56    1.57 
   5  -4 -13   -1.64    0.98 
  -5   4  13   -0.41    1.84 
   4  -4 -13    3.43    0.97 
   4  -4 -13    0.32    1.48 
  -4   4  13    1.42    1.70 
  -4   4  13    2.44    1.43 
  -4   4  13    1.46    1.41 
   3  -4 -13    2.45    0.97 
   3  -4 -13    3.20    1.35 
  -3   4  13    3.60    1.61 
  -3   4  13    3.74    1.37 
  -3   4  13    2.95    1.29 
   2  -4 -13   17.84    1.70 
   2  -4 -13   14.84    1.94 
  -2   4  13   15.21    1.81 
  -2   4  13   20.89    2.14 
  -2   4  13   14.47    1.59 
   1  -4 -13   32.03    2.63 
   1  -4 -13   30.93    1.94 
   1  -4 -13   28.80    2.36 
  -1   4  13   33.67    2.48 
  -1   4  13   30.29    2.68 
  -1   4  13   31.33    2.23 
   0  -4 -13   72.32    3.29 
   0  -4 -13   68.81    2.71 
   0   4  13   73.34    3.33 
   0   4  13   74.09    2.92 
   0   4  13   72.79    3.16 
  -1  -4 -13   99.89    3.79 
  -1  -4 -13  103.23    3.37 
  -1  -4 -13  101.63    3.77 
   1   4  13  102.87    3.92 
   1   4  13  100.18    3.69 
  -2  -4 -13  102.38    3.69 
  -2  -4 -13  100.10    3.32 
  -2  -4 -13   98.41    3.39 
  -2  -4 -13   95.66    3.69 
   2   4  13  100.52    3.80 
   2   4  13   96.89    3.64 
  -3  -4 -13   63.19    2.77 
  -3  -4 -13   64.15    2.86 
  -3  -4 -13   63.72    2.57 
   3   4  13   63.65    2.95 
   3   4  13   63.58    2.90 
  -4  -4 -13   13.76    1.44 
  -4  -4 -13   10.84    1.35 
  -4  -4 -13   10.27    1.28 
   4   4  13   10.71    1.31 
   4   4  13   10.21    1.27 
  -5  -4 -13    8.57    1.04 
  -5  -4 -13    8.23    1.25 
  -5  -4 -13    7.21    1.22 
   5   4  13    7.64    1.23 
   5   4  13    6.95    1.17 
  -6  -4 -13   -0.87    0.92 
  -6  -4 -13   -0.20    0.71 
   6   4  13    0.38    0.96 
   6   4  13   -1.33    0.88 
  -7  -4 -13   14.79    1.83 
  -7  -4 -13   10.63    1.36 
   7   4  13   14.07    1.77 
   7   4  13    7.59    1.28 
  -8  -4 -13   38.34    2.31 
  -8  -4 -13   25.75    2.57 
   8   4  13   34.44    2.20 
  -9  -4 -13    1.72    0.81 
  -9  -4 -13    2.89    1.22 
   9   4  13    0.16    1.01 
   9   4  13    3.39    1.07 
 -10  -4 -13    1.41    1.20 
 -10  -4 -13    1.66    0.77 
  10   4  13    1.21    1.07 
 -11  -4 -13   -0.11    0.81 
 -11  -4 -13   -0.51    1.15 
  11   4  13   -0.65    1.12 
 -12  -4 -13   29.01    2.03 
 -12  -4 -13   23.03    1.96 
  12   4  13   25.45    2.58 
  13   4  13   28.26    2.53 
   5  -5 -13    7.19    2.12 
   5  -5 -13    5.87    1.23 
  -5   5  13    8.82    1.82 
  -5   5  13    3.05    1.98 
   4  -5 -13   34.60    2.23 
   4  -5 -13   31.32    3.29 
  -4   5  13   35.93    2.90 
  -4   5  13   38.35    3.42 
  -4   5  13   35.54    2.66 
   3  -5 -13   63.61    3.67 
   3  -5 -13   63.42    2.77 
  -3   5  13   67.00    3.09 
  -3   5  13   68.33    3.64 
  -3   5  13   65.41    3.23 
   2  -5 -13   69.76    2.80 
   2  -5 -13   75.63    3.60 
   2  -5 -13   77.52    4.33 
  -2   5  13   68.32    3.10 
  -2   5  13   68.82    3.61 
  -2   5  13   67.15    3.08 
   1  -5 -13   63.49    2.98 
   1  -5 -13   68.35    3.29 
   1  -5 -13   65.11    2.64 
  -1   5  13   63.25    3.28 
  -1   5  13   63.91    2.86 
  -1   5  13   64.59    2.93 
   0  -5 -13   58.81    2.97 
   0  -5 -13   55.83    2.43 
   0   5  13   55.66    2.73 
   0   5  13   55.38    3.01 
   0   5  13   57.23    2.54 
  -1  -5 -13   50.60    2.75 
  -1  -5 -13   44.20    2.42 
  -1  -5 -13   48.46    2.23 
  -1  -5 -13   50.32    2.61 
   1   5  13   48.86    2.56 
   1   5  13   48.28    2.25 
   1   5  13   48.66    2.78 
  -2  -5 -13   13.52    1.68 
  -2  -5 -13   13.23    1.54 
  -2  -5 -13   18.22    1.98 
  -2  -5 -13   12.51    1.78 
   2   5  13   12.30    1.48 
   2   5  13   12.60    1.41 
  -3  -5 -13    1.46    0.98 
  -3  -5 -13    2.95    1.11 
  -3  -5 -13    2.01    0.88 
  -3  -5 -13    2.40    0.91 
   3   5  13    3.82    1.06 
   3   5  13    1.78    1.08 
  -4  -5 -13    0.13    1.01 
  -4  -5 -13    1.87    0.81 
  -4  -5 -13    2.74    1.03 
   4   5  13    2.02    0.97 
   4   5  13    1.07    0.98 
  -5  -5 -13   13.19    1.44 
  -5  -5 -13   12.22    1.43 
   5   5  13    9.42    1.27 
   5   5  13   13.21    1.79 
  -6  -5 -13   31.45    2.14 
   6   5  13   31.22    2.10 
   6   5  13   29.45    2.21 
  -7  -5 -13    0.99    0.75 
  -7  -5 -13    0.52    1.00 
  -7  -5 -13   -0.19    0.53 
   7   5  13    0.49    0.97 
   7   5  13    0.18    0.92 
  -8  -5 -13    1.35    1.49 
  -8  -5 -13    5.53    0.84 
  -8  -5 -13    6.50    1.27 
   8   5  13    4.88    1.11 
  -9  -5 -13   22.66    2.43 
  -9  -5 -13   24.69    1.48 
  -9  -5 -13   26.95    2.19 
   9   5  13   20.92    2.05 
 -10  -5 -13   32.88    2.22 
 -10  -5 -13   38.77    2.49 
  10   5  13   37.33    2.45 
 -11  -5 -13   78.65    3.31 
 -11  -5 -13   64.03    2.29 
  11   5  13   72.41    3.27 
  12   5  13  105.23    4.15 
  13   5  13   81.89    3.46 
   5  -6 -13   50.55    3.81 
   5  -6 -13   61.23    2.90 
  -5   6  13   62.20    3.48 
  -5   6  13   68.45    4.19 
   4  -6 -13   85.24    3.30 
   4  -6 -13   87.41    4.25 
  -4   6  13   87.80    4.40 
  -4   6  13   78.57    3.77 
  -4   6  13   80.27    3.23 
   3  -6 -13   88.87    4.03 
   3  -6 -13   78.05    3.16 
  -3   6  13   83.55    3.57 
  -3   6  13   87.74    4.07 
  -3   6  13   77.61    3.23 
   2  -6 -13   47.48    2.82 
   2  -6 -13   47.67    2.39 
   2  -6 -13   55.23    3.15 
  -2   6  13   47.95    2.56 
  -2   6  13   46.54    3.10 
  -2   6  13   50.62    2.74 
   1  -6 -13   46.72    2.79 
   1  -6 -13   44.87    2.23 
  -1   6  13   44.31    2.42 
  -1   6  13   45.59    2.46 
  -1   6  13   48.80    2.98 
   0  -6 -13    8.59    1.37 
   0  -6 -13    6.91    1.07 
   0   6  13    6.39    1.07 
   0   6  13    8.17    1.45 
   0   6  13    6.98    1.20 
  -1  -6 -13    3.47    0.95 
  -1  -6 -13    2.70    1.07 
  -1  -6 -13    4.83    1.16 
  -1  -6 -13    2.84    1.09 
   1   6  13    2.07    1.19 
   1   6  13    3.97    0.90 
   1   6  13    3.14    1.05 
  -2  -6 -13   15.26    1.56 
  -2  -6 -13   11.80    1.42 
  -2  -6 -13   14.75    1.65 
  -2  -6 -13    9.47    1.29 
   2   6  13   12.53    1.46 
   2   6  13   11.22    1.31 
   2   6  13   12.44    1.45 
  -3  -6 -13   23.95    1.72 
  -3  -6 -13   22.29    1.93 
  -3  -6 -13   21.44    1.73 
   3   6  13   24.97    2.22 
   3   6  13   19.90    1.98 
  -4  -6 -13    2.20    1.05 
  -4  -6 -13    2.66    0.89 
   4   6  13    3.72    1.13 
   4   6  13    2.99    1.02 
  -5  -6 -13    6.81    1.16 
  -5  -6 -13    7.89    1.26 
  -5  -6 -13    7.13    0.79 
   5   6  13    6.75    1.16 
   5   6  13    7.24    1.19 
  -6  -6 -13   -0.76    0.72 
  -6  -6 -13    2.05    1.07 
  -6  -6 -13    0.77    0.55 
   6   6  13    1.18    1.01 
   6   6  13    0.94    0.94 
  -7  -6 -13   15.11    1.94 
  -7  -6 -13   14.73    1.35 
  -7  -6 -13   15.57    1.09 
   7   6  13   15.38    1.87 
   7   6  13   12.24    1.41 
  -8  -6 -13   56.64    2.12 
  -8  -6 -13   58.89    2.08 
  -8  -6 -13   52.95    2.89 
  -8  -6 -13   61.70    2.86 
   8   6  13   61.36    2.94 
   8   6  13   62.57    2.77 
  -9  -6 -13   97.00    3.71 
  -9  -6 -13   93.48    3.88 
   9   6  13   97.24    3.61 
 -10  -6 -13  103.71    3.86 
  10   6  13   89.75    3.68 
  10   6  13  104.21    3.78 
  11   6  13   90.69    3.67 
  11   6  13   89.67    3.66 
  12   6  13   64.83    3.30 
  12   6  13   57.71    3.03 
  13   6  13   11.15    1.45 
  13   6  13   13.33    1.72 
   5  -7 -13   54.22    3.90 
   5  -7 -13   62.30    2.98 
  -5   7  13   67.66    4.09 
  -5   7  13   55.66    3.39 
   4  -7 -13   41.87    2.45 
   4  -7 -13   43.46    3.27 
  -4   7  13   42.19    2.97 
  -4   7  13   41.79    2.31 
  -4   7  13   43.39    3.55 
   3  -7 -13   21.73    1.91 
   3  -7 -13   21.28    2.61 
  -3   7  13   17.47    1.98 
  -3   7  13   16.08    2.06 
  -3   7  13   19.70    2.36 
   2  -7 -13    0.26    1.30 
   2  -7 -13   -0.28    1.07 
   2  -7 -13   -0.80    0.87 
  -2   7  13    1.26    1.14 
  -2   7  13    2.69    1.42 
  -2   7  13   -0.20    0.99 
   1  -7 -13    1.63    1.19 
   1  -7 -13   -0.48    0.80 
   1  -7 -13    0.30    0.97 
  -1   7  13   -0.77    1.25 
  -1   7  13    0.40    0.97 
  -1   7  13   -0.29    0.97 
   0  -7 -13    3.51    0.93 
   0  -7 -13    3.98    1.24 
   0   7  13    2.85    1.25 
   0   7  13    1.47    0.96 
   0   7  13    1.91    0.98 
  -1  -7 -13   15.61    1.91 
  -1  -7 -13   14.87    1.85 
  -1  -7 -13   10.18    1.19 
   1   7  13    9.34    1.96 
   1   7  13   11.92    1.52 
   1   7  13   13.20    1.82 
  -2  -7 -13   18.56    1.63 
  -2  -7 -13   18.71    1.88 
  -2  -7 -13   14.13    1.77 
   2   7  13   17.53    1.89 
   2   7  13   17.17    1.52 
   2   7  13   16.43    2.14 
  -3  -7 -13    3.85    0.92 
  -3  -7 -13    3.86    0.99 
  -3  -7 -13    2.64    1.07 
   3   7  13    2.90    1.14 
   3   7  13    2.89    0.78 
   3   7  13    2.91    1.00 
  -4  -7 -13   12.70    1.41 
  -4  -7 -13   13.46    1.28 
  -4  -7 -13   10.95    0.93 
  -4  -7 -13   12.86    1.43 
   4   7  13   11.19    1.38 
   4   7  13   13.22    1.79 
  -5  -7 -13   34.42    1.91 
  -5  -7 -13   40.59    2.35 
  -5  -7 -13   40.52    1.46 
   5   7  13   37.86    2.41 
   5   7  13   41.11    2.39 
  -6  -7 -13   90.08    3.08 
  -6  -7 -13  100.68    3.63 
  -6  -7 -13   97.45    2.82 
   6   7  13  100.52    3.66 
   6   7  13   99.93    3.60 
  -7  -7 -13   83.38    3.31 
  -7  -7 -13   75.95    2.54 
  -7  -7 -13   81.08    2.52 
   7   7  13   80.81    3.36 
   7   7  13   81.36    3.18 
  -8  -7 -13  112.40    4.26 
  -8  -7 -13  119.67    3.49 
  -8  -7 -13  128.17    4.32 
   8   7  13  121.99    4.09 
   8   7  13  121.78    4.32 
  -9  -7 -13   84.54    3.72 
  -9  -7 -13   91.08    3.61 
  -9  -7 -13   85.47    2.86 
   9   7  13   83.27    3.43 
   9   7  13   92.24    3.46 
 -10  -7 -13   31.70    2.60 
  10   7  13   29.09    2.37 
  10   7  13   33.07    2.40 
  11   7  13   13.02    2.54 
  11   7  13   11.04    1.49 
  12   7  13    7.40    1.46 
  13   7  13    0.26    1.37 
   5  -8 -13    8.82    1.41 
   5  -8 -13    9.97    2.08 
  -5   8  13    9.27    2.02 
  -5   8  13   10.37    1.82 
   4  -8 -13   -0.36    0.99 
   4  -8 -13   -0.93    1.56 
  -4   8  13    1.75    1.69 
  -4   8  13    0.80    1.50 
   3  -8 -13    0.46    1.01 
   3  -8 -13    1.07    1.48 
  -3   8  13    0.19    1.29 
  -3   8  13    0.17    1.27 
  -3   8  13   -1.49    1.45 
   2  -8 -13    1.06    0.98 
   2  -8 -13    1.21    1.35 
   2  -8 -13    3.30    1.29 
  -2   8  13    1.27    1.38 
  -2   8  13    1.67    1.18 
  -2   8  13    0.52    0.95 
   1  -8 -13    0.29    1.06 
   1  -8 -13    1.22    1.20 
   1  -8 -13    1.68    0.96 
  -1   8  13    0.30    1.23 
  -1   8  13    0.49    1.00 
  -1   8  13    0.80    0.90 
   0  -8 -13    1.88    1.13 
   0  -8 -13    1.52    1.33 
   0  -8 -13    0.95    0.85 
   0   8  13    0.99    0.94 
   0   8  13    1.93    1.22 
   0   8  13    1.43    0.96 
  -1  -8 -13    3.58    0.95 
  -1  -8 -13    3.13    1.19 
  -1  -8 -13    4.36    1.15 
   1   8  13    5.59    1.32 
   1   8  13    4.46    1.14 
   1   8  13    4.71    1.07 
  -2  -8 -13   10.06    1.21 
  -2  -8 -13   10.22    1.42 
  -2  -8 -13    8.29    1.12 
   2   8  13    8.23    1.39 
   2   8  13    8.93    1.19 
   2   8  13    8.72    1.00 
  -3  -8 -13  136.02    4.32 
  -3  -8 -13  138.25    4.26 
  -3  -8 -13  137.24    4.57 
   3   8  13  141.92    4.43 
   3   8  13  146.35    4.80 
   3   8  13  145.82    4.02 
  -4  -8 -13  100.68    3.54 
  -4  -8 -13  105.79    2.93 
  -4  -8 -13  107.98    3.80 
  -4  -8 -13  102.09    3.35 
   4   8  13  110.21    3.97 
   4   8  13  107.33    3.73 
  -5  -8 -13  176.99    4.97 
  -5  -8 -13  185.58    4.77 
  -5  -8 -13  182.42    5.56 
   5   8  13  188.75    5.64 
   5   8  13  180.53    5.46 
  -6  -8 -13  161.84    5.16 
  -6  -8 -13  165.77    4.38 
  -6  -8 -13  160.12    4.37 
   6   8  13  165.24    5.05 
   6   8  13  158.98    5.08 
  -7  -8 -13   71.96    2.40 
  -7  -8 -13   77.13    3.26 
   7   8  13   77.92    3.06 
   7   8  13   60.35    3.01 
  -8  -8 -13   69.69    2.47 
  -8  -8 -13   73.09    3.31 
  -8  -8 -13   70.43    3.31 
   8   8  13   73.91    3.04 
   8   8  13   72.58    3.17 
  -9  -8 -13   12.90    1.70 
  -9  -8 -13   10.87    1.49 
  -9  -8 -13   13.17    1.39 
   9   8  13   10.29    1.41 
   9   8  13    8.60    1.43 
 -10  -8 -13   -2.14    0.77 
  10   8  13   -1.17    1.04 
 -11  -8 -13    1.71    1.06 
  11   8  13    1.74    1.26 
  12   8  13   10.34    1.60 
  -5   9  13    5.84    1.81 
   4  -9 -13    3.86    1.74 
   4  -9 -13    7.10    1.32 
  -4   9  13    8.10    1.84 
  -4   9  13    6.76    1.67 
   3  -9 -13   10.89    1.40 
   3  -9 -13    9.71    1.75 
  -3   9  13    8.86    1.85 
  -3   9  13   10.64    1.66 
  -3   9  13    9.33    1.02 
   2  -9 -13    1.70    1.32 
   2  -9 -13   -0.95    0.90 
   2  -9 -13   -1.23    1.29 
  -2   9  13   -0.28    1.43 
  -2   9  13   -1.43    1.13 
   1  -9 -13    5.76    1.42 
   1  -9 -13    1.67    1.01 
  -1   9  13    5.02    1.42 
  -1   9  13    5.15    1.15 
  -1   9  13    3.64    1.01 
   0  -9 -13   22.49    2.61 
   0  -9 -13   22.23    1.81 
   0  -9 -13   24.87    2.28 
   0   9  13   22.45    2.49 
   0   9  13   20.90    1.90 
   0   9  13   19.15    1.90 
  -1  -9 -13   63.68    2.99 
  -1  -9 -13   63.11    2.68 
  -1  -9 -13   61.62    2.81 
   1   9  13   64.53    2.70 
   1   9  13   64.94    3.23 
   1   9  13   64.48    2.71 
  -2  -9 -13   68.23    2.80 
  -2  -9 -13   68.41    2.83 
  -2  -9 -13   71.19    3.08 
   2   9  13   73.61    3.30 
   2   9  13   68.44    2.52 
   2   9  13   72.40    2.91 
  -3  -9 -13  210.88    6.26 
  -3  -9 -13  208.92    5.83 
  -3  -9 -13  201.45    5.95 
   3   9  13  215.55    5.60 
   3   9  13  215.46    6.39 
   3   9  13  216.65    6.04 
  -4  -9 -13   79.33    2.76 
  -4  -9 -13   81.43    3.32 
  -4  -9 -13   80.94    3.05 
  -4  -9 -13   79.66    2.48 
   4   9  13   85.29    2.56 
   4   9  13   79.59    3.41 
   4   9  13   80.37    3.16 
  -5  -9 -13   33.75    1.52 
  -5  -9 -13   33.40    2.34 
   5   9  13   32.58    2.34 
   5   9  13   29.64    2.25 
  -6  -9 -13   15.80    1.16 
  -6  -9 -13   16.51    1.31 
  -6  -9 -13   15.00    1.71 
   6   9  13   14.98    1.98 
   6   9  13   17.99    2.01 
  -7  -9 -13    6.18    1.41 
  -7  -9 -13    4.17    1.06 
  -7  -9 -13    5.20    0.87 
   7   9  13    5.62    1.18 
   7   9  13    5.74    1.15 
  -8  -9 -13    4.25    1.24 
  -8  -9 -13    1.97    1.31 
  -8  -9 -13    3.81    0.86 
   8   9  13    4.16    1.13 
  -9  -9 -13   33.00    1.84 
  -9  -9 -13   33.25    2.67 
   9   9  13   36.07    2.42 
 -10  -9 -13   34.04    2.05 
  10   9  13   37.47    2.53 
 -11  -9 -13   11.88    1.34 
  11   9  13    9.24    1.47 
  12   9  13    2.84    1.41 
   4 -10 -13    3.53    1.15 
   4 -10 -13    3.26    1.73 
  -4  10  13    1.17    1.67 
  -4  10  13    0.09    1.50 
   3 -10 -13    0.88    1.52 
   3 -10 -13    0.66    1.02 
  -3  10  13   -0.41    1.53 
  -3  10  13    1.70    1.33 
   2 -10 -13   54.77    3.26 
   2 -10 -13   50.15    2.65 
   2 -10 -13   60.85    3.19 
  -2  10  13   48.71    2.20 
  -2  10  13   60.05    3.55 
  -2  10  13   55.35    2.95 
   1 -10 -13   77.03    3.16 
   1 -10 -13   67.65    3.31 
   1 -10 -13   83.41    3.56 
  -1  10  13   76.53    2.95 
  -1  10  13   82.27    3.25 
  -1  10  13   84.68    3.91 
   0 -10 -13   85.32    3.32 
   0 -10 -13   90.78    3.65 
   0  10  13   90.64    3.23 
   0  10  13   91.43    3.30 
   0  10  13   92.21    3.93 
  -1 -10 -13  107.37    3.73 
  -1 -10 -13  104.68    3.96 
  -1 -10 -13  105.58    3.70 
   1  10  13  100.37    3.84 
   1  10  13  110.62    4.22 
   1  10  13  111.19    3.65 
  -2 -10 -13  108.19    3.97 
  -2 -10 -13  101.50    3.56 
  -2 -10 -13  107.18    3.67 
   2  10  13  109.22    3.34 
   2  10  13  103.36    3.57 
   2  10  13  103.63    4.08 
  -3 -10 -13   68.01    3.14 
  -3 -10 -13   69.40    2.81 
  -3 -10 -13   64.77    2.58 
  -3 -10 -13   68.84    2.27 
   3  10  13   69.55    2.87 
   3  10  13   69.43    3.25 
   3  10  13   69.67    2.39 
  -4 -10 -13    6.10    1.21 
  -4 -10 -13    5.08    1.03 
  -4 -10 -13    7.92    0.90 
  -4 -10 -13    6.76    0.91 
  -4 -10 -13    8.20    1.41 
   4  10  13    6.83    0.77 
   4  10  13    6.80    1.22 
   4  10  13    7.43    1.35 
  -5 -10 -13    1.95    0.71 
  -5 -10 -13    1.67    0.99 
  -5 -10 -13    0.26    1.18 
  -5 -10 -13    0.48    0.91 
  -5 -10 -13    0.68    0.69 
   5  10  13    0.65    1.02 
   5  10  13   -0.30    1.00 
  -6 -10 -13    5.35    1.43 
  -6 -10 -13    4.07    1.14 
  -6 -10 -13    3.15    0.82 
   6  10  13    3.19    1.13 
  -7 -10 -13   15.32    1.60 
  -7 -10 -13   16.29    1.79 
  -7 -10 -13   17.08    1.44 
   7  10  13   12.93    1.42 
  -8 -10 -13   24.45    1.65 
  -8 -10 -13   23.94    2.33 
   8  10  13   27.21    2.22 
  -9 -10 -13   13.10    1.56 
  -9 -10 -13   13.67    1.66 
   9  10  13   13.32    1.50 
 -10 -10 -13    1.23    0.97 
  10  10  13    1.83    1.21 
 -11 -10 -13    3.89    1.24 
  11  10  13    1.89    1.28 
   4 -11 -13   46.28    3.31 
  -4  11  13   32.17    3.17 
   3 -11 -13   84.47    3.53 
   3 -11 -13   86.89    3.93 
  -3  11  13   82.32    3.82 
  -3  11  13   91.06    4.30 
   2 -11 -13   70.49    3.14 
   2 -11 -13   74.93    3.58 
  -2  11  13   80.27    4.02 
  -2  11  13   70.15    3.34 
   1 -11 -13   70.83    3.07 
   1 -11 -13   73.44    3.42 
   1 -11 -13   63.55    3.27 
  -1  11  13   74.77    3.14 
  -1  11  13   75.28    3.82 
   0 -11 -13  115.10    4.36 
   0 -11 -13  114.68    4.05 
   0  11  13  123.97    3.85 
   0  11  13  125.62    3.99 
   0  11  13  116.32    4.60 
  -1 -11 -13   40.19    2.40 
  -1 -11 -13   40.70    2.30 
  -1 -11 -13   41.69    2.71 
   1  11  13   42.98    2.94 
   1  11  13   43.26    2.32 
   1  11  13   37.37    3.38 
  -2 -11 -13   11.25    1.33 
  -2 -11 -13   13.06    1.31 
  -2 -11 -13   13.49    1.69 
   2  11  13   12.17    1.31 
   2  11  13   12.69    1.54 
   2  11  13   10.15    1.52 
  -3 -11 -13    1.23    1.22 
  -3 -11 -13   -0.63    0.91 
  -3 -11 -13    0.53    0.74 
  -3 -11 -13    1.57    0.95 
   3  11  13   -0.75    0.69 
   3  11  13   -0.08    1.12 
   3  11  13    1.74    1.05 
  -4 -11 -13   11.09    1.28 
  -4 -11 -13    8.49    1.38 
  -4 -11 -13   12.39    1.27 
  -4 -11 -13   13.14    1.46 
  -4 -11 -13   11.62    1.65 
   4  11  13   11.24    1.53 
   4  11  13   11.33    1.14 
  -5 -11 -13    4.57    1.22 
  -5 -11 -13    3.76    1.05 
  -5 -11 -13    4.36    1.36 
  -5 -11 -13    4.91    0.90 
   5  11  13    5.09    1.22 
  -6 -11 -13    6.82    1.49 
  -6 -11 -13    6.95    1.26 
  -6 -11 -13    4.57    0.93 
   6  11  13    5.58    1.20 
  -7 -11 -13    1.14    1.12 
  -7 -11 -13   -0.38    1.36 
  -7 -11 -13   -0.41    0.82 
   7  11  13    1.01    1.03 
  -8 -11 -13    4.37    1.06 
  -8 -11 -13    0.96    1.19 
   8  11  13    1.46    1.13 
  -9 -11 -13   12.93    1.38 
   9  11  13    9.09    1.42 
 -10 -11 -13   34.26    2.23 
  10  11  13   31.46    2.57 
   3 -12 -13   77.57    3.88 
  -3  12  13   71.80    3.74 
  -3  12  13   82.43    5.25 
   2 -12 -13   58.67    2.92 
   2 -12 -13   65.29    3.44 
  -2  12  13   58.67    3.21 
  -2  12  13   59.05    3.75 
   1 -12 -13   26.88    2.64 
   1 -12 -13   25.59    2.63 
   1 -12 -13   20.56    2.08 
  -1  12  13   29.50    3.10 
  -1  12  13   20.94    2.30 
   0 -12 -13   -1.59    0.94 
   0 -12 -13   -1.32    1.27 
   0  12  13    0.64    0.95 
   0  12  13    0.83    1.31 
   0  12  13    0.36    1.04 
  -1 -12 -13    6.74    1.29 
  -1 -12 -13    5.20    1.13 
  -1 -12 -13    4.41    1.48 
   1  12  13    6.06    1.27 
   1  12  13    5.48    1.46 
   1  12  13    4.26    1.05 
  -2 -12 -13   10.33    1.27 
  -2 -12 -13    9.45    1.67 
  -2 -12 -13   10.24    1.33 
   2  12  13    8.54    1.28 
   2  12  13   10.39    1.12 
   2  12  13    7.37    1.53 
  -3 -12 -13   24.60    2.46 
  -3 -12 -13   22.89    1.52 
  -3 -12 -13   19.12    1.89 
   3  12  13   25.42    2.67 
   3  12  13   21.48    1.51 
   3  12  13   19.12    2.52 
  -4 -12 -13   18.17    2.36 
  -4 -12 -13   17.90    1.85 
  -4 -12 -13   18.08    1.47 
   4  12  13   16.79    1.25 
   4  12  13   18.52    2.35 
   4  12  13   16.93    1.78 
  -5 -12 -13    2.49    1.04 
  -5 -12 -13    2.29    0.89 
  -5 -12 -13    4.00    1.43 
   5  12  13    2.11    1.21 
  -6 -12 -13   -0.85    1.11 
   6  12  13    0.71    1.25 
   6  12  13    0.02    1.09 
  -7 -12 -13   33.74    2.02 
  -7 -12 -13   29.27    2.50 
   7  12  13   33.39    2.43 
   7  12  13   32.48    2.41 
  -8 -12 -13   47.35    2.42 
  -8 -12 -13   64.56    4.69 
   8  12  13   52.39    2.80 
   8  12  13   52.16    2.68 
  -9 -12 -13   83.32    3.23 
   9  12  13   78.41    3.47 
   2 -13 -13   -0.18    2.06 
   2 -13 -13   -1.32    1.54 
  -2  13  13   -1.51    1.32 
  -2  13  13   -3.23    1.56 
   1 -13 -13    1.23    1.44 
   1 -13 -13    1.84    1.15 
   1 -13 -13    2.19    1.53 
  -1  13  13    0.72    1.27 
  -1  13  13   -0.78    1.57 
   0 -13 -13   24.08    2.15 
   0 -13 -13   22.08    2.73 
   0  13  13   27.02    2.25 
   0  13  13   27.17    3.05 
  -1 -13 -13   20.08    2.00 
  -1 -13 -13   21.38    2.17 
   1  13  13   18.91    2.14 
   1  13  13   17.54    1.92 
   1  13  13   23.32    1.97 
  -2 -13 -13    7.40    1.23 
   2  13  13    8.82    1.60 
   2  13  13    6.79    1.08 
   2  13  13    8.53    1.27 
  -3 -13 -13    0.89    0.97 
  -3 -13 -13    2.42    0.92 
  -3 -13 -13    1.98    1.42 
   3  13  13    1.47    0.80 
   3  13  13    4.24    1.42 
  -4 -13 -13    0.13    0.99 
  -4 -13 -13    2.46    1.51 
   4  13  13   -0.09    1.25 
  -5 -13 -13   24.55    2.12 
  -5 -13 -13   26.82    1.92 
   5  13  13   27.05    2.59 
   5  13  13   22.71    2.38 
  -6 -13 -13   54.77    2.38 
   6  13  13   46.77    2.86 
   6  13  13   54.04    2.97 
  -7 -13 -13   81.24    3.05 
   7  13  13   73.67    3.31 
   7  13  13   78.04    3.39 
  -8 -13 -13   77.41    3.10 
   8  13  13   74.36    3.35 
   0 -14 -13    2.08    1.63 
   0 -14 -13   -0.11    1.08 
   0  14  13    0.98    1.27 
   0  14  13    0.99    1.60 
  -1 -14 -13    7.67    1.77 
  -1 -14 -13    4.48    1.25 
   1  14  13    6.98    1.22 
   1  14  13    7.81    1.69 
  -2 -14 -13   44.33    3.19 
  -2 -14 -13   45.48    2.59 
   2  14  13   46.38    3.23 
   2  14  13   47.41    2.23 
   2  14  13   44.49    2.75 
  -3 -14 -13   83.10    3.01 
  -3 -14 -13   77.17    3.25 
   3  14  13   75.90    3.80 
   3  14  13   83.69    3.05 
  -4 -14 -13   92.51    3.59 
  -4 -14 -13   97.04    3.33 
   4  14  13   91.28    4.03 
  -5 -14 -13   84.53    3.21 
  -5 -14 -13   87.85    3.45 
   5  14  13   82.37    3.80 
  -6 -14 -13  119.88    3.98 
   6  14  13  113.06    4.52 
   6  14  13  124.06    4.44 
   3  -3  14   28.82    2.64 
  -4   3 -14   29.62    2.99 
   4  -3  14   47.16    2.81 
  -5   3 -14    6.33    1.89 
   5  -3  14    8.90    1.48 
  -6   3 -14   -1.39    1.60 
   6  -3  14   -2.06    1.21 
  -7   3 -14    3.81    1.66 
   7  -3  14    3.96    1.38 
  -8   3 -14    9.91    1.69 
   8  -3  14    9.81    1.57 
  -1   2 -14   39.64    3.96 
   1  -2  14   36.87    2.73 
  -2   2 -14   28.06    2.76 
  -2   2 -14   16.12    2.05 
   2  -2  14   20.47    2.39 
  -3   2 -14   -1.41    1.36 
  -3   2 -14   -0.18    1.41 
   3  -2  14   -0.49    1.16 
  -4   2 -14   -1.96    1.35 
  -4   2 -14   -1.12    1.48 
   4  -2  14   -0.68    1.14 
  -5   2 -14   11.97    1.89 
  -5   2 -14    5.17    1.61 
  -5   2 -14    7.40    1.72 
   5  -2  14    7.52    1.36 
  -6   2 -14    3.41    1.55 
   6  -2  14    3.44    1.23 
  -7   2 -14    1.70    1.52 
   7  -2  14    0.14    1.19 
  -8   2 -14    0.99    1.40 
   8  -2  14   -0.04    1.17 
  -9   2 -14    4.40    1.48 
   9  -2  14    3.81    1.40 
   0   1 -14    2.25    1.63 
   0  -1  14    4.43    1.42 
  -1   1 -14    1.81    1.35 
  -1   1 -14   -1.01    1.57 
   1  -1  14    1.36    1.26 
  -2   1 -14    4.31    1.62 
  -2   1 -14    4.03    1.41 
   2  -1  14    3.63    1.26 
  -3   1 -14   12.94    1.62 
  -3   1 -14   14.56    1.94 
   3  -1  14   13.03    1.49 
  -4   1 -14    7.08    1.62 
  -4   1 -14    4.68    1.43 
   4  -1  14    6.20    1.26 
  -5   1 -14    7.91    1.61 
  -5   1 -14    3.92    1.44 
   5  -1  14    7.96    1.30 
  -6   1 -14    0.16    2.41 
  -6   1 -14    3.27    1.45 
   6  -1  14    2.44    1.17 
  -7   1 -14    9.16    1.53 
   7  -1  14    7.59    1.31 
  -8   1 -14   50.45    2.80 
   8  -1  14   41.73    2.75 
  -9   1 -14   59.20    3.01 
   9  -1  14   52.76    3.03 
 -10   1 -14   76.91    3.28 
  10  -1  14   77.42    3.56 
 -11   1 -14   81.74    3.25 
  11  -1  14   77.02    3.80 
   1   0 -14   -1.73    1.56 
  -1   0  14   -1.17    1.45 
   0   0 -14    2.28    1.67 
   0   0  14    3.40    1.39 
  -1   0 -14    1.28    1.48 
  -1   0 -14    0.28    1.27 
   1   0  14   -0.50    1.19 
  -2   0 -14    0.59    1.30 
  -2   0 -14    4.72    1.46 
   2   0  14    2.93    1.17 
  -3   0 -14   -0.62    1.23 
  -3   0 -14   -0.10    1.32 
   3   0  14   -0.39    1.09 
  -4   0 -14    3.21    1.46 
  -4   0 -14    2.79    1.29 
   4   0  14    2.06    1.17 
  -5   0 -14   12.01    1.40 
  -5   0 -14   14.37    1.70 
  -5   0 -14   14.65    1.72 
   5   0  14   15.56    2.03 
  -6   0 -14   75.16    3.29 
  -6   0 -14   66.84    3.44 
  -6   0 -14   71.23    2.99 
   6   0  14   76.88    3.17 
  -7   0 -14   84.95    3.30 
  -7   0 -14   91.24    3.53 
   7   0  14   86.46    3.49 
  -8   0 -14   93.96    3.61 
  -8   0 -14   89.33    3.41 
   8   0  14   89.02    3.62 
  -9   0 -14  110.53    3.89 
  -9   0 -14  119.23    4.09 
   9   0  14  111.84    4.21 
 -10   0 -14   59.52    3.03 
 -10   0 -14   62.64    2.88 
  10   0  14   64.45    3.25 
 -11   0 -14   44.04    2.69 
 -11   0 -14   50.74    2.72 
  11   0  14   43.51    2.95 
   2  -1 -14    6.57    1.79 
  -2   1  14    4.38    1.80 
   1  -1 -14    2.95    1.54 
  -1   1  14    4.04    1.66 
   0  -1 -14    0.82    1.40 
   0   1  14    0.41    1.32 
  -1  -1 -14    0.01    1.34 
  -1  -1 -14    0.19    1.21 
   1   1  14   -0.30    1.15 
  -2  -1 -14    3.74    1.29 
  -2  -1 -14    4.38    1.48 
   2   1  14    4.79    1.25 
  -3  -1 -14   32.01    2.49 
  -3  -1 -14   30.45    2.55 
  -3  -1 -14   29.23    2.19 
   3   1  14   31.94    2.33 
  -4  -1 -14   64.29    3.06 
  -4  -1 -14   59.69    3.04 
  -4  -1 -14   55.20    2.72 
   4   1  14   59.43    2.85 
  -5  -1 -14   85.15    3.55 
  -5  -1 -14   90.39    3.81 
  -5  -1 -14   85.76    3.25 
   5   1  14   89.24    3.44 
  -6  -1 -14  135.91    4.91 
  -6  -1 -14  144.55    4.66 
   6   1  14  142.86    4.64 
  -7  -1 -14   91.14    5.63 
  -7  -1 -14   87.90    3.44 
   7   1  14   79.81    3.41 
  -8  -1 -14   50.88    2.75 
   8   1  14   46.65    2.72 
  -9  -1 -14   40.46    2.58 
   9   1  14   42.05    2.69 
 -10  -1 -14    7.07    1.47 
 -10  -1 -14    3.53    1.17 
  10   1  14    5.34    1.36 
 -11  -1 -14    1.83    1.30 
 -11  -1 -14    0.86    1.12 
  11   1  14    2.13    1.30 
 -12  -1 -14    6.45    1.47 
 -12  -1 -14    5.87    1.27 
  12   1  14    5.77    1.68 
   2  -2 -14    2.61    1.04 
   2  -2 -14    2.55    1.57 
  -2   2  14    2.13    1.72 
   1  -2 -14    1.49    1.41 
   1  -2 -14   -0.04    0.95 
  -1   2  14   -1.33    1.40 
   0  -2 -14   22.40    2.66 
   0   2  14   30.14    3.74 
   0   2  14   19.83    2.68 
  -1  -2 -14   26.35    2.48 
  -1  -2 -14   24.20    2.57 
   1   2  14   22.54    2.59 
   1   2  14   24.51    2.51 
  -2  -2 -14   68.58    3.32 
  -2  -2 -14   69.06    3.28 
  -2  -2 -14   64.28    2.96 
   2   2  14   74.21    3.26 
   2   2  14   70.02    3.44 
  -3  -2 -14   99.63    3.81 
  -3  -2 -14   97.79    3.78 
  -3  -2 -14   88.83    3.47 
   3   2  14   98.78    3.68 
   3   2  14   93.44    3.90 
  -4  -2 -14  121.58    4.33 
  -4  -2 -14  125.51    4.35 
   4   2  14  121.94    4.21 
   4   2  14  125.09    4.54 
  -5  -2 -14   67.48    3.31 
  -5  -2 -14   66.01    2.97 
   5   2  14   61.82    3.13 
   5   2  14   65.44    2.99 
  -6  -2 -14   32.96    2.32 
  -6  -2 -14   34.58    2.77 
   6   2  14   35.25    2.58 
   6   2  14   34.84    2.34 
  -7  -2 -14    3.76    1.23 
  -7  -2 -14    9.47    1.33 
  -7  -2 -14    7.91    1.39 
   7   2  14    7.00    1.26 
  -8  -2 -14    0.51    0.91 
  -8  -2 -14    0.91    1.17 
   8   2  14   -1.64    0.97 
  -9  -2 -14   -1.31    1.13 
  -9  -2 -14    0.80    0.94 
   9   2  14    1.12    1.10 
 -10  -2 -14    7.09    1.43 
 -10  -2 -14    6.46    1.14 
  10   2  14    4.71    1.37 
 -11  -2 -14   18.75    2.30 
 -11  -2 -14   17.27    1.99 
  11   2  14   17.84    2.47 
 -12  -2 -14    3.28    1.19 
 -12  -2 -14    1.14    1.38 
  12   2  14   -2.43    1.21 
   3  -3 -14    2.45    1.63 
   3  -3 -14    1.93    1.09 
  -3   3  14   -0.74    1.80 
  -3   3  14    1.76    1.43 
   2  -3 -14   17.08    1.94 
   2  -3 -14   18.83    1.88 
  -2   3  14   17.35    1.89 
  -2   3  14   19.81    2.17 
   1  -3 -14   33.78    2.07 
   1  -3 -14   36.39    2.89 
  -1   3  14   35.62    3.01 
  -1   3  14   27.20    2.77 
   0  -3 -14   76.11    3.68 
   0  -3 -14   74.78    2.92 
   0   3  14   70.80    3.58 
   0   3  14   80.69    3.68 
  -1  -3 -14   65.67    3.20 
  -1  -3 -14   62.35    2.94 
  -1  -3 -14   67.03    3.30 
   1   3  14   65.96    3.32 
   1   3  14   67.94    3.35 
  -2  -3 -14   94.49    3.78 
  -2  -3 -14   86.58    3.40 
  -2  -3 -14   95.20    3.74 
   2   3  14   91.28    3.85 
   2   3  14   96.83    3.81 
  -3  -3 -14   84.26    3.53 
  -3  -3 -14   84.50    3.57 
   3   3  14   89.28    3.54 
   3   3  14   84.39    3.68 
  -4  -3 -14   56.01    2.80 
  -4  -3 -14   58.78    2.92 
   4   3  14   58.93    3.04 
   4   3  14   57.94    2.86 
  -5  -3 -14    2.68    0.94 
  -5  -3 -14    2.21    1.14 
  -5  -3 -14    0.78    1.12 
   5   3  14    1.79    1.05 
   5   3  14    1.51    1.19 
  -6  -3 -14    9.71    1.43 
  -6  -3 -14    7.98    1.37 
  -6  -3 -14    7.37    1.05 
   6   3  14    8.25    1.41 
   6   3  14    8.22    1.26 
  -7  -3 -14    4.59    1.22 
  -7  -3 -14    4.70    1.27 
  -7  -3 -14    4.20    0.97 
   7   3  14    2.29    1.11 
   7   3  14    3.32    1.11 
  -8  -3 -14   17.57    1.70 
  -8  -3 -14   20.47    2.15 
   8   3  14   15.22    2.09 
  -9  -3 -14   16.88    2.14 
  -9  -3 -14   14.84    1.68 
   9   3  14   16.33    2.14 
 -10  -3 -14    1.46    0.97 
 -10  -3 -14    0.76    1.27 
  10   3  14    1.21    1.14 
 -11  -3 -14    3.64    1.01 
 -11  -3 -14    3.15    1.38 
  11   3  14    2.58    1.34 
 -12  -3 -14   18.11    1.85 
  12   3  14   16.13    1.82 
   3  -4 -14   67.88    4.02 
   3  -4 -14   65.06    2.80 
  -3   4  14   58.84    3.49 
  -3   4  14   57.03    3.99 
  -3   4  14   61.34    3.35 
   2  -4 -14   78.13    4.14 
   2  -4 -14   83.60    3.14 
  -2   4  14   81.15    3.54 
  -2   4  14   72.23    3.81 
  -2   4  14   82.47    4.10 
   1  -4 -14   88.26    3.98 
   1  -4 -14   77.82    3.07 
  -1   4  14   82.82    3.93 
  -1   4  14   82.64    3.72 
  -1   4  14   84.15    3.45 
   0  -4 -14   73.49    2.87 
   0  -4 -14   76.17    3.61 
   0  -4 -14   69.79    3.52 
   0   4  14   77.34    3.63 
   0   4  14   71.51    3.44 
  -1  -4 -14   34.07    2.04 
  -1  -4 -14   33.95    2.58 
  -1  -4 -14   27.58    2.25 
  -1  -4 -14   28.07    2.48 
   1   4  14   25.50    2.71 
   1   4  14   30.01    2.56 
  -2  -4 -14   21.58    2.25 
  -2  -4 -14   23.75    1.82 
  -2  -4 -14   23.70    2.31 
   2   4  14   21.43    2.52 
   2   4  14   21.20    2.42 
  -3  -4 -14    3.00    1.12 
  -3  -4 -14    2.92    1.18 
   3   4  14    3.35    1.22 
   3   4  14    3.60    1.30 
  -4  -4 -14    1.75    0.90 
  -4  -4 -14    0.50    1.05 
  -4  -4 -14    1.02    1.13 
   4   4  14    2.34    1.16 
   4   4  14    0.73    1.17 
  -5  -4 -14   -0.64    1.04 
  -5  -4 -14   -1.13    0.83 
  -5  -4 -14   -0.74    1.01 
   5   4  14   -0.55    1.04 
   5   4  14    0.00    0.95 
  -6  -4 -14    2.27    1.12 
  -6  -4 -14    1.99    1.17 
   6   4  14    0.10    1.08 
   6   4  14    2.48    1.04 
  -7  -4 -14    2.12    1.12 
  -7  -4 -14    7.08    1.01 
  -7  -4 -14    4.39    1.25 
   7   4  14    5.46    1.20 
   7   4  14    5.02    1.29 
  -8  -4 -14   -0.49    1.10 
  -8  -4 -14   -0.14    0.84 
  -8  -4 -14    0.59    1.93 
   8   4  14    0.12    1.43 
   8   4  14   -1.27    0.98 
  -9  -4 -14   28.70    2.39 
  -9  -4 -14   27.84    1.82 
   9   4  14   25.97    2.30 
 -10  -4 -14   44.46    2.72 
 -10  -4 -14   41.95    2.11 
  10   4  14   39.91    2.62 
 -11  -4 -14   57.76    2.40 
 -11  -4 -14   62.42    3.10 
  11   4  14   58.67    3.14 
 -12  -4 -14  102.95    4.04 
 -12  -4 -14  104.81    3.58 
  12   4  14   98.09    4.14 
  -4   5  14   48.83    3.97 
   3  -5 -14   73.82    3.06 
   3  -5 -14   76.46    4.24 
  -3   5  14   74.18    3.58 
  -3   5  14   79.53    4.21 
  -3   5  14   73.49    3.52 
   2  -5 -14   37.16    2.27 
   2  -5 -14   44.44    3.31 
  -2   5  14   35.38    2.84 
  -2   5  14   34.95    3.24 
  -2   5  14   41.18    2.75 
   1  -5 -14   13.26    1.87 
   1  -5 -14   10.24    1.28 
  -1   5  14   11.85    1.53 
  -1   5  14   10.98    1.54 
  -1   5  14    9.56    1.75 
   0  -5 -14    2.06    1.39 
   0  -5 -14    2.58    0.94 
   0  -5 -14    0.81    1.06 
   0   5  14    4.03    1.38 
   0   5  14    0.30    1.24 
   0   5  14    3.33    1.10 
  -1  -5 -14    3.08    0.96 
  -1  -5 -14    0.72    1.04 
  -1  -5 -14    3.26    1.21 
  -1  -5 -14    3.88    1.32 
   1   5  14    1.85    1.01 
   1   5  14    3.55    1.40 
   1   5  14    2.44    1.18 
  -2  -5 -14   23.54    1.82 
  -2  -5 -14   21.00    2.39 
  -2  -5 -14   20.60    2.14 
   2   5  14   22.20    2.45 
   2   5  14   22.46    2.30 
  -3  -5 -14   32.55    2.31 
  -3  -5 -14   27.29    2.44 
  -3  -5 -14   32.62    2.11 
   3   5  14   31.40    2.44 
   3   5  14   31.39    2.49 
  -4  -5 -14   12.02    1.49 
  -4  -5 -14   15.65    1.93 
  -4  -5 -14   12.88    1.67 
   4   5  14   13.73    1.58 
   4   5  14   16.37    2.16 
  -5  -5 -14   18.86    1.74 
  -5  -5 -14   20.32    2.04 
   5   5  14   20.62    2.14 
   5   5  14   18.82    2.22 
  -6  -5 -14    0.97    0.83 
  -6  -5 -14    0.74    1.10 
  -6  -5 -14    0.39    1.17 
   6   5  14    0.25    1.07 
   6   5  14   -0.66    0.95 
  -7  -5 -14   36.41    1.89 
  -7  -5 -14   32.66    2.34 
  -7  -5 -14   31.55    1.37 
   7   5  14   32.51    2.32 
   7   5  14   35.69    2.53 
  -8  -5 -14   51.49    2.34 
  -8  -5 -14   45.85    1.77 
  -8  -5 -14   50.08    2.74 
   8   5  14   51.54    2.71 
   8   5  14   47.24    2.97 
  -9  -5 -14   81.34    2.82 
  -9  -5 -14   81.81    3.47 
   9   5  14   79.52    3.36 
 -10  -5 -14   88.23    3.62 
 -10  -5 -14   74.62    2.74 
  10   5  14   83.20    3.52 
 -11  -5 -14   75.21    2.97 
 -11  -5 -14   82.96    3.56 
  11   5  14   80.70    3.57 
  12   5  14   74.83    3.62 
   4  -6 -14   25.55    2.27 
   4  -6 -14   29.40    3.41 
  -4   6  14   30.31    3.19 
  -4   6  14   31.61    3.49 
   3  -6 -14   13.29    2.17 
   3  -6 -14    9.57    1.30 
  -3   6  14    5.99    1.37 
  -3   6  14    9.85    1.65 
  -3   6  14    9.18    1.91 
   2  -6 -14   -0.64    1.62 
   2  -6 -14    0.32    0.95 
  -2   6  14   -2.49    1.20 
  -2   6  14    3.51    1.37 
  -2   6  14    0.62    1.48 
   1  -6 -14    0.36    0.92 
   1  -6 -14    0.03    1.45 
  -1   6  14   -0.23    1.20 
  -1   6  14   -1.80    1.31 
  -1   6  14    1.41    1.13 
   0  -6 -14    8.93    1.18 
   0  -6 -14    9.54    1.40 
   0  -6 -14    8.74    1.59 
   0   6  14    9.44    1.66 
   0   6  14    8.60    1.26 
   0   6  14    6.89    1.33 
  -1  -6 -14   30.15    2.40 
  -1  -6 -14   26.09    1.92 
   1   6  14   31.08    2.71 
   1   6  14   28.12    1.99 
   1   6  14   22.73    2.33 
  -2  -6 -14   10.62    1.51 
  -2  -6 -14   10.27    1.49 
  -2  -6 -14    9.30    1.16 
  -2  -6 -14   12.75    1.48 
   2   6  14   10.46    1.56 
   2   6  14   10.41    1.40 
  -3  -6 -14    2.31    1.08 
  -3  -6 -14    4.03    1.21 
  -3  -6 -14    5.51    1.10 
  -3  -6 -14    5.43    1.05 
   3   6  14    3.54    1.19 
   3   6  14    4.02    1.25 
  -4  -6 -14   10.38    1.39 
  -4  -6 -14    8.68    1.18 
   4   6  14    7.12    1.29 
   4   6  14    7.86    1.35 
  -5  -6 -14   13.70    1.96 
  -5  -6 -14   11.45    1.23 
   5   6  14   10.52    1.40 
   5   6  14   13.10    1.49 
  -6  -6 -14   49.51    2.69 
  -6  -6 -14   52.46    2.31 
   6   6  14   50.83    2.71 
   6   6  14   48.53    2.76 
  -7  -6 -14   80.55    2.91 
  -7  -6 -14   87.27    3.48 
  -7  -6 -14   80.34    2.47 
   7   6  14   82.58    3.38 
   7   6  14   82.65    3.51 
  -8  -6 -14  100.94    2.96 
  -8  -6 -14   92.65    3.14 
  -8  -6 -14  101.20    4.62 
  -8  -6 -14  104.36    3.90 
   8   6  14   98.68    4.28 
   8   6  14  105.49    3.80 
  -9  -6 -14   72.57    2.47 
  -9  -6 -14   77.37    3.36 
  -9  -6 -14   65.11    3.17 
   9   6  14   76.04    3.27 
 -10  -6 -14   40.92    2.81 
  10   6  14   40.90    2.65 
 -11  -6 -14   24.24    2.61 
  11   6  14   23.45    2.52 
  12   6  14    3.38    1.40 
   4  -7 -14    4.08    1.84 
   4  -7 -14   -2.24    1.06 
  -4   7  14    3.76    1.68 
  -4   7  14   -2.13    1.74 
   3  -7 -14    0.13    1.04 
   3  -7 -14    2.03    1.69 
  -3   7  14   -0.33    1.19 
  -3   7  14    3.84    1.43 
  -3   7  14    2.39    1.69 
   2  -7 -14    9.54    1.82 
   2  -7 -14   10.87    1.36 
  -2   7  14   12.82    1.39 
  -2   7  14   10.37    1.80 
  -2   7  14    8.63    1.50 
   1  -7 -14    4.54    1.50 
   1  -7 -14    0.55    0.91 
   1  -7 -14   -0.06    1.33 
  -1   7  14    1.36    1.15 
  -1   7  14    1.77    1.41 
  -1   7  14    3.19    1.19 
   0  -7 -14   -0.34    1.14 
   0  -7 -14   -0.07    0.94 
   0  -7 -14    1.30    1.29 
   0   7  14    1.97    1.04 
   0   7  14   -0.14    1.10 
   0   7  14    2.84    1.41 
  -1  -7 -14   -0.06    0.84 
  -1  -7 -14    2.56    1.25 
   1   7  14    0.67    0.91 
   1   7  14   -0.02    1.25 
   1   7  14    0.72    1.05 
  -2  -7 -14   19.32    1.79 
  -2  -7 -14   19.27    2.12 
  -2  -7 -14   20.73    2.04 
   2   7  14   17.93    1.69 
   2   7  14   19.55    2.13 
   2   7  14   18.33    2.40 
  -3  -7 -14   68.43    2.85 
  -3  -7 -14   69.80    2.79 
  -3  -7 -14   66.34    3.05 
   3   7  14   69.70    3.33 
   3   7  14   61.16    2.99 
  -4  -7 -14  107.17    3.59 
  -4  -7 -14  104.74    3.88 
  -4  -7 -14   97.76    3.59 
   4   7  14  111.24    4.08 
   4   7  14  106.28    3.88 
  -5  -7 -14  145.22    4.36 
  -5  -7 -14  145.47    4.78 
   5   7  14  142.98    4.76 
   5   7  14  146.95    4.86 
  -6  -7 -14  154.43    3.98 
  -6  -7 -14  153.26    4.95 
  -6  -7 -14  142.01    4.36 
  -6  -7 -14  143.74    4.89 
   6   7  14  153.22    4.90 
   6   7  14  155.30    4.94 
  -7  -7 -14   69.46    3.19 
  -7  -7 -14   71.60    3.21 
  -7  -7 -14   70.00    2.24 
  -7  -7 -14   62.46    2.45 
   7   7  14   68.60    3.07 
   7   7  14   65.23    3.17 
  -8  -7 -14   65.46    2.40 
  -8  -7 -14   67.54    2.33 
  -8  -7 -14   72.88    3.34 
  -8  -7 -14   75.88    5.14 
   8   7  14   70.52    3.08 
  -9  -7 -14    8.90    1.64 
  -9  -7 -14    8.49    0.95 
   9   7  14    7.80    1.35 
 -10  -7 -14    0.73    0.78 
 -10  -7 -14    2.43    1.44 
  10   7  14    0.31    1.15 
  11   7  14   -0.81    1.24 
  12   7  14    1.12    1.34 
  -4   8  14    8.09    1.71 
  -4   8  14    3.82    2.32 
   3  -8 -14    5.35    1.87 
   3  -8 -14    2.36    1.18 
  -3   8  14    6.09    1.55 
  -3   8  14    6.62    1.87 
   2  -8 -14    1.20    1.01 
   2  -8 -14   -1.72    1.52 
  -2   8  14    2.97    1.29 
  -2   8  14   -0.72    1.01 
  -2   8  14    2.49    1.54 
   1  -8 -14    5.35    1.54 
   1  -8 -14    5.04    1.46 
   1  -8 -14    5.59    1.15 
  -1   8  14    5.91    1.58 
  -1   8  14    6.58    1.33 
  -1   8  14    5.39    1.22 
   0  -8 -14   23.16    1.94 
   0  -8 -14   29.05    2.50 
   0  -8 -14   21.11    2.36 
   0   8  14   23.98    2.70 
   0   8  14   20.96    2.21 
   0   8  14   26.37    2.13 
  -1  -8 -14   47.69    2.41 
  -1  -8 -14   49.02    2.80 
   1   8  14   46.57    3.02 
   1   8  14   50.10    2.64 
   1   8  14   46.08    2.34 
  -2  -8 -14   75.97    2.99 
  -2  -8 -14   71.47    3.10 
  -2  -8 -14   75.72    3.29 
   2   8  14   77.63    3.19 
   2   8  14   77.28    3.58 
  -3  -8 -14  140.34    4.54 
  -3  -8 -14  145.02    4.81 
  -3  -8 -14  142.72    4.55 
   3   8  14  150.61    4.77 
   3   8  14  153.59    5.12 
   3   8  14  148.20    4.24 
  -4  -8 -14   61.61    3.06 
  -4  -8 -14   63.97    2.69 
  -4  -8 -14   66.84    2.80 
  -4  -8 -14   64.83    3.02 
   4   8  14   65.45    3.01 
   4   8  14   73.33    3.35 
  -5  -8 -14   70.38    3.19 
  -5  -8 -14   69.05    2.19 
  -5  -8 -14   73.77    3.23 
   5   8  14   74.31    3.34 
   5   8  14   68.93    3.16 
  -6  -8 -14   17.45    1.22 
  -6  -8 -14   19.24    2.07 
  -6  -8 -14   16.27    1.57 
  -6  -8 -14   19.07    2.19 
   6   8  14   14.59    1.57 
   6   8  14   11.57    1.43 
  -7  -8 -14    1.57    1.23 
  -7  -8 -14    2.94    1.13 
  -7  -8 -14    0.70    0.73 
  -7  -8 -14    0.74    0.76 
   7   8  14    0.84    1.10 
   7   8  14    0.73    1.10 
  -8  -8 -14    0.65    1.34 
  -8  -8 -14    0.36    0.74 
   8   8  14    0.37    1.07 
  -9  -8 -14   24.77    2.54 
  -9  -8 -14   23.43    1.53 
   9   8  14   19.52    2.24 
 -10  -8 -14   14.84    1.52 
 -10  -8 -14   14.49    1.92 
  10   8  14    9.60    1.50 
 -11  -8 -14   18.93    1.88 
  11   8  14   16.69    1.73 
  12   8  14   -2.83    1.33 
   3  -9 -14    5.85    1.83 
   3  -9 -14    4.83    1.25 
  -3   9  14    6.76    1.59 
  -3   9  14    4.41    1.77 
   2  -9 -14   48.39    3.17 
   2  -9 -14   47.00    2.60 
  -2   9  14   37.81    2.83 
  -2   9  14   50.69    3.58 
  -2   9  14   45.65    2.38 
   1  -9 -14   82.62    3.69 
   1  -9 -14   76.12    3.10 
   1  -9 -14   66.61    3.43 
  -1   9  14   68.86    2.96 
  -1   9  14   75.16    3.93 
  -1   9  14   76.88    3.22 
   0  -9 -14   95.71    3.94 
   0  -9 -14   93.01    3.50 
   0   9  14   96.60    3.50 
   0   9  14   98.46    3.51 
   0   9  14   96.07    4.20 
  -1  -9 -14   94.86    3.56 
  -1  -9 -14   97.39    3.90 
   1   9  14   99.42    3.40 
   1   9  14  104.48    4.18 
   1   9  14   95.20    3.57 
  -2  -9 -14   76.37    3.04 
  -2  -9 -14   79.68    3.42 
  -2  -9 -14   69.93    3.07 
   2   9  14   76.27    3.13 
   2   9  14   75.19    3.56 
  -3  -9 -14  110.82    3.83 
  -3  -9 -14  105.83    3.76 
  -3  -9 -14  115.28    4.19 
  -3  -9 -14  125.04    4.74 
   3   9  14  119.39    4.40 
   3   9  14  111.20    3.99 
   3   9  14  114.75    3.51 
  -4  -9 -14    0.44    0.94 
  -4  -9 -14   -0.05    0.63 
  -4  -9 -14    0.19    1.16 
  -4  -9 -14    1.57    0.98 
  -4  -9 -14    1.94    1.09 
   4   9  14    0.54    1.16 
   4   9  14    1.48    1.09 
  -5  -9 -14    3.74    1.30 
  -5  -9 -14    2.24    0.72 
  -5  -9 -14    3.44    1.15 
  -5  -9 -14    2.98    0.91 
   5   9  14    4.01    1.26 
   5   9  14    1.54    1.11 
  -6  -9 -14    6.38    1.41 
  -6  -9 -14    4.98    0.81 
  -6  -9 -14    4.77    1.22 
  -6  -9 -14    3.84    1.44 
   6   9  14    5.24    1.25 
   6   9  14    4.47    1.22 
  -7  -9 -14    8.97    0.98 
  -7  -9 -14   10.01    1.94 
  -7  -9 -14    6.63    1.60 
   7   9  14    5.02    1.24 
   7   9  14    6.56    1.48 
  -8  -9 -14   13.94    1.36 
  -8  -9 -14   13.91    1.85 
   8   9  14   15.37    2.12 
  -9  -9 -14   17.41    1.55 
  -9  -9 -14   19.37    2.59 
   9   9  14   19.27    2.27 
 -10  -9 -14    0.83    1.03 
  10   9  14   -0.10    1.16 
 -11  -9 -14    4.46    1.07 
  11   9  14    2.89    1.40 
   3 -10 -14   51.20    2.85 
   3 -10 -14   59.79    3.67 
  -3  10  14   55.92    5.00 
  -3  10  14   55.69    3.35 
   2 -10 -14  123.44    4.72 
   2 -10 -14  105.61    4.11 
  -2  10  14  123.14    4.39 
  -2  10  14  112.91    4.91 
   1 -10 -14   72.18    3.15 
   1 -10 -14   76.18    3.66 
   1 -10 -14   77.37    3.79 
  -1  10  14   74.45    3.89 
  -1  10  14   73.49    3.28 
  -1  10  14   71.24    2.87 
   0 -10 -14   47.80    2.53 
   0 -10 -14   38.40    2.78 
   0 -10 -14   47.89    3.06 
   0  10  14   47.68    2.54 
   0  10  14   54.66    3.36 
   0  10  14   54.61    2.63 
  -1 -10 -14   31.88    2.58 
  -1 -10 -14   32.59    2.17 
   1  10  14   34.57    2.91 
   1  10  14   32.47    2.10 
   1  10  14   29.39    2.35 
  -2 -10 -14   15.53    1.86 
  -2 -10 -14   14.66    1.84 
  -2 -10 -14   13.94    1.46 
   2  10  14   14.21    1.83 
   2  10  14   13.12    1.71 
   2  10  14   14.81    2.06 
  -3 -10 -14    2.28    1.31 
  -3 -10 -14    1.56    1.01 
  -3 -10 -14    1.64    0.98 
   3  10  14    1.65    0.82 
   3  10  14    2.43    1.35 
   3  10  14    0.59    1.08 
  -4 -10 -14   17.14    2.30 
  -4 -10 -14   20.04    1.28 
  -4 -10 -14   18.43    1.88 
  -4 -10 -14   18.75    1.91 
   4  10  14   17.44    2.38 
   4  10  14   22.90    2.21 
   4  10  14   21.56    1.48 
  -5 -10 -14    7.86    1.26 
  -5 -10 -14   12.69    1.61 
  -5 -10 -14   10.26    1.03 
  -5 -10 -14   10.07    0.96 
  -5 -10 -14   12.69    2.45 
   5  10  14    7.12    1.30 
   5  10  14    9.40    1.48 
  -6 -10 -14   11.38    1.66 
  -6 -10 -14   10.16    1.01 
   6  10  14    8.91    1.42 
   6  10  14    9.29    1.36 
  -7 -10 -14    3.78    0.87 
  -7 -10 -14    3.77    1.46 
   7  10  14    2.52    1.15 
  -8 -10 -14    1.04    0.84 
  -8 -10 -14    2.47    1.50 
   8  10  14    1.32    1.11 
   9  10  14   13.81    1.63 
 -10 -10 -14   41.91    2.21 
  10  10  14   39.65    2.78 
   2 -11 -14   12.19    1.93 
   2 -11 -14   10.21    1.55 
  -2  11  14   13.65    2.03 
  -2  11  14   10.83    1.67 
   1 -11 -14    4.00    1.21 
   1 -11 -14    2.24    1.56 
  -1  11  14    4.77    1.68 
  -1  11  14    3.91    1.35 
   0 -11 -14    1.45    1.45 
   0 -11 -14    1.12    0.95 
   0  11  14    2.54    1.51 
   0  11  14   -0.99    1.03 
   0  11  14    0.07    1.11 
  -1 -11 -14   13.08    1.75 
  -1 -11 -14    9.70    1.31 
   1  11  14   13.41    1.80 
   1  11  14   11.26    1.28 
   1  11  14   11.64    1.36 
  -2 -11 -14   10.49    1.37 
  -2 -11 -14   11.43    1.40 
  -2 -11 -14   11.66    1.72 
   2  11  14   10.43    1.18 
   2  11  14   11.84    1.42 
   2  11  14    9.95    1.63 
  -3 -11 -14   22.09    2.05 
  -3 -11 -14   24.75    2.51 
  -3 -11 -14   31.29    2.13 
   3  11  14   25.10    1.69 
   3  11  14   25.11    2.67 
   3  11  14   26.02    2.31 
  -4 -11 -14   23.74    1.44 
  -4 -11 -14   18.73    2.38 
  -4 -11 -14   21.52    1.96 
   4  11  14   21.52    2.60 
   4  11  14   21.17    1.44 
   4  11  14   19.44    2.31 
  -5 -11 -14    1.20    1.36 
  -5 -11 -14   -0.41    0.74 
  -5 -11 -14    0.10    0.99 
   5  11  14   -0.78    1.15 
   5  11  14    0.45    1.23 
  -6 -11 -14    3.47    0.85 
  -6 -11 -14    1.16    1.37 
   6  11  14    0.76    1.18 
  -7 -11 -14   30.48    1.76 
  -7 -11 -14   33.76    2.81 
   7  11  14   24.43    2.42 
   8  11  14   52.10    2.92 
  -9 -11 -14   69.84    2.74 
   9  11  14   66.14    3.29 
  10  11  14   90.02    3.81 
  -2  12  14    0.26    1.47 
   1 -12 -14   10.54    1.82 
   1 -12 -14    6.73    1.38 
  -1  12  14    7.31    1.75 
  -1  12  14    9.88    1.51 
   0 -12 -14   29.64    2.26 
   0 -12 -14   32.28    2.93 
   0 -12 -14   31.94    2.77 
   0  12  14   30.87    2.99 
   0  12  14   36.04    3.30 
   0  12  14   27.72    2.37 
  -1 -12 -14   13.13    1.51 
  -1 -12 -14   13.51    1.95 
   1  12  14   15.60    2.02 
   1  12  14   12.47    1.36 
   1  12  14   12.88    1.39 
  -2 -12 -14    3.40    1.14 
  -2 -12 -14    2.38    1.51 
  -2 -12 -14    7.26    1.31 
   2  12  14    2.85    1.19 
   2  12  14    4.08    1.49 
   2  12  14    3.24    1.16 
  -3 -12 -14   -2.99    1.32 
  -3 -12 -14    0.62    1.00 
  -3 -12 -14    2.06    1.06 
   3  12  14    1.65    0.85 
   3  12  14   -0.18    1.30 
   3  12  14    0.58    1.20 
  -4 -12 -14    8.31    1.03 
  -4 -12 -14    8.13    1.65 
  -4 -12 -14    6.78    1.28 
   4  12  14    8.00    1.54 
   4  12  14    8.06    1.41 
   4  12  14   11.02    1.28 
  -5 -12 -14   35.74    2.87 
  -5 -12 -14   32.58    1.82 
  -5 -12 -14   33.51    2.33 
   5  12  14   35.33    2.82 
  -6 -12 -14   53.29    3.30 
  -6 -12 -14   54.69    2.31 
   6  12  14   55.41    3.08 
  -7 -12 -14   98.90    3.40 
   7  12  14  100.72    3.93 
  -8 -12 -14   76.50    2.89 
   8  12  14   72.22    3.41 
   0 -13 -14    0.82    1.67 
   0 -13 -14    3.04    1.22 
   0 -13 -14    2.74    1.56 
   0  13  14    1.18    1.27 
   0  13  14    1.43    1.59 
  -1 -13 -14   12.46    1.55 
  -1 -13 -14   12.57    1.92 
   1  13  14   12.62    1.43 
   1  13  14   13.05    1.90 
  -2 -13 -14   31.62    2.37 
  -2 -13 -14   35.24    2.98 
   2  13  14   35.26    2.43 
   2  13  14   28.75    3.13 
  -3 -13 -14   69.88    3.64 
  -3 -13 -14   65.84    3.02 
   3  13  14   64.64    3.65 
   3  13  14   65.24    3.15 
   3  13  14   66.69    2.51 
  -4 -13 -14   85.79    3.54 
  -4 -13 -14   85.34    3.50 
  -4 -13 -14   90.52    4.02 
   4  13  14   93.45    3.19 
   4  13  14   93.63    4.10 
  -5 -13 -14  134.28    4.17 
  -5 -13 -14  131.13    4.51 
  -5 -13 -14  129.64    5.00 
   5  13  14  137.83    4.96 
  -6 -13 -14   80.64    2.95 
   6  13  14   73.56    3.56 
  -7 -13 -14   52.86    2.41 
   7  13  14   50.59    3.01 
   7  13  14   46.88    3.01 
  -3 -14 -14   78.32    4.00 
   3  14  14   76.10    3.94 
   3  14  14   79.75    3.57 
  -4 -14 -14   49.25    4.92 
   4  14  14   48.54    3.36 
  -3   1 -15    2.61    1.80 
   3  -1  15    2.88    1.39 
  -4   1 -15    5.35    1.86 
   4  -1  15    5.14    1.41 
  -5   1 -15    7.80    1.82 
   5  -1  15   10.27    1.62 
  -6   1 -15   17.60    2.03 
   6  -1  15   18.05    2.43 
  -7   1 -15   76.03    3.55 
   7  -1  15   65.54    3.37 
  -8   1 -15   96.42    3.96 
   8  -1  15   82.48    3.80 
   9  -1  15   49.63    3.06 
  -1   0 -15   -1.11    1.55 
   1   0  15    0.82    1.42 
  -2   0 -15   -1.17    1.51 
   2   0  15   -0.24    1.35 
  -3   0 -15   18.15    2.08 
  -3   0 -15   18.33    2.23 
   3   0  15   18.61    2.45 
  -4   0 -15   46.73    3.09 
   4   0  15   39.53    2.80 
  -5   0 -15   70.13    3.52 
   5   0  15   67.60    3.28 
  -6   0 -15   81.28    3.66 
   6   0  15   78.79    3.52 
  -7   0 -15   52.46    3.11 
   7   0  15   58.18    3.05 
  -8   0 -15   31.67    2.73 
   8   0  15   30.24    2.63 
  -9   0 -15   14.66    1.82 
   9   0  15   10.48    1.58 
 -10   0 -15    0.63    1.52 
  10   0  15   -2.74    1.21 
   0  -1 -15   13.08    1.96 
   0   1  15   11.77    1.87 
  -1  -1 -15   27.88    3.15 
   1   1  15   24.93    2.76 
  -2  -1 -15   61.05    3.57 
  -2  -1 -15   57.95    3.58 
   2   1  15   56.83    3.12 
  -3  -1 -15   95.47    4.14 
   3   1  15   96.75    3.83 
  -4  -1 -15  100.82    4.15 
   4   1  15  100.17    3.91 
  -5  -1 -15   85.54    3.76 
   5   1  15   89.07    3.64 
  -6  -1 -15   58.25    3.08 
   6   1  15   49.68    2.92 
  -7  -1 -15    9.28    1.34 
  -7  -1 -15   14.59    1.74 
   7   1  15   12.79    1.61 
  -8  -1 -15    1.49    1.34 
  -8  -1 -15   -0.20    1.06 
   8   1  15    0.09    1.15 
  -9  -1 -15    4.26    1.18 
  -9  -1 -15   -0.26    1.45 
   9   1  15   -1.02    1.23 
 -10  -1 -15    5.63    1.58 
 -10  -1 -15    4.29    1.23 
  10   1  15    1.68    1.37 
 -11  -1 -15    1.85    1.39 
 -11  -1 -15   -0.55    1.48 
   1  -2 -15   44.36    3.59 
  -1   2  15   42.22    3.61 
   0  -2 -15  103.94    4.58 
   0   2  15  106.74    4.50 
  -1  -2 -15   77.40    3.91 
   1   2  15   77.32    3.79 
  -2  -2 -15   73.53    3.68 
   2   2  15   69.26    3.36 
  -3  -2 -15   61.76    3.36 
   3   2  15   63.90    3.16 
  -4  -2 -15   47.68    3.38 
  -4  -2 -15   46.02    2.94 
   4   2  15   42.75    2.72 
  -5  -2 -15    7.29    1.47 
  -5  -2 -15    5.62    1.16 
   5   2  15    3.61    1.27 
  -6  -2 -15    0.80    1.29 
  -6  -2 -15    1.60    1.05 
   6   2  15    0.23    1.12 
  -7  -2 -15    0.97    1.33 
  -7  -2 -15    4.73    1.11 
   7   2  15    5.11    1.35 
  -8  -2 -15    3.89    1.15 
  -8  -2 -15    7.90    1.55 
   8   2  15    7.91    1.39 
  -9  -2 -15    0.51    1.35 
  -9  -2 -15    1.77    1.08 
   9   2  15   -0.03    1.21 
 -10  -2 -15   -1.01    1.14 
 -10  -2 -15    2.09    1.46 
  10   2  15    4.94    1.41 
 -11  -2 -15    7.41    1.61 
 -11  -2 -15    3.21    1.14 
  11   2  15    6.96    1.64 
   1  -3 -15   76.61    4.14 
   1  -3 -15   79.78    3.20 
  -1   3  15   85.58    4.28 
   0  -3 -15   84.47    4.07 
   0   3  15   81.87    4.11 
  -1  -3 -15   34.79    2.99 
   1   3  15   30.74    2.95 
  -2  -3 -15   28.31    2.74 
   2   3  15   26.48    2.70 
  -3  -3 -15   11.22    1.78 
  -3  -3 -15   11.45    1.38 
   3   3  15    9.71    1.52 
  -4  -3 -15    1.99    1.35 
  -4  -3 -15    2.82    1.07 
   4   3  15    0.21    1.17 
  -5  -3 -15   10.91    1.64 
  -5  -3 -15    6.50    1.19 
   5   3  15   10.94    1.50 
  -6  -3 -15    4.08    1.31 
   6   3  15    2.96    1.25 
  -7  -3 -15    1.92    1.30 
   7   3  15   -1.75    1.07 
  -8  -3 -15    0.29    1.27 
   8   3  15   -0.97    1.12 
  -9  -3 -15   12.45    1.72 
  -9  -3 -15   12.38    1.35 
   9   3  15   11.10    1.52 
 -10  -3 -15   31.27    2.65 
 -10  -3 -15   27.48    2.17 
  10   3  15   19.25    2.54 
 -11  -3 -15   46.13    2.74 
 -11  -3 -15   40.95    2.91 
  11   3  15   41.30    2.95 
   2  -4 -15   42.12    2.47 
  -2   4  15   46.62    3.25 
  -2   4  15   45.54    3.87 
   1  -4 -15   25.65    2.03 
   1  -4 -15   23.64    3.02 
  -1   4  15   24.25    3.23 
   0  -4 -15    8.63    1.86 
   0  -4 -15    7.31    1.25 
   0   4  15    5.84    1.81 
   0   4  15    8.27    1.76 
  -1  -4 -15    2.80    1.53 
  -1  -4 -15   -0.71    0.95 
   1   4  15    1.02    1.39 
   1   4  15   -2.65    1.32 
  -2  -4 -15    1.54    1.15 
  -2  -4 -15    4.57    1.47 
   2   4  15    1.36    1.27 
   2   4  15    3.29    1.39 
  -3  -4 -15   16.98    2.29 
  -3  -4 -15   15.96    1.98 
   3   4  15   14.95    1.75 
   3   4  15   13.80    1.64 
  -4  -4 -15   14.92    1.75 
   4   4  15   10.94    1.58 
   4   4  15   10.95    1.51 
  -5  -4 -15    2.12    1.29 
   5   4  15    1.83    1.15 
  -6  -4 -15    5.17    1.36 
  -6  -4 -15    7.77    1.21 
   6   4  15    3.88    1.25 
  -7  -4 -15    8.32    1.19 
  -7  -4 -15   14.23    1.70 
   7   4  15    9.56    1.37 
  -8  -4 -15   63.65    2.71 
  -8  -4 -15   64.74    3.14 
  -8  -4 -15   59.36    1.98 
   8   4  15   67.22    3.19 
  -9  -4 -15   92.22    3.34 
  -9  -4 -15   99.54    3.89 
   9   4  15   91.81    3.83 
 -10  -4 -15   84.65    3.07 
 -10  -4 -15   88.58    3.70 
  10   4  15   78.08    3.70 
 -11  -4 -15   80.42    3.72 
  11   4  15   83.44    3.72 
 -12  -4 -15   50.53    3.22 
   2  -5 -15    1.63    1.87 
   2  -5 -15    1.64    1.10 
  -2   5  15   -1.36    1.59 
  -2   5  15    2.75    1.41 
  -2   5  15    4.32    1.86 
   1  -5 -15    4.64    1.81 
   1  -5 -15    2.26    1.07 
  -1   5  15    3.93    1.42 
  -1   5  15    0.67    1.47 
  -1   5  15    3.85    1.72 
   0  -5 -15    6.03    1.82 
   0  -5 -15    7.00    1.17 
   0   5  15    7.04    1.67 
   0   5  15    5.01    1.52 
  -1  -5 -15   11.43    1.79 
  -1  -5 -15    8.66    1.25 
   1   5  15    7.21    1.62 
   1   5  15    9.18    1.56 
  -2  -5 -15   10.88    1.55 
  -2  -5 -15   10.99    1.32 
  -2  -5 -15   10.41    1.59 
   2   5  15   11.10    1.68 
   2   5  15    9.12    1.56 
  -3  -5 -15    2.99    1.34 
   3   5  15    7.23    1.42 
   3   5  15    6.76    1.46 
  -4  -5 -15    0.57    1.24 
   4   5  15   -1.20    1.17 
   4   5  15    0.05    1.17 
  -5  -5 -15    9.97    1.50 
  -5  -5 -15    7.18    1.22 
   5   5  15    5.86    1.34 
   5   5  15    6.19    1.37 
  -6  -5 -15   61.74    3.09 
  -6  -5 -15   68.26    2.76 
   6   5  15   63.80    3.13 
   6   5  15   54.78    4.78 
  -7  -5 -15  123.49    3.96 
  -7  -5 -15  124.74    4.44 
   7   5  15  126.02    4.45 
  -8  -5 -15  106.70    4.05 
  -8  -5 -15   98.78    3.46 
  -8  -5 -15  102.64    2.93 
   8   5  15  104.38    4.01 
  -9  -5 -15   83.04    2.60 
  -9  -5 -15   82.52    3.68 
  -9  -5 -15   83.48    3.06 
   9   5  15   80.65    3.55 
 -10  -5 -15   39.84    2.19 
 -10  -5 -15   49.41    3.03 
  10   5  15   47.06    2.93 
 -11  -5 -15   24.22    2.75 
  11   5  15   23.81    2.51 
 -12  -5 -15    6.10    1.77 
   2  -6 -15    5.39    1.25 
   2  -6 -15    6.30    1.96 
  -2   6  15    7.87    1.58 
  -2   6  15   10.27    2.01 
  -2   6  15    5.48    1.54 
   1  -6 -15    6.11    1.27 
   1  -6 -15    8.37    1.88 
  -1   6  15    5.14    1.75 
  -1   6  15    5.83    1.52 
  -1   6  15    7.11    1.51 
   0  -6 -15    3.22    1.09 
   0  -6 -15    5.43    1.61 
   0   6  15    6.99    1.63 
   0   6  15    3.95    1.49 
   0   6  15    4.10    1.25 
  -1  -6 -15    0.13    1.36 
  -1  -6 -15   -2.19    1.16 
  -1  -6 -15   -0.36    0.92 
   1   6  15    0.49    1.05 
   1   6  15   -2.32    1.27 
  -2  -6 -15    9.82    1.29 
  -2  -6 -15   10.69    1.43 
  -2  -6 -15   11.74    1.74 
   2   6  15   12.75    1.74 
   2   6  15   11.50    1.56 
  -3  -6 -15   19.28    1.91 
  -3  -6 -15   20.66    2.31 
   3   6  15   24.05    2.45 
   3   6  15   19.16    2.59 
  -4  -6 -15   75.79    3.18 
  -4  -6 -15   80.74    3.41 
   4   6  15   81.79    3.62 
   4   6  15   73.00    3.46 
  -5  -6 -15   76.32    3.05 
  -5  -6 -15   75.36    3.36 
   5   6  15   71.90    3.43 
   5   6  15   76.29    3.42 
  -6  -6 -15   83.42    3.54 
  -6  -6 -15   86.00    3.16 
   6   6  15   78.35    3.82 
   6   6  15   85.56    3.54 
  -7  -6 -15   73.50    3.35 
  -7  -6 -15   70.02    2.80 
  -7  -6 -15   67.60    2.14 
   7   6  15   69.73    3.25 
  -8  -6 -15   36.79    2.15 
  -8  -6 -15   44.65    2.84 
  -8  -6 -15   37.81    1.66 
   8   6  15   40.40    2.63 
  -9  -6 -15   10.74    1.18 
  -9  -6 -15   15.87    1.86 
  -9  -6 -15   14.02    1.27 
   9   6  15   13.39    1.62 
 -10  -6 -15    3.40    1.57 
 -10  -6 -15    2.30    0.83 
  10   6  15    0.74    1.29 
 -11  -6 -15    1.42    1.55 
  11   6  15   -0.77    1.27 
  12   6  15    9.25    2.11 
   2  -7 -15    5.13    1.23 
   2  -7 -15    5.74    1.85 
  -2   7  15    5.94    1.79 
  -2   7  15    4.79    1.54 
  -2   7  15    6.37    1.41 
   1  -7 -15    7.13    1.80 
   1  -7 -15    2.93    1.14 
  -1   7  15    3.96    1.38 
  -1   7  15    1.47    1.69 
   0  -7 -15   23.93    2.06 
   0  -7 -15   21.45    2.68 
   0   7  15   25.67    2.30 
   0   7  15   18.79    1.87 
   0   7  15   22.26    3.00 
  -1  -7 -15   53.73    3.07 
  -1  -7 -15   43.12    2.45 
  -1  -7 -15   41.79    2.85 
   1   7  15   47.75    2.53 
   1   7  15   45.72    2.92 
   1   7  15   47.81    3.28 
  -2  -7 -15  108.38    4.17 
  -2  -7 -15  105.83    3.77 
   2   7  15  106.52    4.13 
   2   7  15  107.68    3.64 
   2   7  15  111.49    4.49 
  -3  -7 -15   78.08    3.18 
  -3  -7 -15   81.13    4.19 
  -3  -7 -15   85.03    3.52 
   3   7  15   85.54    3.84 
   3   7  15   78.29    3.50 
  -4  -7 -15  126.64    4.13 
  -4  -7 -15  116.62    4.37 
   4   7  15  120.37    4.42 
   4   7  15  124.46    4.59 
  -5  -7 -15   85.10    3.24 
  -5  -7 -15   88.47    3.66 
   5   7  15   87.26    3.69 
   5   7  15   87.76    3.73 
  -6  -7 -15   24.70    1.99 
  -6  -7 -15   31.07    2.50 
   6   7  15   31.69    2.47 
   6   7  15   26.30    2.49 
  -7  -7 -15    3.28    0.75 
  -7  -7 -15    3.32    1.23 
  -7  -7 -15    3.76    1.48 
   7   7  15    3.16    1.19 
  -8  -7 -15    1.57    0.77 
  -8  -7 -15   -1.27    0.86 
  -8  -7 -15   -1.82    1.33 
   8   7  15    1.62    1.15 
  -9  -7 -15    6.55    1.67 
  -9  -7 -15    6.77    0.89 
   9   7  15    7.39    1.44 
 -10  -7 -15    6.05    1.77 
 -10  -7 -15    6.50    0.97 
  10   7  15    4.79    1.41 
 -11  -7 -15    2.88    1.63 
 -11  -7 -15    2.11    1.07 
  11   7  15    0.03    1.34 
   2  -8 -15    8.32    1.93 
   2  -8 -15    9.41    1.38 
  -2   8  15   11.08    1.70 
  -2   8  15   10.97    1.93 
   1  -8 -15   53.22    2.73 
   1  -8 -15   55.81    3.47 
  -1   8  15   48.23    2.94 
  -1   8  15   57.88    3.67 
  -1   8  15   51.00    2.88 
   0  -8 -15   69.78    3.09 
   0  -8 -15   76.62    3.64 
   0   8  15   72.32    3.15 
   0   8  15   73.73    3.90 
   0   8  15   65.38    3.22 
  -1  -8 -15   66.52    2.99 
  -1  -8 -15   68.78    3.36 
  -1  -8 -15   74.78    3.50 
   1   8  15   73.96    2.99 
   1   8  15   72.35    3.31 
   1   8  15   66.37    3.71 
  -2  -8 -15   87.64    3.74 
  -2  -8 -15   76.12    3.20 
   2   8  15   83.19    3.08 
   2   8  15   84.89    3.99 
   2   8  15   79.54    3.53 
  -3  -8 -15   39.40    2.54 
  -3  -8 -15   40.13    2.74 
  -3  -8 -15   37.40    2.32 
   3   8  15   40.49    2.83 
   3   8  15   38.90    3.00 
  -4  -8 -15   19.20    2.30 
  -4  -8 -15   16.91    1.59 
  -4  -8 -15   19.47    1.96 
   4   8  15   20.77    2.59 
   4   8  15   20.46    2.36 
  -5  -8 -15   -0.38    1.00 
  -5  -8 -15    2.12    1.29 
  -5  -8 -15    2.04    0.73 
   5   8  15    1.70    1.27 
   5   8  15    1.67    1.26 
  -6  -8 -15   10.16    1.25 
  -6  -8 -15   11.07    1.08 
  -6  -8 -15    9.43    1.63 
   6   8  15    9.84    1.51 
   6   8  15    9.73    1.47 
  -7  -8 -15    7.91    1.05 
  -7  -8 -15    9.36    1.67 
  -7  -8 -15   10.08    1.20 
   7   8  15    8.34    1.47 
  -8  -8 -15    3.56    0.83 
  -8  -8 -15    4.71    1.56 
  -8  -8 -15    6.33    0.88 
   8   8  15    4.33    1.32 
  -9  -8 -15    6.11    0.99 
  -9  -8 -15    6.87    1.68 
   9   8  15    6.29    1.44 
 -10  -8 -15    3.03    0.95 
 -10  -8 -15   -0.42    1.59 
  10   8  15    2.36    1.37 
 -11  -8 -15    1.22    1.04 
  11   8  15   -0.79    1.28 
   2  -9 -15   70.52    3.25 
   2  -9 -15   70.58    3.89 
  -2   9  15   70.85    4.98 
  -2   9  15   79.71    3.67 
   1  -9 -15   71.44    3.19 
   1  -9 -15   76.41    3.91 
  -1   9  15   71.62    3.16 
  -1   9  15   80.62    3.47 
  -1   9  15   71.82    4.02 
   0  -9 -15   47.96    3.27 
   0  -9 -15   49.42    2.62 
   0  -9 -15   45.64    3.96 
   0   9  15   42.21    2.78 
   0   9  15   51.12    3.69 
   0   9  15   51.53    2.72 
  -1  -9 -15   22.83    2.07 
  -1  -9 -15   21.29    2.42 
  -1  -9 -15   21.41    2.61 
   1   9  15   20.52    2.45 
   1   9  15   26.16    2.97 
   1   9  15   22.84    2.08 
  -2  -9 -15   15.38    1.88 
  -2  -9 -15   15.03    1.88 
   2   9  15   14.80    1.81 
   2   9  15    9.98    1.54 
   2   9  15   16.87    1.94 
  -3  -9 -15    5.37    1.17 
  -3  -9 -15    4.52    1.50 
  -3  -9 -15    3.87    1.28 
   3   9  15    4.31    1.35 
   3   9  15    4.01    1.46 
  -4  -9 -15   16.42    1.97 
  -4  -9 -15   16.51    2.31 
  -4  -9 -15   13.64    1.45 
   4   9  15   14.33    1.59 
   4   9  15   19.06    2.62 
  -5  -9 -15   15.96    1.87 
  -5  -9 -15   16.80    1.21 
  -5  -9 -15   18.83    2.37 
   5   9  15   19.43    2.31 
   5   9  15   16.23    1.80 
  -6  -9 -15    9.64    0.92 
  -6  -9 -15    8.49    1.65 
  -6  -9 -15    8.16    1.12 
   6   9  15    9.63    1.48 
  -7  -9 -15    3.19    0.79 
  -7  -9 -15    0.96    1.40 
   7   9  15   -0.63    1.16 
  -8  -9 -15    1.32    1.50 
  -8  -9 -15    0.75    0.80 
   8   9  15   -0.21    1.16 
  -9  -9 -15    5.03    0.96 
  -9  -9 -15    8.90    1.78 
   9   9  15    4.76    1.43 
 -10  -9 -15   38.35    3.30 
  10   9  15   40.85    2.88 
   1 -10 -15    9.40    1.92 
   1 -10 -15    9.34    1.41 
  -1  10  15   12.45    1.63 
  -1  10  15   12.11    1.90 
   0 -10 -15    2.98    1.61 
   0 -10 -15   -1.71    2.01 
   0 -10 -15    0.22    1.05 
   0  10  15   -1.03    1.16 
   0  10  15   -0.81    1.50 
   0  10  15    0.33    1.15 
  -1 -10 -15    0.14    1.44 
  -1 -10 -15    0.28    1.03 
  -1 -10 -15   -1.53    1.45 
   1  10  15   -1.00    1.44 
   1  10  15    1.28    1.06 
   1  10  15   -0.15    1.24 
  -2 -10 -15    3.11    1.52 
  -2 -10 -15    1.88    1.05 
   2  10  15    2.66    1.01 
   2  10  15    3.49    1.37 
   2  10  15    2.14    1.52 
  -3 -10 -15    4.68    1.33 
  -3 -10 -15    6.05    1.56 
  -3 -10 -15    3.04    1.04 
   3  10  15    7.42    1.57 
   3  10  15    4.14    1.16 
   3  10  15    3.62    1.34 
  -4 -10 -15    6.84    1.52 
  -4 -10 -15    2.89    1.17 
  -4 -10 -15    3.97    1.14 
   4  10  15    3.09    1.45 
   4  10  15    3.07    1.27 
  -5 -10 -15    1.43    1.40 
  -5 -10 -15    2.03    1.40 
  -5 -10 -15    1.75    0.75 
   5  10  15    1.05    1.20 
   5  10  15    1.78    1.38 
  -6 -10 -15    4.68    0.89 
  -6 -10 -15    4.25    0.85 
  -6 -10 -15    7.70    1.55 
   6  10  15    4.15    1.42 
  -7 -10 -15   30.77    1.68 
  -7 -10 -15   36.32    2.90 
   7  10  15   29.44    2.62 
  -8 -10 -15   63.53    2.45 
  -8 -10 -15   65.06    3.57 
   8  10  15   63.87    3.28 
  -9 -10 -15   71.65    2.96 
  -9 -10 -15   70.17    3.91 
   9  10  15   76.14    3.53 
 -10 -10 -15   97.02    3.44 
  10  10  15  102.62    4.13 
   1 -11 -15    4.67    1.73 
  -1  11  15    5.40    1.48 
   0 -11 -15    7.50    1.36 
   0 -11 -15   13.87    2.00 
   0  11  15   10.86    1.47 
   0  11  15   10.36    1.85 
  -1 -11 -15   23.40    2.18 
  -1 -11 -15   25.43    2.80 
  -1 -11 -15   17.28    1.96 
   1  11  15   24.35    2.16 
   1  11  15   25.85    3.01 
   1  11  15   24.60    2.37 
  -2 -11 -15    4.71    1.18 
  -2 -11 -15    5.36    1.61 
   2  11  15    7.79    1.19 
   2  11  15    4.27    1.36 
   2  11  15    4.95    1.70 
  -3 -11 -15    2.28    1.47 
  -3 -11 -15   -0.13    1.18 
  -3 -11 -15    1.74    1.11 
   3  11  15    0.38    1.43 
   3  11  15    1.51    0.90 
   3  11  15    0.93    1.31 
  -4 -11 -15    6.03    1.59 
  -4 -11 -15    5.15    1.22 
  -4 -11 -15    6.35    1.18 
   4  11  15    6.55    1.60 
   4  11  15    5.97    1.46 
  -5 -11 -15   35.62    2.37 
  -5 -11 -15   36.35    1.77 
  -5 -11 -15   40.86    2.96 
   5  11  15   36.78    2.98 
  -6 -11 -15   66.21    2.47 
  -6 -11 -15   74.35    3.66 
   6  11  15   70.27    3.51 
  -7 -11 -15   84.20    3.93 
  -7 -11 -15   83.90    2.85 
   7  11  15   80.80    3.68 
  -8 -11 -15   65.21    3.69 
  -8 -11 -15   70.92    3.69 
   8  11  15   61.74    3.34 
  -9 -11 -15   55.86    2.54 
   9  11  15   56.79    3.20 
   0 -12 -15    2.67    2.17 
   0 -12 -15    5.58    1.68 
   0  12  15    1.66    1.36 
  -1 -12 -15    2.11    1.21 
  -1 -12 -15    0.98    1.46 
  -1 -12 -15    3.96    1.64 
   1  12  15    0.29    1.56 
   1  12  15    2.72    1.19 
  -2 -12 -15   11.90    1.85 
  -2 -12 -15    9.28    1.47 
   2  12  15    7.75    1.39 
   2  12  15   14.18    1.85 
   2  12  15   14.01    1.85 
  -3 -12 -15   26.93    2.31 
  -3 -12 -15   30.96    2.90 
  -3 -12 -15   34.66    2.58 
   3  12  15   30.25    2.56 
   3  12  15   31.83    1.95 
   3  12  15   30.13    3.10 
  -4 -12 -15   58.44    3.01 
  -4 -12 -15   60.23    3.46 
   4  12  15   69.35    3.73 
   4  12  15   68.05    2.38 
   4  12  15   61.09    3.18 
  -5 -12 -15   74.78    2.65 
  -5 -12 -15   68.43    3.22 
  -5 -12 -15   74.87    3.76 
   5  12  15   78.13    3.81 
  -6 -12 -15   68.77    3.61 
  -6 -12 -15   68.82    2.60 
   6  12  15   70.61    3.57 
  -7 -12 -15   38.54    2.53 
  -7 -12 -15   43.18    3.26 
   7  12  15   35.77    2.91 
  -2 -13 -15   51.32    3.52 
   2  13  15   54.06    3.59 
   2  13  15   56.91    2.58 
  -3 -13 -15   73.13    4.02 
  -3 -13 -15   69.67    3.44 
   3  13  15   71.86    3.86 
   3  13  15   67.09    3.40 
   3  13  15   72.15    2.80 
  -4 -13 -15   60.96    3.07 
  -4 -13 -15   61.75    3.98 
   4  13  15   60.34    3.68 
  -5 -13 -15   43.93    2.71 
   5  13  15   43.67    3.25 
   6   0  16   26.04    2.71 
  -3  -1 -16   26.74    3.00 
   3   1  16   23.09    2.79 
  -4  -1 -16    6.26    1.77 
   4   1  16    4.45    1.41 
  -5  -1 -16    2.14    1.62 
   5   1  16   -0.06    1.36 
  -6  -1 -16    5.87    1.67 
   6   1  16    0.63    1.35 
  -7  -1 -16   20.14    2.72 
   7   1  16   12.29    1.66 
  -8  -1 -16   18.80    2.02 
   8   1  16   18.87    1.97 
   9   1  16    8.41    1.73 
  -2  -2 -16    8.88    1.92 
   2   2  16    9.49    1.73 
  -3  -2 -16    0.79    1.65 
   3   2  16    1.11    1.42 
  -4  -2 -16    1.70    1.68 
   4   2  16    4.52    1.42 
  -5  -2 -16   22.01    2.71 
   5   2  16   12.39    1.62 
  -6  -2 -16    2.79    1.60 
   6   2  16    3.13    1.34 
  -7  -2 -16    5.90    1.66 
   7   2  16    2.74    1.42 
  -8  -2 -16    5.41    1.60 
   8   2  16   -0.90    1.30 
  -9  -2 -16   11.68    1.85 
  -9  -2 -16   11.52    1.68 
   9   2  16    8.49    1.56 
  -1  -3 -16   -0.16    2.08 
   1   3  16   -2.25    1.61 
  -2  -3 -16    3.47    1.69 
   2   3  16   -2.31    1.40 
  -3  -3 -16    1.95    1.64 
   3   3  16    2.42    1.42 
  -4  -3 -16    3.15    1.62 
   4   3  16    2.81    1.38 
  -5  -3 -16    2.27    1.53 
   5   3  16    1.08    1.31 
  -6  -3 -16   13.16    1.81 
  -6  -3 -16    7.90    1.33 
   6   3  16    9.82    1.54 
  -7  -3 -16   21.33    2.68 
  -7  -3 -16   20.85    2.19 
   7   3  16   21.44    2.62 
  -8  -3 -16   60.81    2.94 
  -8  -3 -16   65.19    3.45 
   8   3  16   63.51    3.33 
  -9  -3 -16   89.34    3.82 
  -9  -3 -16   82.47    3.36 
   9   3  16   82.27    3.76 
 -10  -3 -16   85.62    3.98 
  10   3  16   89.66    4.64 
   0  -4 -16   13.14    1.48 
   0   4  16   11.47    2.01 
  -1  -4 -16    9.87    1.93 
   1   4  16    8.42    1.84 
  -2  -4 -16   -0.81    1.52 
   2   4  16    0.28    1.60 
  -3  -4 -16    0.50    1.51 
   3   4  16   -0.98    1.33 
  -4  -4 -16   -0.14    1.46 
  -4  -4 -16    5.46    1.62 
   4   4  16    4.13    1.45 
  -5  -4 -16   55.46    2.87 
  -5  -4 -16   58.58    3.22 
   5   4  16   57.37    3.21 
  -6  -4 -16   78.75    3.58 
  -6  -4 -16   68.48    3.09 
   6   4  16   74.79    3.56 
  -7  -4 -16   91.04    3.87 
   7   4  16   84.40    3.78 
  -8  -4 -16  145.90    5.08 
   8   4  16  145.15    5.08 
  -9  -4 -16   85.46    3.88 
   9   4  16   84.42    3.81 
 -10  -4 -16   68.69    3.59 
  10   4  16   63.27    3.47 
   0  -5 -16    1.62    2.03 
   0  -5 -16    0.87    1.05 
   0   5  16    0.12    1.73 
  -1  -5 -16    2.80    1.15 
  -1  -5 -16    3.03    1.64 
   1   5  16    4.15    1.67 
  -2  -5 -16   19.01    2.16 
   2   5  16   16.89    2.02 
  -3  -5 -16   61.19    4.05 
  -3  -5 -16   52.81    3.24 
   3   5  16   58.15    3.49 
  -4  -5 -16   48.90    2.85 
  -4  -5 -16   52.41    3.13 
   4   5  16   58.13    3.34 
  -5  -5 -16   94.84    3.91 
   5   5  16   89.84    3.91 
  -6  -5 -16  136.27    4.85 
   6   5  16  137.50    4.87 
  -7  -5 -16   97.92    4.09 
  -7  -5 -16  104.43    3.79 
   7   5  16   98.43    4.09 
  -8  -5 -16   36.08    2.37 
  -8  -5 -16   36.98    3.00 
   8   5  16   38.48    2.87 
  -9  -5 -16   20.93    2.71 
  -9  -5 -16   17.31    1.30 
  -9  -5 -16   18.07    2.01 
   9   5  16   18.75    2.49 
 -10  -5 -16    4.90    1.66 
 -10  -5 -16    1.67    0.85 
  10   5  16    1.50    1.30 
   0  -6 -16   23.30    2.97 
   0  -6 -16   29.80    2.23 
   0   6  16   22.59    2.30 
  -1  -6 -16   79.56    3.91 
  -1  -6 -16   76.99    3.25 
   1   6  16   78.34    4.17 
  -2  -6 -16  119.24    4.68 
  -2  -6 -16  119.48    4.19 
   2   6  16  122.53    4.93 
  -3  -6 -16  102.99    4.05 
  -3  -6 -16  112.28    4.38 
   3   6  16  117.61    4.61 
  -4  -6 -16  115.11    4.42 
   4   6  16  118.56    4.59 
  -5  -6 -16   75.07    3.54 
   5   6  16   71.89    3.62 
  -6  -6 -16   26.17    2.60 
  -6  -6 -16   28.97    2.38 
   6   6  16   23.65    2.58 
  -7  -6 -16    4.11    1.29 
  -7  -6 -16    1.35    1.51 
   7   6  16    2.72    1.35 
  -8  -6 -16    2.26    1.13 
  -8  -6 -16   -1.03    0.90 
  -8  -6 -16    1.24    1.54 
   8   6  16   -0.32    1.19 
  -9  -6 -16    0.83    0.78 
  -9  -6 -16    1.20    1.64 
   9   6  16    1.70    1.34 
 -10  -6 -16    6.96    1.79 
 -10  -6 -16    5.39    0.94 
  10   6  16    2.17    1.41 
   0  -7 -16   66.98    3.69 
   0  -7 -16   58.19    2.94 
   0   7  16   59.55    3.92 
   0   7  16   69.52    3.31 
   0   7  16   62.78    3.53 
  -1  -7 -16   65.25    3.03 
  -1  -7 -16   74.65    3.70 
   1   7  16   64.53    3.90 
   1   7  16   71.70    3.19 
   1   7  16   64.84    3.50 
  -2  -7 -16   73.68    3.68 
  -2  -7 -16   76.38    3.22 
  -2  -7 -16   76.56    3.57 
   2   7  16   71.37    3.60 
   2   7  16   75.37    4.05 
  -3  -7 -16   13.19    1.66 
  -3  -7 -16   13.44    1.86 
  -3  -7 -16    7.74    1.38 
   3   7  16   11.10    1.82 
   3   7  16    7.50    1.82 
  -4  -7 -16   30.37    2.67 
   4   7  16   30.15    2.99 
  -5  -7 -16    0.57    1.42 
  -5  -7 -16    0.62    1.25 
   5   7  16    1.12    1.32 
  -6  -7 -16   13.52    1.82 
  -6  -7 -16   11.36    1.49 
   6   7  16   11.88    1.62 
  -7  -7 -16   16.81    1.97 
  -7  -7 -16   11.96    1.43 
   7   7  16   18.10    2.52 
  -8  -7 -16   19.79    2.71 
  -8  -7 -16   16.86    2.00 
  -8  -7 -16   21.25    1.35 
   8   7  16   21.27    2.46 
  -9  -7 -16   12.93    1.95 
  -9  -7 -16    8.59    1.02 
   9   7  16    9.87    1.60 
 -10  -7 -16    2.01    0.92 
 -10  -7 -16    3.49    1.76 
  10   7  16    1.54    1.36 
   0  -8 -16   42.63    2.62 
   0  -8 -16   44.92    3.28 
   0   8  16   36.03    3.44 
   0   8  16   46.43    2.88 
   0   8  16   36.17    2.97 
  -1  -8 -16   14.65    1.57 
  -1  -8 -16   13.55    1.94 
   1   8  16   11.98    1.76 
   1   8  16   16.68    2.20 
   1   8  16   13.42    1.91 
  -2  -8 -16    4.67    1.21 
  -2  -8 -16    8.68    1.75 
  -2  -8 -16    1.44    1.43 
   2   8  16    3.35    1.69 
   2   8  16    4.83    1.50 
  -3  -8 -16   -0.27    1.29 
  -3  -8 -16    4.81    1.20 
  -3  -8 -16    4.82    1.61 
   3   8  16    4.92    1.64 
   3   8  16   -0.26    1.34 
  -4  -8 -16    0.74    1.43 
   4   8  16   -0.20    1.39 
  -5  -8 -16   10.47    1.55 
  -5  -8 -16   11.89    1.78 
   5   8  16   14.06    1.81 
  -6  -8 -16   15.89    1.93 
  -6  -8 -16   12.14    1.48 
   6   8  16   13.96    1.73 
  -7  -8 -16    2.07    1.56 
  -7  -8 -16    2.56    0.74 
  -7  -8 -16   -1.09    1.09 
   7   8  16    0.68    1.28 
  -8  -8 -16    4.57    1.65 
  -8  -8 -16    1.60    0.81 
   8   8  16    3.55    1.41 
  -9  -8 -16   22.12    2.95 
  -9  -8 -16   22.09    1.58 
   9   8  16   19.49    2.60 
 -10  -8 -16   36.54    1.94 
 -10  -8 -16   32.32    3.25 
  10   8  16   31.33    2.80 
   0  -9 -16   -0.45    1.10 
   0  -9 -16    1.38    1.69 
   0   9  16   -1.94    2.76 
   0   9  16    1.89    1.32 
   0   9  16   -3.64    1.52 
  -1  -9 -16    0.54    1.59 
  -1  -9 -16    1.58    1.11 
   1   9  16   -1.59    1.62 
   1   9  16    2.21    1.24 
   1   9  16    3.29    1.45 
  -2  -9 -16    5.01    1.62 
  -2  -9 -16   -0.18    1.48 
  -2  -9 -16    1.30    1.05 
   2   9  16    1.28    1.57 
   2   9  16    3.38    1.15 
   2   9  16   -0.95    1.44 
  -3  -9 -16    6.01    1.33 
  -3  -9 -16    7.04    1.69 
   3   9  16    5.62    1.53 
   3   9  16    8.02    1.80 
  -4  -9 -16    6.39    1.62 
  -4  -9 -16    1.79    1.38 
  -4  -9 -16    1.02    1.09 
   4   9  16    3.32    1.53 
   4   9  16    3.06    2.28 
  -5  -9 -16    1.23    1.43 
  -5  -9 -16    0.29    1.20 
   5   9  16   -0.94    1.35 
  -6  -9 -16   10.06    1.31 
  -6  -9 -16   10.38    1.81 
  -6  -9 -16    9.10    0.89 
   6   9  16    9.16    1.67 
  -7  -9 -16   30.80    1.58 
  -7  -9 -16   31.92    2.89 
   7   9  16   29.04    2.75 
  -8  -9 -16   59.34    2.25 
  -8  -9 -16   63.30    3.64 
   8   9  16   56.40    3.30 
  -9  -9 -16   71.24    2.60 
  -9  -9 -16   74.50    3.85 
   9   9  16   73.21    3.58 
  -1 -10 -16    6.95    1.76 
  -1 -10 -16    5.98    1.30 
   1  10  16    6.04    1.29 
   1  10  16    5.16    1.78 
   1  10  16    3.77    1.44 
  -2 -10 -16    3.79    1.27 
  -2 -10 -16    7.21    1.69 
  -2 -10 -16    5.27    1.57 
   2  10  16    6.97    1.73 
   2  10  16    7.01    1.25 
   2  10  16    5.11    1.51 
  -3 -10 -16    1.17    1.50 
  -3 -10 -16   -0.97    1.08 
   3  10  16    1.32    1.60 
   3  10  16    0.50    1.44 
   3  10  16    0.52    1.02 
  -4 -10 -16   15.64    1.63 
  -4 -10 -16   18.87    2.11 
  -4 -10 -16   20.26    2.15 
   4  10  16   18.01    2.03 
  -5 -10 -16   38.73    2.97 
  -5 -10 -16   32.01    2.48 
   5  10  16   38.51    3.20 
  -6 -10 -16   70.69    3.54 
  -6 -10 -16   64.47    2.29 
   6  10  16   64.05    3.54 
  -7 -10 -16   91.70    2.88 
  -7 -10 -16   87.80    4.10 
   7  10  16   91.12    3.99 
  -8 -10 -16   90.13    4.20 
  -8 -10 -16   91.58    3.00 
   8  10  16   93.44    4.00 
   1  11  16    1.84    1.26 
  -2 -11 -16   10.28    1.65 
  -2 -11 -16   15.10    1.92 
  -2 -11 -16    9.55    1.85 
   2  11  16    9.73    1.60 
   2  11  16   10.56    1.97 
  -3 -11 -16   29.60    2.37 
  -3 -11 -16   34.48    2.91 
   3  11  16   32.86    2.15 
   3  11  16   33.02    3.25 
   3  11  16   27.95    2.80 
  -4 -11 -16   72.13    3.81 
  -4 -11 -16   81.33    3.46 
   4  11  16   78.73    4.07 
  -5 -11 -16   84.95    3.97 
   5  11  16   93.80    4.29 
  -6 -11 -16  107.50    4.46 
  -6 -11 -16  102.44    3.19 
   6  11  16   98.63    4.29 
  -7 -11 -16   48.33    2.10 
  -7 -11 -16   57.97    3.89 
   7  11  16   43.03    3.10 
   3  12  16   79.63    6.19 
   4  12  16   58.24    3.74 
  -5 -12 -16   25.19    1.67 
   5  12  16   25.57    3.00 
  -5  -3 -17   18.36    2.14 
   5   3  17   19.69    2.04 
  -6  -3 -17   56.44    3.45 
   6   3  17   51.93    3.21 
  -7  -3 -17   61.42    3.55 
   7   3  17   55.89    3.42 
   3   4  17   39.49    3.18 
  -4  -4 -17   86.18    4.08 
   4   4  17   94.87    4.06 
  -5  -4 -17  129.42    4.89 
   5   4  17  130.97    4.89 
  -6  -4 -17   95.14    4.11 
   6   4  17   89.80    4.04 
  -7  -4 -17   73.33    3.96 
  -7  -4 -17   72.09    3.73 
   7   4  17   66.24    3.57 
  -8  -4 -17   47.38    2.97 
  -8  -4 -17   52.79    3.48 
  -3  -5 -17   98.36    4.78 
   3   5  17   88.56    4.21 
  -4  -5 -17   35.09    2.98 
   4   5  17   30.77    3.03 
  -5  -5 -17   52.75    3.35 
   5   5  17   55.37    3.35 
  -6  -5 -17   26.78    2.89 
  -6  -5 -17   25.53    2.54 
   6   5  17   26.32    2.87 
  -7  -5 -17    0.85    1.62 
  -7  -5 -17    0.04    1.32 
   7   5  17   -1.37    1.27 
  -8  -5 -17    5.01    1.72 
   8   5  17    3.12    1.84 
   2   6  17   47.37    3.79 
  -3  -6 -17   25.23    2.77 
   3   6  17   17.34    2.07 
  -4  -6 -17    4.47    1.64 
   4   6  17    5.45    1.62 
  -5  -6 -17   -3.75    1.41 
  -5  -6 -17   -0.38    1.50 
   5   6  17   -2.68    1.34 
  -6  -6 -17   13.41    1.98 
  -6  -6 -17   14.34    1.68 
   6   6  17   10.56    1.67 
  -7  -6 -17   22.01    2.82 
   7   6  17   21.45    2.73 
  -8  -6 -17   39.39    3.23 
   8   6  17   36.63    3.14 
  -2  -7 -17    5.42    1.35 
   2   7  17    4.87    2.07 
  -3  -7 -17    1.61    1.56 
   3   7  17    0.01    1.56 
  -4  -7 -17   -0.31    1.49 
  -4  -7 -17    1.82    1.52 
   4   7  17    2.86    1.56 
  -5  -7 -17    1.90    1.56 
  -5  -7 -17   -0.63    1.37 
   5   7  17    2.47    1.44 
  -6  -7 -17    4.67    1.65 
   6   7  17    0.94    1.40 
  -7  -7 -17    0.23    1.59 
  -7  -7 -17   -2.06    1.99 
   7   7  17   -3.20    1.21 
  -8  -7 -17    0.52    1.60 
   8   7  17    1.29    1.87 
  -3  -8 -17   15.68    1.70 
  -3  -8 -17   16.14    2.34 
   3   8  17   16.88    2.20 
  -4  -8 -17    0.46    1.52 
  -4  -8 -17    1.51    1.50 
   4   8  17   -0.57    1.53 
  -5  -8 -17    4.29    1.62 
   5   8  17   -1.29    1.43 
  -6  -8 -17    7.85    1.76 
  -6  -8 -17    3.39    1.90 
   6   8  17    7.76    1.62 
  -7  -8 -17   36.63    3.11 
   7   8  17   34.27    3.01 
  -8  -8 -17   69.88    3.77 
   8   8  17   62.22    4.49 
  -3  -9 -17   -0.49    1.57 
  -3  -9 -17    1.36    1.78 
  -4  -9 -17    6.18    1.59 
  -4  -9 -17   10.11    1.96 
   4   9  17   13.48    2.15 
  -5  -9 -17   30.30    2.80 
   5   9  17   20.33    2.19 
  -6  -9 -17   74.94    3.79 
   6   9  17   67.60    3.80 
  -7  -9 -17   89.54    4.35 
   7   9  17   95.11    5.27 
   0   0   0    0.00    0.00 
;
_shelx_hkl_checksum              1133
loop_
_space_group_symop_operation_xyz
'x, y, z'
'-x, -y, -z'
loop_
_atom_site_label
_atom_site_type_symbol
_atom_site_fract_x
_atom_site_fract_y
_atom_site_fract_z
_atom_site_U_iso_or_equiv
_atom_site_adp_type
_atom_site_occupancy
_atom_site_site_symmetry_order
_atom_site_calc_flag
_atom_site_refinement_flags_posn
_atom_site_refinement_flags_adp
_atom_site_refinement_flags_occupancy
_atom_site_disorder_assembly
_atom_site_disorder_group
Eu1 Eu 1.0000 1.0000 0.0000 0.00815(8) Uani 1 2 d S . P . .
Eu2 Eu 0.07106(2) 0.17022(2) 0.17286(2) 0.00999(7) Uani 1 1 d . . . . .
N1 N 0.7682(14) 0.3889(15) 0.259(2) 0.232(8) Uani 1 1 d . . . . .
H1A H 0.7539 0.3584 0.3371 0.279 Uiso 1 1 calc R U . . .
H1B H 0.8297 0.3515 0.2270 0.279 Uiso 1 1 calc R U . . .
O1 O 0.7845(3) 0.9538(3) 0.0757(3) 0.0276(7) Uani 1 1 d . . . . .
O2 O 0.7906(3) 0.8074(3) 0.0197(2) 0.0187(6) Uani 1 1 d . . . . .
O3 O 0.4186(3) 1.1303(3) 0.1910(3) 0.0221(6) Uani 1 1 d . . . . .
H3 H 0.3854 1.1938 0.1840 0.033 Uiso 0.5 1 calc R U P . .
O4 O 0.2360(3) 1.0556(2) 0.2079(3) 0.0182(6) Uani 1 1 d . . . . .
O5 O 0.3578(3) 0.3286(3) 0.1900(3) 0.0298(8) Uani 1 1 d . . . . .
O6 O 0.2369(3) 0.3233(2) 0.0983(3) 0.0206(6) Uani 1 1 d . . . . .
O7 O 0.0239(3) 0.6688(2) -0.0559(3) 0.0184(6) Uani 1 1 d . . . . .
O8 O 0.0660(2) 0.8429(2) -0.0573(2) 0.0134(5) Uani 1 1 d . . . . .
O9 O 0.0273(3) -0.0308(2) 0.1877(3) 0.0196(6) Uani 1 1 d . . . . .
O10 O -0.0384(3) -0.1892(3) 0.1789(3) 0.0282(7) Uani 1 1 d . . . . .
O11 O -0.0603(3) -0.1290(3) 0.6294(2) 0.0205(6) Uani 1 1 d . . . . .
O12 O 0.0015(3) -0.3010(3) 0.7234(3) 0.0247(7) Uani 1 1 d . . . . .
O13 O -0.1448(3) 0.0971(4) 0.3036(3) 0.0394(9) Uani 1 1 d . . . . .
H13A H -0.1619 0.0811 0.3728 0.059 Uiso 1 1 d R U . . .
H13B H -0.1895 0.0664 0.2845 0.059 Uiso 1 1 d R U . . .
O17 O 0.675(3) 0.260(3) 0.495(3) 0.489(18) Uiso 1 1 d . . . . .
H17A H 0.6973 0.2936 0.5269 0.733 Uiso 1 1 d R U . . .
H17B H 0.7177 0.2151 0.4702 0.733 Uiso 1 1 d R U . . .
O18 O 0.6674(17) 0.462(3) 0.530(3) 0.430(18) Uani 1 1 d . . . . .
H18A H 0.7150 0.4733 0.5583 0.645 Uiso 1 1 d R U . . .
H18B H 0.6857 0.4256 0.4893 0.645 Uiso 1 1 d R U . . .
O14 O 0.7633(9) 0.9962(9) 0.5360(9) 0.064(2) Uiso 0.5 1 d . . P A 1
H14A H 0.8231 1.0384 0.5269 0.096 Uiso 0.5 1 d R U P A 1
H14B H 0.7684 0.9274 0.5402 0.096 Uiso 0.5 1 d R U P A 1
O15 O 0.686(3) 0.004(3) 0.419(3) 0.252(14) Uiso 0.5 1 d . . P B 2
H15A H 0.6421 0.0570 0.4039 0.378 Uiso 0.5 1 d R U P B 2
H15B H 0.6821 -0.0558 0.4067 0.378 Uiso 0.5 1 d R U P B 2
O16 O 0.6956(13) 0.9629(13) 0.2968(12) 0.100(4) Uiso 0.5 1 d . . P C 3
H16A H 0.7168 0.8955 0.3242 0.150 Uiso 0.5 1 d R U P C 3
H16B H 0.7403 1.0253 0.2762 0.150 Uiso 0.5 1 d R U P C 3
O21 O 0.483(4) 0.025(4) 0.420(4) 0.35(2) Uiso 0.5 1 d . . P D 6
H21A H 0.4661 0.0861 0.4301 0.521 Uiso 0.5 1 d R U P D 6
H21B H 0.4316 -0.0370 0.4556 0.521 Uiso 0.5 1 d R U P D 6
C1 C 0.7329(3) 0.8733(3) 0.0646(3) 0.0140(7) Uani 1 1 d . . . . .
C2 C 0.5936(3) 0.8621(3) 0.1063(3) 0.0118(7) Uani 1 1 d . . . . .
C3 C 0.5343(3) 0.9488(3) 0.1416(3) 0.0138(7) Uani 1 1 d . . . . .
H3A H 0.5807 1.0059 0.1483 0.017 Uiso 1 1 calc R U . . .
C4 C 0.4081(3) 0.9513(3) 0.1665(3) 0.0120(7) Uani 1 1 d . . . . .
C5 C 0.3402(3) 0.8672(3) 0.1574(3) 0.0145(7) Uani 1 1 d . . . . .
H5 H 0.2533 0.8686 0.1760 0.017 Uiso 1 1 calc R U . . .
C6 C 0.3976(3) 0.7805(3) 0.1212(3) 0.0125(7) Uani 1 1 d . . . . .
C7 C 0.5254(3) 0.7787(3) 0.0965(3) 0.0119(7) Uani 1 1 d . . . . .
H7 H 0.5659 0.7200 0.0727 0.014 Uiso 1 1 calc R U . . .
C8 C 0.3460(4) 1.0514(3) 0.1922(3) 0.0139(7) Uani 1 1 d . . . . .
C9 C 0.3250(3) 0.7004(3) 0.1009(3) 0.0140(7) Uani 1 1 d . . . . .
C10 C 0.3416(4) 0.5786(3) 0.1288(4) 0.0164(8) Uani 1 1 d . . . . .
H10 H 0.4006 0.5444 0.1624 0.020 Uiso 1 1 calc R U . . .
C11 C 0.2715(4) 0.5069(3) 0.1073(4) 0.0158(8) Uani 1 1 d . . . . .
C12 C 0.1841(4) 0.5557(3) 0.0602(4) 0.0164(8) Uani 1 1 d . . . . .
H12 H 0.1346 0.5056 0.0487 0.020 Uiso 1 1 calc R U . . .
C13 C 0.1678(3) 0.6773(3) 0.0294(3) 0.0136(7) Uani 1 1 d . . . . .
C14 C 0.2387(3) 0.7491(3) 0.0498(3) 0.0137(7) Uani 1 1 d . . . . .
H14 H 0.2282 0.8323 0.0287 0.016 Uiso 1 1 calc R U . . .
C15 C 0.2893(4) 0.3770(4) 0.1344(4) 0.0172(8) Uani 1 1 d . . . . .
C16 C 0.0802(3) 0.7322(3) -0.0297(3) 0.0135(7) Uani 1 1 d . . . . .
C17 C -0.0069(3) -0.1443(3) 0.2341(3) 0.0119(7) Uani 1 1 d . . . . .
C18 C -0.0048(4) -0.2265(3) 0.3511(3) 0.0137(7) Uani 1 1 d . . . . .
C19 C -0.0090(4) -0.1846(3) 0.4334(3) 0.0160(8) Uani 1 1 d . . . . .
H19 H -0.0095 -0.1006 0.4149 0.019 Uiso 1 1 calc R U . . .
C20 C -0.0126(4) -0.2682(3) 0.5426(3) 0.0177(8) Uani 1 1 d . . . . .
C21 C -0.0080(4) -0.3913(3) 0.5681(3) 0.0203(9) Uani 1 1 d . . . . .
H21 H -0.0083 -0.4469 0.6426 0.024 Uiso 1 1 calc R U . . .
C22 C -0.0028(4) -0.4341(3) 0.4858(4) 0.0199(8) Uani 1 1 d . . . . .
C23 C -0.0029(4) -0.3496(3) 0.3790(3) 0.0182(8) Uani 1 1 d . . . . .
H23 H -0.0017 -0.3767 0.3226 0.022 Uiso 1 1 calc R U . . .
C24 C -0.0234(4) -0.2293(3) 0.6364(3) 0.0173(8) Uani 1 1 d . . . . .
C25 C 0.648(2) 0.3552(19) 0.2481(19) 0.211(9) Uiso 1 1 d . . . . .
H25A H 0.5763 0.3460 0.3188 0.316 Uiso 1 1 d R U . . .
H25B H 0.6471 0.2805 0.2379 0.316 Uiso 1 1 d R U . . .
H25C H 0.6435 0.4242 0.1790 0.316 Uiso 1 1 d R U . . .
C26 C 0.8124(11) 0.5166(11) 0.2043(10) 0.104(3) Uiso 1 1 d . . . . .
H26A H 0.8937 0.5262 0.2081 0.156 Uiso 1 1 d R U . . .
H26B H 0.7526 0.5528 0.2501 0.156 Uiso 1 1 d R U . . .
H26C H 0.8207 0.5577 0.1220 0.156 Uiso 1 1 d R U . . .
O19 O 0.609(8) 0.574(9) 0.365(7) 1.16(9) Uiso 1 1 d . . . . .
H19A H 0.6418 0.5269 0.3380 1.739 Uiso 1 1 d R U . . .
H19B H 0.6506 0.6334 0.3553 1.739 Uiso 1 1 d R U . . .
O20 O 0.6583(11) 0.6400(19) 0.481(3) 0.52(3) Uani 1 1 d . . . . .
H20A H 0.6361 0.6306 0.5494 0.779 Uiso 1 1 d R U . . .
H20B H 0.6212 0.6789 0.4394 0.779 Uiso 1 1 d R U . . .
O22 O 0.660(2) 0.775(3) 0.510(2) 0.375(13) Uiso 1 1 d . . . . .
H22A H 0.6727 0.7132 0.5588 0.562 Uiso 1 1 d R U . . .
H22B H 0.6581 0.8394 0.5165 0.562 Uiso 1 1 d R U . . .
loop_
_atom_site_aniso_label
_atom_site_aniso_U_11
_atom_site_aniso_U_22
_atom_site_aniso_U_33
_atom_site_aniso_U_23
_atom_site_aniso_U_13
_atom_site_aniso_U_12
Eu1 0.01090(13) 0.00665(13) 0.00822(13) -0.00322(10) -0.00529(10) 0.00280(9)
Eu2 0.01563(11) 0.00756(10) 0.01261(11) -0.00714(8) -0.00862(8) 0.00413(7)
N1 0.159(13) 0.191(15) 0.39(3) -0.129(17) -0.153(16) 0.049(11)
O1 0.0154(14) 0.0212(15) 0.054(2) -0.0209(15) -0.0161(14) 0.0008(12)
O2 0.0150(13) 0.0239(15) 0.0164(14) -0.0094(12) -0.0053(11) 0.0081(12)
O3 0.0288(16) 0.0146(13) 0.0402(18) -0.0196(13) -0.0233(14) 0.0113(12)
O4 0.0206(14) 0.0138(13) 0.0256(15) -0.0117(12) -0.0118(12) 0.0105(11)
O5 0.0436(19) 0.0168(14) 0.056(2) -0.0228(15) -0.0409(18) 0.0179(14)
O6 0.0275(15) 0.0098(12) 0.0360(17) -0.0119(12) -0.0224(13) 0.0046(11)
O7 0.0280(15) 0.0115(12) 0.0290(15) -0.0115(12) -0.0223(13) 0.0056(11)
O8 0.0160(13) 0.0086(12) 0.0214(14) -0.0082(11) -0.0119(11) 0.0055(10)
O9 0.0373(17) 0.0067(12) 0.0190(14) -0.0025(11) -0.0187(13) 0.0000(12)
O10 0.060(2) 0.0114(13) 0.0177(15) -0.0022(12) -0.0246(15) -0.0041(14)
O11 0.0403(18) 0.0133(13) 0.0171(14) -0.0106(12) -0.0168(13) 0.0102(12)
O12 0.052(2) 0.0163(14) 0.0203(15) -0.0134(13) -0.0244(15) 0.0155(14)
O13 0.0256(17) 0.065(3) 0.0268(18) -0.0276(18) 0.0008(14) -0.0096(17)
O18 0.187(18) 0.40(3) 0.50(4) -0.04(3) -0.11(2) 0.094(19)
C1 0.0153(18) 0.0106(16) 0.0135(17) -0.0015(14) -0.0074(14) 0.0006(14)
C2 0.0140(17) 0.0096(16) 0.0134(17) -0.0058(14) -0.0061(14) 0.0027(14)
C3 0.0150(18) 0.0087(16) 0.0225(19) -0.0084(15) -0.0107(15) 0.0031(14)
C4 0.0153(17) 0.0085(16) 0.0141(17) -0.0061(14) -0.0063(14) 0.0024(14)
C5 0.0126(17) 0.0107(16) 0.0222(19) -0.0078(15) -0.0082(15) 0.0015(14)
C6 0.0159(17) 0.0089(16) 0.0177(18) -0.0057(14) -0.0120(15) 0.0031(14)
C7 0.0148(17) 0.0093(16) 0.0144(17) -0.0067(14) -0.0071(14) 0.0034(14)
C8 0.0210(19) 0.0095(16) 0.0143(17) -0.0049(14) -0.0109(15) 0.0042(14)
C9 0.0143(17) 0.0121(17) 0.0196(19) -0.0094(15) -0.0079(15) 0.0021(14)
C10 0.0192(19) 0.0127(17) 0.026(2) -0.0103(16) -0.0165(16) 0.0066(15)
C11 0.0179(18) 0.0093(16) 0.028(2) -0.0108(16) -0.0135(16) 0.0046(14)
C12 0.0195(19) 0.0124(17) 0.027(2) -0.0117(16) -0.0157(16) 0.0044(15)
C13 0.0157(18) 0.0102(16) 0.0199(19) -0.0068(15) -0.0120(15) 0.0025(14)
C14 0.0130(17) 0.0076(16) 0.025(2) -0.0082(15) -0.0106(15) 0.0039(13)
C15 0.0186(19) 0.0123(18) 0.030(2) -0.0122(17) -0.0161(17) 0.0059(15)
C16 0.0161(18) 0.0116(16) 0.0199(19) -0.0103(15) -0.0108(15) 0.0059(14)
C17 0.0167(17) 0.0093(16) 0.0118(17) -0.0061(14) -0.0062(14) 0.0035(14)
C18 0.0188(18) 0.0092(16) 0.0150(18) -0.0049(14) -0.0090(15) 0.0029(14)
C19 0.027(2) 0.0095(16) 0.0140(18) -0.0053(15) -0.0101(16) 0.0030(15)
C20 0.031(2) 0.0109(17) 0.0148(18) -0.0059(15) -0.0128(17) 0.0033(16)
C21 0.041(2) 0.0117(17) 0.0119(18) -0.0056(15) -0.0143(18) 0.0060(17)
C22 0.037(2) 0.0098(19) 0.018(2) -0.0078(16) -0.0147(18) 0.0048(17)
C23 0.035(2) 0.0113(17) 0.0122(18) -0.0074(15) -0.0107(17) 0.0041(16)
C24 0.032(2) 0.0096(16) 0.0131(18) -0.0052(15) -0.0110(16) 0.0003(16)
O20 0.065(7) 0.24(2) 0.93(6) -0.14(3) 0.015(16) 0.013(9)
loop_
_atom_type_symbol
_atom_type_description
_atom_type_scat_dispersion_real
_atom_type_scat_dispersion_imag
_atom_type_scat_source
C C 0.0033 0.0016 'International Tables Vol C Tables 4.2.6.8 and 6.1.1.4'
H H 0.0000 0.0000 'International Tables Vol C Tables 4.2.6.8 and 6.1.1.4'
N N 0.0061 0.0033 'International Tables Vol C Tables 4.2.6.8 and 6.1.1.4'
O O 0.0106 0.0060 'International Tables Vol C Tables 4.2.6.8 and 6.1.1.4'
Eu Eu -0.1578 3.6682 'International Tables Vol C Tables 4.2.6.8 and 6.1.1.4'
loop_
_geom_angle_atom_site_label_1
_geom_angle_atom_site_label_2
_geom_angle_atom_site_label_3
_geom_angle
_geom_angle_site_symmetry_1
_geom_angle_site_symmetry_3
_geom_angle_publ_flag
O1 Eu1 O1 180.0 2_775 . ?
O1 Eu1 O8 101.89(10) 2_775 2_675 ?
O1 Eu1 O8 78.11(10) . 2_675 ?
O1 Eu1 O8 78.11(10) 2_775 1_655 ?
O1 Eu1 O8 101.89(10) . 1_655 ?
O8 Eu1 O8 180.0 2_675 1_655 ?
O1 Eu1 O10 78.32(12) 2_775 2_665 ?
O1 Eu1 O10 101.68(12) . 2_665 ?
O8 Eu1 O10 72.09(10) 2_675 2_665 ?
O8 Eu1 O10 107.91(10) 1_655 2_665 ?
O1 Eu1 O10 101.68(12) 2_775 1_665 ?
O1 Eu1 O10 78.32(12) . 1_665 ?
O8 Eu1 O10 107.91(10) 2_675 1_665 ?
O8 Eu1 O10 72.09(10) 1_655 1_665 ?
O10 Eu1 O10 180.00(12) 2_665 1_665 ?
O1 Eu1 O9 99.09(11) 2_775 2_665 ?
O1 Eu1 O9 80.91(11) . 2_665 ?
O8 Eu1 O9 113.01(9) 2_675 2_665 ?
O8 Eu1 O9 66.99(9) 1_655 2_665 ?
O10 Eu1 O9 51.46(9) 2_665 2_665 ?
O10 Eu1 O9 128.54(9) 1_665 2_665 ?
O1 Eu1 O9 80.91(11) 2_775 1_665 ?
O1 Eu1 O9 99.09(11) . 1_665 ?
O8 Eu1 O9 66.99(9) 2_675 1_665 ?
O8 Eu1 O9 113.01(9) 1_655 1_665 ?
O10 Eu1 O9 128.54(9) 2_665 1_665 ?
O10 Eu1 O9 51.46(9) 1_665 1_665 ?
O9 Eu1 O9 180.0 2_665 1_665 ?
O1 Eu1 C17 91.21(12) 2_775 1_665 ?
O1 Eu1 C17 88.79(12) . 1_665 ?
O8 Eu1 C17 87.76(9) 2_675 1_665 ?
O8 Eu1 C17 92.24(9) 1_655 1_665 ?
O10 Eu1 C17 154.52(9) 2_665 1_665 ?
O10 Eu1 C17 25.48(9) 1_665 1_665 ?
O9 Eu1 C17 154.01(9) 2_665 1_665 ?
O9 Eu1 C17 25.99(9) 1_665 1_665 ?
O1 Eu1 C17 88.79(12) 2_775 2_665 ?
O1 Eu1 C17 91.21(12) . 2_665 ?
O8 Eu1 C17 92.24(9) 2_675 2_665 ?
O8 Eu1 C17 87.76(9) 1_655 2_665 ?
O10 Eu1 C17 25.48(9) 2_665 2_665 ?
O10 Eu1 C17 154.52(9) 1_665 2_665 ?
O9 Eu1 C17 25.99(9) 2_665 2_665 ?
O9 Eu1 C17 154.01(9) 1_665 2_665 ?
C17 Eu1 C17 180.0(2) 1_665 2_665 ?
O1 Eu1 C1 19.79(10) 2_775 2_775 ?
O1 Eu1 C1 160.21(10) . 2_775 ?
O8 Eu1 C1 82.34(9) 2_675 2_775 ?
O8 Eu1 C1 97.66(9) 1_655 2_775 ?
O10 Eu1 C1 74.88(10) 2_665 2_775 ?
O10 Eu1 C1 105.12(10) 1_665 2_775 ?
O9 Eu1 C1 109.93(10) 2_665 2_775 ?
O9 Eu1 C1 70.07(10) 1_665 2_775 ?
C17 Eu1 C1 87.39(10) 1_665 2_775 ?
C17 Eu1 C1 92.61(10) 2_665 2_775 ?
O1 Eu1 Eu2 74.19(8) 2_775 1_665 ?
O1 Eu1 Eu2 105.80(8) . 1_665 ?
O8 Eu1 Eu2 39.54(6) 2_675 1_665 ?
O8 Eu1 Eu2 140.46(6) 1_655 1_665 ?
O10 Eu1 Eu2 93.56(6) 2_665 1_665 ?
O10 Eu1 Eu2 86.44(6) 1_665 1_665 ?
O9 Eu1 Eu2 144.75(6) 2_665 1_665 ?
O9 Eu1 Eu2 35.25(6) 1_665 1_665 ?
C17 Eu1 Eu2 61.10(7) 1_665 1_665 ?
C17 Eu1 Eu2 118.90(7) 2_665 1_665 ?
C1 Eu1 Eu2 55.70(7) 2_775 1_665 ?
O6 Eu2 O4 77.36(9) . 1_545 ?
O6 Eu2 O13 144.18(11) . . ?
O4 Eu2 O13 122.09(12) 1_545 . ?
O6 Eu2 O2 71.85(10) . 2_665 ?
O4 Eu2 O2 75.60(10) 1_545 2_665 ?
O13 Eu2 O2 138.40(11) . 2_665 ?
O6 Eu2 O9 141.24(10) . . ?
O4 Eu2 O9 71.48(10) 1_545 . ?
O13 Eu2 O9 73.86(12) . . ?
O2 Eu2 O9 78.44(10) 2_665 . ?
O6 Eu2 O11 86.64(10) . 2_556 ?
O4 Eu2 O11 71.41(10) 1_545 2_556 ?
O13 Eu2 O11 74.09(11) . 2_556 ?
O2 Eu2 O11 143.81(10) 2_665 2_556 ?
O9 Eu2 O11 104.20(9) . 2_556 ?
O6 Eu2 O7 85.96(9) . 2_565 ?
O4 Eu2 O7 155.72(10) 1_545 2_565 ?
O13 Eu2 O7 81.51(12) . 2_565 ?
O2 Eu2 O7 82.55(10) 2_665 2_565 ?
O9 Eu2 O7 114.57(9) . 2_565 ?
O11 Eu2 O7 125.60(9) 2_556 2_565 ?
O6 Eu2 O12 72.72(11) . 2_556 ?
O4 Eu2 O12 116.93(10) 1_545 2_556 ?
O13 Eu2 O12 71.56(12) . 2_556 ?
O2 Eu2 O12 138.21(10) 2_665 2_556 ?
O9 Eu2 O12 142.73(11) . 2_556 ?
O11 Eu2 O12 52.89(9) 2_556 2_556 ?
O7 Eu2 O12 73.52(9) 2_565 2_556 ?
O6 Eu2 O8 125.24(9) . 2_565 ?
O4 Eu2 O8 128.63(8) 1_545 2_565 ?
O13 Eu2 O8 68.89(10) . 2_565 ?
O2 Eu2 O8 71.33(9) 2_665 2_565 ?
O9 Eu2 O8 64.25(9) . 2_565 ?
O11 Eu2 O8 142.95(10) 2_556 2_565 ?
O7 Eu2 O8 50.34(8) 2_565 2_565 ?
O12 Eu2 O8 113.99(9) 2_556 2_565 ?
O6 Eu2 C24 77.38(11) . 2_556 ?
O4 Eu2 C24 93.63(11) 1_545 2_556 ?
O13 Eu2 C24 71.98(12) . 2_556 ?
O2 Eu2 C24 148.91(11) 2_665 2_556 ?
O9 Eu2 C24 126.29(10) . 2_556 ?
O11 Eu2 C24 26.41(10) 2_556 2_556 ?
O7 Eu2 C24 99.86(10) 2_565 2_556 ?
O12 Eu2 C24 26.54(10) 2_556 2_556 ?
O8 Eu2 C24 133.30(10) 2_565 2_556 ?
O6 Eu2 C16 106.86(10) . 2_565 ?
O4 Eu2 C16 149.11(9) 1_545 2_565 ?
O13 Eu2 C16 72.56(12) . 2_565 ?
O2 Eu2 C16 76.86(10) 2_665 2_565 ?
O9 Eu2 C16 89.56(10) . 2_565 ?
O11 Eu2 C16 138.48(10) 2_556 2_565 ?
O7 Eu2 C16 25.02(9) 2_565 2_565 ?
O12 Eu2 C16 93.03(10) 2_556 2_565 ?
O8 Eu2 C16 25.38(9) 2_565 2_565 ?
C24 Eu2 C16 117.24(11) 2_556 2_565 ?
O6 Eu2 Eu1 126.72(7) . 1_445 ?
O4 Eu2 Eu1 94.22(6) 1_545 1_445 ?
O13 Eu2 Eu1 84.47(8) . 1_445 ?
O2 Eu2 Eu1 55.27(7) 2_665 1_445 ?
O9 Eu2 Eu1 37.22(7) . 1_445 ?
O11 Eu2 Eu1 140.74(7) 2_556 1_445 ?
O7 Eu2 Eu1 81.65(6) 2_565 1_445 ?
O12 Eu2 Eu1 147.49(8) 2_556 1_445 ?
O8 Eu2 Eu1 34.44(5) 2_565 1_445 ?
C24 Eu2 Eu1 155.79(8) 2_556 1_445 ?
C16 Eu2 Eu1 58.18(7) 2_565 1_445 ?
C26 N1 C25 115.4(15) . . ?
C26 N1 H1A 108.4 . . ?
C25 N1 H1A 108.4 . . ?
C26 N1 H1B 108.4 . . ?
C25 N1 H1B 108.4 . . ?
H1A N1 H1B 107.5 . . ?
C1 O1 Eu1 121.5(3) . . ?
C1 O2 Eu2 137.9(3) . 2_665 ?
C8 O3 H3 109.5 . . ?
C8 O4 Eu2 150.2(2) . 1_565 ?
C15 O6 Eu2 139.4(3) . . ?
C16 O7 Eu2 99.2(2) . 2_565 ?
C16 O8 Eu1 149.7(3) . 1_455 ?
C16 O8 Eu2 90.1(2) . 2_565 ?
Eu1 O8 Eu2 106.02(9) 1_455 2_565 ?
C17 O9 Eu2 159.3(3) . . ?
C17 O9 Eu1 91.8(2) . 1_445 ?
Eu2 O9 Eu1 107.53(10) . 1_445 ?
C17 O10 Eu1 97.2(2) . 1_445 ?
C24 O11 Eu2 93.2(2) . 2_556 ?
C24 O12 Eu2 92.2(2) . 2_556 ?
Eu2 O13 H13A 116.1 . . ?
Eu2 O13 H13B 118.7 . . ?
H13A O13 H13B 121.3 . . ?
H17A O17 H17B 121.4 . . ?
H18A O18 H18B 121.4 . . ?
H14A O14 H14B 121.4 . . ?
H15A O15 H15B 121.4 . . ?
H16A O16 H16B 121.4 . . ?
H21A O21 H21B 121.4 . . ?
O2 C1 O1 124.1(4) . . ?
O2 C1 C2 120.1(3) . . ?
O1 C1 C2 115.7(3) . . ?
C7 C2 C3 119.9(3) . . ?
C7 C2 C1 121.5(3) . . ?
C3 C2 C1 118.0(3) . . ?
C4 C3 C2 119.9(3) . . ?
C4 C3 H3A 120.0 . . ?
C2 C3 H3A 120.0 . . ?
C3 C4 C5 120.0(3) . . ?
C3 C4 C8 120.5(3) . . ?
C5 C4 C8 119.3(3) . . ?
C4 C5 C6 121.2(3) . . ?
C4 C5 H5 119.4 . . ?
C6 C5 H5 119.4 . . ?
C5 C6 C7 118.4(3) . . ?
C5 C6 C9 119.6(3) . . ?
C7 C6 C9 121.8(3) . . ?
C2 C7 C6 120.7(3) . . ?
C2 C7 H7 119.7 . . ?
C6 C7 H7 119.7 . . ?
O4 C8 O3 125.5(3) . . ?
O4 C8 C4 119.4(3) . . ?
O3 C8 C4 115.0(3) . . ?
C10 C9 C14 118.8(3) . . ?
C10 C9 C6 122.2(3) . . ?
C14 C9 C6 119.0(3) . . ?
C9 C10 C11 120.1(3) . . ?
C9 C10 H10 120.0 . . ?
C11 C10 H10 120.0 . . ?
C12 C11 C10 120.1(3) . . ?
C12 C11 C15 118.8(3) . . ?
C10 C11 C15 121.1(3) . . ?
C11 C12 C13 120.8(3) . . ?
C11 C12 H12 119.6 . . ?
C13 C12 H12 119.6 . . ?
C12 C13 C14 119.0(3) . . ?
C12 C13 C16 120.7(3) . . ?
C14 C13 C16 120.2(3) . . ?
C13 C14 C9 121.1(3) . . ?
C13 C14 H14 119.4 . . ?
C9 C14 H14 119.4 . . ?
O6 C15 O5 123.7(4) . . ?
O6 C15 C11 117.8(4) . . ?
O5 C15 C11 118.5(3) . . ?
O7 C16 O8 120.2(3) . . ?
O7 C16 C13 119.6(3) . . ?
O8 C16 C13 120.2(3) . . ?
O7 C16 Eu2 55.82(19) . 2_565 ?
O8 C16 Eu2 64.56(19) . 2_565 ?
C13 C16 Eu2 171.7(3) . 2_565 ?
O10 C17 O9 119.5(3) . . ?
O10 C17 C18 119.2(3) . . ?
O9 C17 C18 121.2(3) . . ?
O10 C17 Eu1 57.31(19) . 1_445 ?
O9 C17 Eu1 62.21(19) . 1_445 ?
C18 C17 Eu1 175.0(2) . 1_445 ?
C23 C18 C19 120.0(3) . . ?
C23 C18 C17 117.6(3) . . ?
C19 C18 C17 122.4(3) . . ?
C20 C19 C18 118.7(3) . . ?
C20 C19 H19 120.6 . . ?
C18 C19 H19 120.6 . . ?
C19 C20 C21 120.5(3) . . ?
C19 C20 C24 121.0(3) . . ?
C21 C20 C24 118.5(3) . . ?
C20 C21 C22 121.3(4) . . ?
C20 C21 H21 119.4 . . ?
C22 C21 H21 119.4 . . ?
C23 C22 C21 117.1(3) . . ?
C23 C22 C22 122.2(4) . 2_546 ?
C21 C22 C22 120.7(4) . 2_546 ?
C22 C23 C18 122.4(3) . . ?
C22 C23 H23 118.8 . . ?
C18 C23 H23 118.8 . . ?
O11 C24 O12 121.5(3) . . ?
O11 C24 C20 120.0(3) . . ?
O12 C24 C20 118.5(3) . . ?
O11 C24 Eu2 60.40(19) . 2_556 ?
O12 C24 Eu2 61.26(19) . 2_556 ?
C20 C24 Eu2 173.6(3) . 2_556 ?
N1 C25 H25A 108.5 . . ?
N1 C25 H25B 113.7 . . ?
H25A C25 H25B 109.5 . . ?
N1 C25 H25C 106.1 . . ?
H25A C25 H25C 109.5 . . ?
H25B C25 H25C 109.5 . . ?
N1 C26 H26A 108.0 . . ?
N1 C26 H26B 107.3 . . ?
H26A C26 H26B 109.5 . . ?
N1 C26 H26C 113.0 . . ?
H26A C26 H26C 109.5 . . ?
H26B C26 H26C 109.5 . . ?
H19A O19 H19B 121.4 . . ?
H20A O20 H20B 121.4 . . ?
H22A O22 H22B 121.4 . . ?
loop_
_geom_bond_atom_site_label_1
_geom_bond_atom_site_label_2
_geom_bond_distance
_geom_bond_site_symmetry_2
_geom_bond_publ_flag
Eu1 O1 2.321(3) 2_775 ?
Eu1 O1 2.321(3) . ?
Eu1 O8 2.367(2) 2_675 ?
Eu1 O8 2.367(2) 1_655 ?
Eu1 O10 2.446(3) 2_665 ?
Eu1 O10 2.446(3) 1_665 ?
Eu1 O9 2.552(3) 2_665 ?
Eu1 O9 2.552(3) 1_665 ?
Eu1 C17 2.883(4) 1_665 ?
Eu1 C17 2.883(4) 2_665 ?
Eu1 C1 3.166(4) 2_775 ?
Eu1 Eu2 4.02363(18) 1_665 ?
Eu2 O6 2.339(3) . ?
Eu2 O4 2.409(3) 1_545 ?
Eu2 O13 2.410(3) . ?
Eu2 O2 2.417(3) 2_665 ?
Eu2 O9 2.435(3) . ?
Eu2 O11 2.469(3) 2_556 ?
Eu2 O7 2.473(3) 2_565 ?
Eu2 O12 2.487(3) 2_556 ?
Eu2 O8 2.665(3) 2_565 ?
Eu2 C24 2.835(4) 2_556 ?
Eu2 C16 2.951(4) 2_565 ?
Eu2 Eu1 4.02360(18) 1_445 ?
N1 C26 1.432(16) . ?
N1 C25 1.55(2) . ?
N1 H1A 0.9100 . ?
N1 H1B 0.9100 . ?
O1 C1 1.258(5) . ?
O2 C1 1.245(5) . ?
O2 Eu2 2.417(3) 2_665 ?
O3 C8 1.294(5) . ?
O3 H3 0.8400 . ?
O4 C8 1.222(5) . ?
O4 Eu2 2.409(3) 1_565 ?
O5 C15 1.261(5) . ?
O6 C15 1.249(5) . ?
O7 C16 1.264(4) . ?
O7 Eu2 2.473(3) 2_565 ?
O8 C16 1.265(4) . ?
O8 Eu1 2.367(2) 1_455 ?
O8 Eu2 2.665(3) 2_565 ?
O9 C17 1.264(4) . ?
O9 Eu1 2.552(3) 1_445 ?
O10 C17 1.250(4) . ?
O10 Eu1 2.446(3) 1_445 ?
O11 C24 1.263(5) . ?
O11 Eu2 2.468(3) 2_556 ?
O12 C24 1.267(5) . ?
O12 Eu2 2.487(3) 2_556 ?
O13 H13A 0.8203 . ?
O13 H13B 0.8203 . ?
O17 H17A 0.8200 . ?
O17 H17B 0.8200 . ?
O18 H18A 0.8200 . ?
O18 H18B 0.8200 . ?
O14 H14A 0.8205 . ?
O14 H14B 0.8204 . ?
O15 H15A 0.8200 . ?
O15 H15B 0.8200 . ?
O16 H16A 0.8200 . ?
O16 H16B 0.8201 . ?
O21 H21A 0.8200 . ?
O21 H21B 0.8200 . ?
C1 C2 1.500(5) . ?
C2 C7 1.392(5) . ?
C2 C3 1.401(5) . ?
C3 C4 1.383(5) . ?
C3 H3A 0.9500 . ?
C4 C5 1.390(5) . ?
C4 C8 1.503(5) . ?
C5 C6 1.400(5) . ?
C5 H5 0.9500 . ?
C6 C7 1.402(5) . ?
C6 C9 1.485(5) . ?
C7 H7 0.9500 . ?
C9 C10 1.399(5) . ?
C9 C14 1.403(5) . ?
C10 C11 1.400(5) . ?
C10 H10 0.9500 . ?
C11 C12 1.384(5) . ?
C11 C15 1.497(5) . ?
C12 C13 1.391(5) . ?
C12 H12 0.9500 . ?
C13 C14 1.397(5) . ?
C13 C16 1.494(5) . ?
C14 H14 0.9500 . ?
C16 Eu2 2.951(4) 2_565 ?
C17 C18 1.487(5) . ?
C17 Eu1 2.883(4) 1_445 ?
C18 C23 1.391(5) . ?
C18 C19 1.397(5) . ?
C19 C20 1.386(5) . ?
C19 H19 0.9500 . ?
C20 C21 1.398(5) . ?
C20 C24 1.502(5) . ?
C21 C22 1.402(5) . ?
C21 H21 0.9500 . ?
C22 C23 1.381(5) . ?
C22 C22 1.495(7) 2_546 ?
C23 H23 0.9500 . ?
C24 Eu2 2.835(4) 2_556 ?
C25 H25A 0.9800 . ?
C25 H25B 0.9800 . ?
C25 H25C 0.9800 . ?
C26 H26A 0.9800 . ?
C26 H26B 0.9800 . ?
C26 H26C 0.9800 . ?
O19 H19A 0.8200 . ?
O19 H19B 0.8200 . ?
O20 H20A 0.8199 . ?
O20 H20B 0.8200 . ?
O22 H22A 0.8200 . ?
O22 H22B 0.8199 . ?
