#------------------------------------------------------------------------------
#$Date: 2020-03-04 03:33:32 +0200 (Wed, 04 Mar 2020) $
#$Revision: 248695 $
#$URL: file:///home/coder/svn-repositories/cod/cif/4/51/74/4517404.cif $
#------------------------------------------------------------------------------
#
# This file is available in the Crystallography Open Database (COD),
# http://www.crystallography.net/
#
# All data on this site have been placed in the public domain by the
# contributors.
#
data_4517404
loop_
_publ_author_name
'Refn, Vanja E.'
'Kubus, Mariusz'
'Mossin, Susanne'
'Larsen, Ren\'e Wugt'
'Pedersen, Kasper S.'
_publ_section_title
;
 A Redox-Innocent Uranium(IV)-Quinoid Metal-Organic Framework.
;
_journal_issue                   7
_journal_name_full               'ACS omega'
_journal_page_first              3462
_journal_page_last               3466
_journal_paper_doi               10.1021/acsomega.9b03727
_journal_volume                  5
_journal_year                    2020
_chemical_formula_moiety         '0.25(C48 H16 Cl16 O40 U4), 4(H2 O)'
_chemical_formula_sum            'C12 H12 Cl4 O14 U'
_chemical_formula_weight         760.05
_space_group_crystal_system      monoclinic
_space_group_IT_number           15
_space_group_name_Hall           '-C 2yc'
_space_group_name_H-M_alt        'C 1 2/c 1'
_atom_sites_solution_hydrogens   difmap
_atom_sites_solution_primary     dual
_audit_creation_date             2019-02-21
_audit_creation_method
;
Olex2 1.2
(compiled May 18 2018 14:05:52 for OlexSys, GUI svn.r5506)
;
_cell_angle_alpha                90
_cell_angle_beta                 96.415(5)
_cell_angle_gamma                90
_cell_formula_units_Z            4
_cell_length_a                   13.8598(7)
_cell_length_b                   11.4960(6)
_cell_length_c                   12.6100(6)
_cell_measurement_reflns_used    3646
_cell_measurement_temperature    285(13)
_cell_measurement_theta_max      29.3660
_cell_measurement_theta_min      3.5550
_cell_volume                     1996.60(17)
_computing_cell_refinement       'CrysAlisPro 1.171.38.43 (Rigaku OD, 2015)'
_computing_data_collection       'CrysAlisPro 1.171.38.43 (Rigaku OD, 2015)'
_computing_data_reduction        'CrysAlisPro 1.171.38.43 (Rigaku OD, 2015)'
_computing_molecular_graphics    'Olex2 (Dolomanov et al., 2009)'
_computing_publication_material  'Olex2 (Dolomanov et al., 2009)'
_computing_structure_refinement  'ShelXL (Sheldrick, 2015)'
_computing_structure_solution    'ShelXT (Sheldrick, 2015)'
_diffrn_ambient_environment      air
_diffrn_ambient_temperature      285(13)
_diffrn_detector                 'CCD plate'
_diffrn_detector_area_resol_mean 5.3073
_diffrn_detector_type            Atlas
_diffrn_measured_fraction_theta_full 0.998
_diffrn_measured_fraction_theta_max 0.850
_diffrn_measurement_details
;
List of Runs (angles in degrees, time in seconds):

  # Type    Start    End  Width  t~exp~   \w     \q     \k     \f   Frames
--------------------------------------------------------------------------
  1  \w    -19.00  12.00   1.00   45.92    --  -11.73 -99.00-180.00   31
  2  \w    -27.00  49.00   1.00   45.92    --  -11.73  77.00 -90.00   76
  3  \w    -64.00  29.00   1.00   45.92    --  -11.73 -19.00 -60.00   93
;
_diffrn_measurement_device       'four-circle diffractometer'
_diffrn_measurement_device_type  'SuperNova, Dual, Cu at zero, Atlas'
_diffrn_measurement_method       '\w scans'
_diffrn_orient_matrix_type
'CrysAlisPro convention (1999,Acta A55,543-557)'
_diffrn_orient_matrix_UB_11      0.0192534000
_diffrn_orient_matrix_UB_12      0.0089164000
_diffrn_orient_matrix_UB_13      -0.0491620000
_diffrn_orient_matrix_UB_21      -0.0369684000
_diffrn_orient_matrix_UB_22      0.0413442000
_diffrn_orient_matrix_UB_23      -0.0151469000
_diffrn_orient_matrix_UB_31      0.0302937000
_diffrn_orient_matrix_UB_32      0.0448580000
_diffrn_orient_matrix_UB_33      0.0236649000
_diffrn_radiation_monochromator  mirror
_diffrn_radiation_probe          x-ray
_diffrn_radiation_type           MoK\a
_diffrn_radiation_wavelength     0.71073
_diffrn_reflns_av_R_equivalents  0.0221
_diffrn_reflns_av_unetI/netI     0.0305
_diffrn_reflns_Laue_measured_fraction_full 0.998
_diffrn_reflns_Laue_measured_fraction_max 0.850
_diffrn_reflns_limit_h_max       18
_diffrn_reflns_limit_h_min       -16
_diffrn_reflns_limit_k_max       11
_diffrn_reflns_limit_k_min       -15
_diffrn_reflns_limit_l_max       17
_diffrn_reflns_limit_l_min       -15
_diffrn_reflns_number            5341
_diffrn_reflns_point_group_measured_fraction_full 0.998
_diffrn_reflns_point_group_measured_fraction_max 0.850
_diffrn_reflns_theta_full        25.242
_diffrn_reflns_theta_max         29.733
_diffrn_reflns_theta_min         2.917
_diffrn_source                   'micro-focus sealed X-ray tube'
_diffrn_source_type              'SuperNova (Mo) X-ray Source'
_exptl_absorpt_coefficient_mu    8.737
_exptl_absorpt_correction_T_max  1.00000
_exptl_absorpt_correction_T_min  0.67542
_exptl_absorpt_correction_type   multi-scan
_exptl_absorpt_process_details
;
CrysAlisPro 1.171.38.43 (Rigaku Oxford Diffraction, 2015)
Empirical absorption correction using spherical harmonics,
 implemented in SCALE3 ABSPACK scaling algorithm.
;
_exptl_crystal_colour            'clear dark violet'
_exptl_crystal_colour_lustre     clear
_exptl_crystal_colour_modifier   dark
_exptl_crystal_colour_primary    violet
_exptl_crystal_density_diffrn    2.528
_exptl_crystal_description       block
_exptl_crystal_F_000             1424
_exptl_crystal_size_max          0.16
_exptl_crystal_size_mid          0.07
_exptl_crystal_size_min          0.05
_refine_diff_density_max         1.126
_refine_diff_density_min         -0.826
_refine_diff_density_rms         0.115
_refine_ls_extinction_method     none
_refine_ls_goodness_of_fit_ref   1.056
_refine_ls_hydrogen_treatment    constr
_refine_ls_matrix_type           full
_refine_ls_number_parameters     148
_refine_ls_number_reflns         2422
_refine_ls_number_restraints     0
_refine_ls_restrained_S_all      1.056
_refine_ls_R_factor_all          0.0221
_refine_ls_R_factor_gt           0.0200
_refine_ls_shift/su_max          0.001
_refine_ls_shift/su_mean         0.000
_refine_ls_structure_factor_coef Fsqd
_refine_ls_weighting_details
'w=1/[\s^2^(Fo^2^)+(0.0203P)^2^+0.2945P] where P=(Fo^2^+2Fc^2^)/3'
_refine_ls_weighting_scheme      calc
_refine_ls_wR_factor_gt          0.0434
_refine_ls_wR_factor_ref         0.0445
_reflns_Friedel_coverage         0.000
_reflns_number_gt                2312
_reflns_number_total             2422
_reflns_threshold_expression     'I > 2\s(I)'
_cod_data_source_file            ao9b03727_si_003.cif
_cod_data_source_block           exp_1123_u
_cod_depositor_comments
'Adding full bibliography for 4517403--4517404.cif.'
_cod_database_code               4517404
_shelx_shelxl_version_number     2018/3
_chemical_oxdiff_formula         'U Cl2 C6 H6 O2'
_shelx_space_group_comment
;
The symmetry employed for this shelxl refinement is uniquely defined
by the following loop, which should always be used as a source of
symmetry information in preference to the above space-group names.
They are only intended as comments.
;
_shelx_estimated_absorpt_t_max   0.669
_shelx_estimated_absorpt_t_min   0.335
_reflns_odcompleteness_completeness 99.77
_reflns_odcompleteness_iscentric 1
_reflns_odcompleteness_theta     26.32
_olex2_refinement_description
;
1. Fixed Uiso
 At 1.5 times of:
  All O(H,H) groups
2.a Free rotating group:
 O6(H6A,H6B), O7(H7A,H7B)
2.b Rotating group:
 O5(H5A,H5B)
;
_shelx_res_file
;
TITL exp_1123_u_a.res in C2/c
    exp_1123_u.res
    created by SHELXL-2018/3 at 11:15:37 on 21-Feb-2019
REM Old TITL exp_1123_U in Cc
REM SHELXT solution in C2/c: R1 0.070, Rweak 0.012, Alpha 0.020
REM <I/s> 0.458 for 106 systematic absences, Orientation as input
REM Formula found by SHELXT: C12 O14 Cl4 U
CELL 0.71073 13.8598 11.496 12.61 90 96.415 90
ZERR 4 0.0007 0.0006 0.0006 0 0.005 0
LATT 7
SYMM -X,+Y,0.5-Z
SFAC C H Cl O U
UNIT 48 48 16 56 4

L.S. 10
PLAN  20
SIZE 0.16 0.05 0.07
BOND
list 4
fmap 2
acta
REM <olex2.extras>
REM <HklSrc "%./C12H12Cl4O14Uexp_1123_U.hkl">
REM </olex2.extras>

WGHT    0.020300    0.294500
FVAR       0.23157
U1    5    0.500000    0.236501    0.750000    10.50000    0.01550    0.02347 =
         0.01454    0.00000   -0.00400    0.00000
CL1   3    0.300195    0.395618    1.059228    11.00000    0.03069    0.05853 =
         0.03817   -0.01421    0.01194   -0.01892
CL2   3    0.398038    0.265155    0.325230    11.00000    0.02999    0.08017 =
         0.02848   -0.00244    0.00495   -0.00520
O1    4    0.409974    0.334302    0.875114    11.00000    0.02167    0.03186 =
         0.02300   -0.00810   -0.00106   -0.00458
O4    4    0.179631    0.283570    0.296195    11.00000    0.02658    0.04135 =
         0.01883    0.00480   -0.00639   -0.00518
O2    4    0.423552    0.584548    1.169155    11.00000    0.02482    0.03274 =
         0.02025   -0.00672    0.00395   -0.00282
O3    4    0.437678    0.201854    0.560618    11.00000    0.02137    0.04389 =
         0.02648   -0.00999   -0.00694    0.00628
O5    4    0.429484    0.065990    0.826309    11.00000    0.02953    0.03388 =
         0.04892    0.00841   -0.01287   -0.00747
AFIX   7
H5A   2    0.473904    0.013269    0.842816    11.00000   -1.50000
H5B   2    0.389102    0.031672    0.778310    11.00000   -1.50000
AFIX   6

O6    4    0.231255    0.465478    0.780656    11.00000    0.04566    0.05937 =
         0.06631    0.00609    0.00045    0.01479
H6A   2    0.216326    0.393728    0.780209    11.00000   -1.50000
H6B   2    0.287029    0.473446    0.759493    11.00000   -1.50000
AFIX   0

C3    1    0.351216    0.227745    0.525185    11.00000    0.01897    0.02784 =
         0.02362   -0.00553   -0.00577    0.00054
C4    1    0.218768    0.271489    0.390208    11.00000    0.02278    0.02600 =
         0.01945    0.00083   -0.00688   -0.00228
C6    1    0.317924    0.255709    0.420250    11.00000    0.02174    0.03868 =
         0.02157   -0.00442   -0.00069   -0.00265
C2    1    0.455159    0.538965    1.089738    11.00000    0.01777    0.02748 =
         0.02147    0.00128   -0.00015    0.00010
AFIX   6
O7    4    0.431503    0.079046    1.078210    11.00000    0.05993    0.08713 =
         0.07958    0.02317    0.00569    0.00417
H7A   2    0.369783    0.078896    1.072594    11.00000   -1.50000
H7B   2    0.451341    0.143536    1.055828    11.00000   -1.50000
AFIX   0

C1    1    0.447816    0.411601    0.938246    11.00000    0.02001    0.02818 =
         0.02031   -0.00057   -0.00233   -0.00055
C5    1    0.408296    0.452338    1.026578    11.00000    0.01948    0.03262 =
         0.02296   -0.00524    0.00253   -0.00458
HKLF 4




REM  exp_1123_u_a.res in C2/c
REM wR2 = 0.0445, GooF = S = 1.056, Restrained GooF = 1.056 for all data
REM R1 = 0.0200 for 2312 Fo > 4sig(Fo) and 0.0221 for all 2422 data
REM 148 parameters refined using 0 restraints

END

WGHT      0.0203      0.2945

REM Highest difference peak  1.126,  deepest hole -0.826,  1-sigma level  0.115
Q1    1   0.4878  0.2953  0.7774  11.00000  0.05    1.13
Q2    1   0.4847  0.1760  0.7968  11.00000  0.05    0.68
Q3    1   0.2911  0.4577  1.0181  11.00000  0.05    0.60
Q4    1   0.5333  0.1450  0.7688  11.00000  0.05    0.50
Q5    1   0.4416  0.3213  0.8330  11.00000  0.05    0.45
Q6    1   0.3633  0.3105  0.8750  11.00000  0.05    0.44
Q7    1   0.4197  0.2671  0.8597  11.00000  0.05    0.44
Q8    1   0.3887  0.6393  1.1490  11.00000  0.05    0.43
Q9    1   0.3292  0.3522  0.2830  11.00000  0.05    0.41
Q10   1   0.1888  0.2586  0.2106  11.00000  0.05    0.40
Q11   1   0.4741  0.3369  0.8489  11.00000  0.05    0.40
Q12   1   0.3733  0.3462  0.3457  11.00000  0.05    0.39
Q13   1   0.4386  0.2601  0.5795  11.00000  0.05    0.39
Q14   1   0.4670  0.2277  0.6500  11.00000  0.05    0.38
Q15   1   0.3962  0.1193  0.8191  11.00000  0.05    0.38
Q16   1   0.3681  0.1205  0.6243  11.00000  0.05    0.37
Q17   1   0.4704  0.1256  0.8464  11.00000  0.05    0.37
Q18   1   0.4306  0.4026  0.8399  11.00000  0.05    0.36
Q19   1   0.3697  0.0444  0.8170  11.00000  0.05    0.36
Q20   1   0.4197  0.3380  0.8215  11.00000  0.05    0.36
;
_shelx_res_checksum              3069
_shelx_hkl_file
;
 -16  -6   7   97.73   13.83
 -16  -8   6  274.29   21.15
 -15  -3   9  423.50   26.68
 -15  -5   6   86.46   12.08
 -15  -5   7   64.71   11.23
 -15  -5   8    6.19    7.76
 -15  -7   5   57.67   10.29
 -15  -7   6   26.62    8.44
 -15  -7   7  203.84   18.47
 -15  -9   6   79.89   12.40
 -14  -2   9  222.99   18.80
 -14  -2  10  405.37   25.88
 -14  -4   6  813.85   34.21
 -14  -4   7  102.43   12.18
 -14  -4   8  802.57   35.73
 -14  -4   9   79.67   12.34
 -14  -4  10  386.55   25.90
 -14  -6   4  389.09   21.85
 -14  -6   5  115.15   12.65
 -14  -6   6  305.88   20.58
 -14  -6   7  216.24   18.03
 -14  -6   8  360.94   23.83
 -14  -6   9   66.06   12.01
 -14  -8   3  107.67   11.60
 -14  -8   4  291.86   19.30
 -14  -8   5  363.23   22.52
 -14  -8   6  160.70   15.76
 -14  -8   7   78.71   12.09
 -14  -8   8  370.33   25.52
 -14 -10   6  146.60   15.64
 -13  -1   9  217.18   17.79
 -13  -1  10    7.10    6.75
 -13  -1  11  392.92   25.45
 -13  -3   6   60.14    9.59
 -13  -3   7  583.14   28.11
 -13  -3   8   -1.10    5.91
 -13  -3   9  534.82   28.52
 -13  -3  10  103.56   13.53
 -13  -3  11   79.83   12.90
 -13  -5   4  347.08   19.82
 -13  -5   5  433.21   22.90
 -13  -5   6    4.31    5.90
 -13  -5   7  354.54   22.52
 -13  -5   8  188.72   16.83
 -13  -5   9  201.32   18.07
 -13  -5  10   20.80    8.50
 -13  -7   2  169.99   13.37
 -13  -7   3  261.12   16.96
 -13  -7   4  325.56   19.65
 -13  -7   5  498.41   25.65
 -13  -7   6  209.84   17.60
 -13  -7   7  301.04   21.58
 -13  -7   8   98.62   13.41
 -13  -7   9   61.82   12.18
 -13  -9   3  273.39   17.87
 -13  -9   4  265.87   18.45
 -13  -9   5  249.02   18.69
 -13  -9   6  351.38   22.84
 -13  -9   7  162.04   16.87
 -13  -9   8   89.16   13.07
 -12   0 -12  381.47   27.77
 -12   0  10  624.63   30.66
 -12   0  11    6.01    6.73
 -12   0  12  762.56   36.32
 -12  -2   5   20.85    6.62
 -12  -2   6  962.62   34.74
 -12  -2   7   91.79   10.97
 -12  -2   8  963.32   37.04
 -12  -2   9    1.30    6.51
 -12  -2  10  846.22   36.37
 -12  -2  11   -0.88    6.44
 -12  -2  12  540.36   30.41
 -12  -4   3  122.99   10.97
 -12  -4   4 1475.37   43.76
 -12  -4   5   81.11   10.07
 -12  -4   6  527.41   25.29
 -12  -4   7    8.01    6.18
 -12  -4   8  369.47   22.58
 -12  -4   9  123.44   13.91
 -12  -4  10 1067.37   42.48
 -12  -4  11  147.15   15.96
 -12  -6   1  117.95   12.18
 -12  -6   2  848.23   29.59
 -12  -6   3  164.38   12.88
 -12  -6   4  413.91   21.36
 -12  -6   5  421.26   22.49
 -12  -6   6  271.38   18.69
 -12  -6   7   43.11    9.10
 -12  -6   8  471.92   26.49
 -12  -6   9  217.01   18.47
 -12  -6  10  354.16   24.38
 -12  -8   1   98.78    9.46
 -12  -8   2  368.91   18.98
 -12  -8   3  423.23   21.53
 -12  -8   4  156.07   13.80
 -12  -8   5  111.58   12.32
 -12  -8   6  363.47   22.71
 -12  -8   7  266.24   20.12
 -12  -8   8  291.74   21.69
 -12  -8   9  158.22   16.70
 -12 -10   3  141.03   13.21
 -12 -10   4  216.33   16.99
 -12 -10   5  150.17   15.26
 -12 -10   6  144.05   15.15
 -12 -10   7  264.06   20.43
 -12 -10   8   49.37   10.56
 -11   1 -13  386.68   27.23
 -11   1 -12   62.83   11.59
 -11  -1 -12   79.19   13.64
 -11  -1   6    5.59    4.93
 -11  -1   7 1063.12   36.78
 -11  -1   8   -6.69    5.13
 -11  -1   9 1141.26   40.79
 -11  -1  10   -8.62    6.34
 -11  -1  11  121.20   14.35
 -11   1  11  140.52   14.61
 -11  -1  12   12.24    8.01
 -11   1  12   -8.26    7.15
 -11  -1  13  197.39   18.87
 -11   1  13  204.48   19.19
 -11  -3 -11  644.28   36.57
 -11  -3   0   14.76    5.46
 -11  -3   1 1210.77   40.39
 -11  -3   3 1448.49   40.88
 -11  -3   4  546.87   23.04
 -11  -3   5 1826.52   50.51
 -11  -3   6    5.11    5.29
 -11  -3   7 1179.19   39.79
 -11  -3   8   54.63    9.30
 -11  -3   9  330.07   21.04
 -11  -3  10   44.03   10.12
 -11  -3  11  365.61   24.01
 -11  -3  12   -0.96    7.05
 -11  -5 -10  116.66   16.15
 -11  -5   0  131.34   12.01
 -11  -5   1  819.92   30.86
 -11  -5   2  413.86   18.77
 -11  -5   3 2104.93   53.99
 -11  -5   4   38.81    7.15
 -11  -5   5  972.64   34.41
 -11  -5   6  264.01   17.35
 -11  -5   7  769.08   31.96
 -11  -5   8   93.53   11.61
 -11  -5   9  339.44   22.29
 -11  -5  10    8.29    7.33
 -11  -5  11  281.62   21.85
 -11  -5  12  149.99   17.29
 -11  -7   0  263.26   16.71
 -11  -7   1  233.36   13.68
 -11  -7   1  251.03   15.88
 -11  -7   2  354.06   19.09
 -11  -7   2  370.20   18.38
 -11  -7   3  914.91   32.25
 -11  -7   4  675.21   27.87
 -11  -7   5  483.07   24.31
 -11  -7   6  233.08   17.19
 -11  -7   7  314.36   20.57
 -11  -7   8  127.95   14.27
 -11  -7   9  509.48   28.47
 -11  -7  10   63.36   11.69
 -11  -7  11  100.46   14.81
 -11  -9   0  233.99   13.15
 -11  -9   1  277.34   15.57
 -11  -9   2  332.54   18.18
 -11  -9   3  460.56   22.64
 -11  -9   4  543.45   25.92
 -11  -9   5  392.80   22.86
 -11  -9   6   94.50   12.48
 -11  -9   7  337.20   22.74
 -11  -9   8  331.05   23.11
 -11  -9   9  139.32   16.14
 -11 -11   3   70.49   10.26
 -11 -11   4  138.32   13.95
 -11 -11   5  115.91   13.52
 -11 -11   6  249.71   19.88
 -11 -11   7  186.12   18.44
 -10   0 -13   -9.68    7.46
 -10   0 -12  722.98   36.64
 -10   0 -11   -2.12    6.47
 -10   0  -1    7.84    5.46
 -10   0   0 3716.45   86.59
 -10   0   6  424.66   20.40
 -10   0   7   -4.03    5.55
 -10   0   8  735.29   29.44
 -10   0   9    1.50    5.58
 -10   0  10 1404.02   45.90
 -10   0  11   -6.41    6.74
 -10   0  12  581.33   29.41
 -10   0  13    1.85    6.54
 -10   0  14  579.46   31.83
 -10   2 -12 1028.47   42.25
 -10  -2 -12 1028.67   46.64
 -10   2 -11  154.42   15.63
 -10  -2 -11  140.60   16.52
 -10  -2  -2 3263.36   78.15
 -10  -2  -1  148.93   12.29
 -10  -2   0 2959.85   71.71
 -10  -2   1  137.80   12.05
 -10  -2   3    2.52    3.71
 -10  -2   4  390.79   18.45
 -10  -2   5  439.19   20.33
 -10  -2   6  457.03   21.64
 -10  -2   7   18.15    5.86
 -10  -2   8  584.11   26.58
 -10  -2   9    8.04    5.78
 -10  -2  10  537.62   27.33
 -10  -2  11   64.97   11.13
 -10  -2  12  772.33   35.57
 -10  -2  13   17.91    7.93
 -10  -4 -11   47.14   11.45
 -10  -4  -1  312.43   17.62
 -10  -4   0 1198.19   37.78
 -10  -4   1   14.67    5.32
 -10  -4   1   19.23    5.39
 -10  -4   2 2590.94   59.76
 -10  -4   3  354.64   17.29
 -10  -4   4  721.84   26.81
 -10  -4   5   13.22    5.45
 -10  -4   6  353.04   19.33
 -10  -4   7   82.49   10.35
 -10  -4   8  843.33   33.50
 -10  -4   9  175.52   15.50
 -10  -4  10  280.20   20.12
 -10  -4  11   66.64   11.22
 -10  -4  12  640.14   32.91
 -10  -4  13   98.58   14.36
 -10  -6 -10  631.99   36.28
 -10  -6  -1  456.35   21.43
 -10  -6   0 1402.50   41.96
 -10  -6   0 1480.50   37.57
 -10  -6   1  352.17   17.95
 -10  -6   1  342.41   15.93
 -10  -6   2  989.99   31.34
 -10  -6   2 1014.65   32.50
 -10  -6   3  441.98   20.29
 -10  -6   4  493.03   22.33
 -10  -6   5    7.77    5.26
 -10  -6   6  592.10   26.85
 -10  -6   7  170.78   14.57
 -10  -6   8  240.01   18.10
 -10  -6   9  132.42   14.16
 -10  -6  10  444.49   26.29
 -10  -6  11   38.79    9.10
 -10  -6  12  438.41   28.19
 -10  -8  -8  123.56   15.67
 -10  -8  -1  403.00   15.55
 -10  -8  -1  386.81   19.78
 -10  -8   0  947.75   32.38
 -10  -8   0  996.08   29.37
 -10  -8   1  834.28   28.85
 -10  -8   1  824.68   27.75
 -10  -8   2  522.51   22.51
 -10  -8   2  556.92   22.22
 -10  -8   3  265.15   16.41
 -10  -8   4  254.55   16.84
 -10  -8   5  182.12   15.16
 -10  -8   6  508.54   26.09
 -10  -8   7  106.35   12.76
 -10  -8   8  127.38   15.04
 -10  -8   9  126.88   15.16
 -10  -8  10  267.00   21.50
 -10 -10  -6  133.28   16.18
 -10 -10   1  437.46   19.93
 -10 -10   2  480.48   22.56
 -10 -10   3  236.01   16.43
 -10 -10   4  253.64   17.99
 -10 -10   5   93.78   12.05
 -10 -10   6  132.12   14.61
 -10 -10   7  199.74   18.05
 -10 -10   8  242.20   20.21
 -10 -10   9  207.27   19.84
 -10 -12  -4   95.96   13.76
 -10 -12  -3  348.49   23.86
 -10 -12   4   36.80    8.80
 -10 -12   5  104.78   13.52
 -10 -12   6  111.99   14.55
 -10 -12   7  270.39   22.00
  -9   1 -14   -5.12    6.71
  -9  -1 -14   -8.82    8.81
  -9   1 -13  687.04   34.93
  -9  -1 -13  685.33   37.29
  -9   1 -12    6.45    5.85
  -9  -1 -12    0.27    8.05
  -9   1 -11  386.72   24.23
  -9  -1 -11  373.51   25.26
  -9  -1  -3 2999.92   71.76
  -9   1  -3 2936.77   72.95
  -9  -1  -2   -2.24    4.11
  -9   1  -2   -0.30    3.99
  -9   1  -1  698.43   27.64
  -9  -1  -1  650.39   25.95
  -9  -1   0    7.13    4.26
  -9  -1   4    5.19    3.98
  -9  -1   5  932.99   30.41
  -9  -1   6  389.51   18.91
  -9   1   7 2933.85   69.95
  -9  -1   7 2981.77   71.11
  -9   1   8   14.38    5.91
  -9  -1   8    6.00    4.93
  -9  -1   9 1515.36   46.52
  -9   1   9 1472.65   45.07
  -9  -1  10   13.70    6.43
  -9   1  10   33.93    8.19
  -9   1  11  883.53   34.96
  -9  -1  11  897.72   36.10
  -9  -1  12   59.27   10.58
  -9   1  12   54.08    9.79
  -9  -1  13  357.17   23.75
  -9   1  13  358.18   23.22
  -9   1  14    2.78    6.80
  -9  -1  14    3.81    6.93
  -9   1  15  191.75   18.69
  -9  -3 -13  489.58   32.53
  -9  -3 -12   25.67   10.63
  -9   3 -12   30.10    7.85
  -9   3 -11  659.97   30.29
  -9  -3 -11  708.48   36.43
  -9  -3 -10  101.88   14.21
  -9  -3  -3 1337.10   40.59
  -9  -3  -2  192.11   13.34
  -9  -3  -1 3547.75   79.70
  -9  -3   0    5.50    3.70
  -9  -3   1  557.28   22.58
  -9  -3   1  585.36   20.03
  -9  -3   2   18.45    4.36
  -9  -3   3 1017.83   30.70
  -9  -3   4    0.82    4.56
  -9  -3   5 2191.01   55.09
  -9  -3   6  105.08   10.52
  -9  -3   7  819.30   30.62
  -9  -3   8  133.22   12.64
  -9  -3   9 1614.45   49.71
  -9  -3  10    8.02    6.04
  -9  -3  11  693.10   32.05
  -9  -3  12   65.61   11.15
  -9  -3  13  315.04   22.67
  -9  -3  14   28.75    8.55
  -9  -5 -11  526.48   32.77
  -9  -5 -10    7.97    7.74
  -9  -5  -2  889.45   30.79
  -9  -5  -1  617.92   24.17
  -9  -5   0   90.90    9.16
  -9  -5   0  106.91    7.73
  -9  -5   1  419.46   16.91
  -9  -5   1  399.77   18.27
  -9  -5   2    8.21    3.68
  -9  -5   2   13.60    4.22
  -9  -5   3  474.30   19.97
  -9  -5   4  267.05   15.31
  -9  -5   5 1214.57   37.97
  -9  -5   6  185.16   13.84
  -9  -5   7 1328.44   42.69
  -9  -5   8  404.27   22.18
  -9  -5   9  858.98   34.99
  -9  -5  10  305.20   21.08
  -9  -5  11  513.21   28.58
  -9  -5  12   11.72    7.57
  -9  -5  13  197.67   19.07
  -9  -7 -10  104.02   15.63
  -9  -7  -9  530.45   32.01
  -9  -7  -8  827.55   39.12
  -9  -7  -2  279.71   16.14
  -9  -7  -1  743.95   27.39
  -9  -7  -1  793.26   22.66
  -9  -7   0  115.33    9.72
  -9  -7   0  123.36    8.82
  -9  -7   1  852.84   27.84
  -9  -7   1  837.32   26.89
  -9  -7   2  404.85   17.58
  -9  -7   2  408.77   18.56
  -9  -7   3  290.45   16.13
  -9  -7   4  231.23   15.16
  -9  -7   5  721.85   29.24
  -9  -7   6  383.24   21.71
  -9  -7   7 1310.14   44.44
  -9  -7   8  214.68   17.33
  -9  -7   9  250.94   19.51
  -9  -7  10  207.23   18.57
  -9  -7  11  407.17   26.68
  -9  -7  12  108.03   15.19
  -9  -9  -8  405.01   27.42
  -9  -9  -7  315.62   23.67
  -9  -9  -2  219.22    9.51
  -9  -9  -1  475.93   21.41
  -9  -9  -1  499.84   17.91
  -9  -9   0  278.02   14.08
  -9  -9   0  273.71   15.15
  -9  -9   1  449.05   19.52
  -9  -9   1  427.46   18.53
  -9  -9   2  460.81   21.30
  -9  -9   3  199.47   14.55
  -9  -9   4   60.02    9.05
  -9  -9   5  469.74   24.63
  -9  -9   6  335.19   21.27
  -9  -9   7  178.55   16.34
  -9  -9   8  387.93   24.63
  -9  -9   9  235.02   20.29
  -9  -9  10  190.20   18.81
  -9 -11  -6  569.90   32.21
  -9 -11  -5  172.42   16.98
  -9 -11  -4  295.51   21.56
  -9 -11   1  173.99   12.99
  -9 -11   2  188.45   14.27
  -9 -11   3  167.80   14.20
  -9 -11   4  208.61   16.70
  -9 -11   5  282.47   20.48
  -9 -11   6  452.58   26.65
  -9 -11   7  115.52   14.58
  -9 -11   8  271.77   22.43
  -9 -13  -4  177.28   18.20
  -9 -13  -3   82.38   12.31
  -9 -13  -2  244.64   19.42
  -9 -13  -1   52.29    9.68
  -9 -13   0  203.48   17.43
  -9 -13   5   20.68    8.38
  -9 -13   6  226.86   20.05
  -8   0 -15    0.69    7.39
  -8   0 -14  813.69   39.72
  -8   0 -13   -8.83    7.49
  -8   0 -12 1133.73   45.35
  -8   0 -11    6.01    6.24
  -8   0  -4 1287.96   39.46
  -8   0  -3    3.79    3.90
  -8   0  -2 3773.65   83.80
  -8   0  -1    1.40    3.46
  -8   0   0  138.55   10.87
  -8   0   4 5369.59  107.17
  -8   0   5    0.84    3.86
  -8   0   6  360.77   17.36
  -8   0   7   -3.33    4.31
  -8   0   8 2735.73   66.81
  -8   0   9   -1.47    5.16
  -8   0  10  483.81   23.91
  -8   0  11    4.63    5.47
  -8   0  12  316.52   20.61
  -8   0  13   -5.89    7.17
  -8   0  14 1057.43   42.47
  -8   0  15    1.95    7.18
  -8  -2 -14  853.01   43.31
  -8   2 -13   57.42   10.76
  -8  -2 -13   47.92   11.44
  -8  -2 -12 1214.86   49.12
  -8   2 -12 1183.93   44.09
  -8  -2 -11   53.76   10.14
  -8   2 -11   53.14    8.78
  -8   2 -10 1185.36   42.28
  -8  -2 -10 1326.70   48.27
  -8  -2  -4  916.52   31.49
  -8   2  -4  960.66   33.27
  -8   2  -3   12.97    5.22
  -8  -2  -3    7.39    4.07
  -8   2  -2 1141.10   36.47
  -8  -2  -2 1138.28   34.56
  -8   2  -1  158.57   12.11
  -8  -2  -1  144.80   10.90
  -8  -2   0 2692.78   62.14
  -8  -2   1   10.82    3.89
  -8  -2   2 3535.00   73.22
  -8  -2   3  380.86   16.06
  -8  -2   4 2539.48   58.48
  -8  -2   5   46.63    6.48
  -8  -2   6 1916.95   50.06
  -8  -2   7   84.80    9.33
  -8   2   8  432.12   20.59
  -8  -2   8  410.28   20.87
  -8  -2   9    8.14    5.24
  -8   2   9   26.64    6.78
  -8   2  10  884.80   32.99
  -8  -2  10  890.33   34.52
  -8  -2  11    5.25    5.66
  -8   2  11    6.29    5.33
  -8  -2  12  771.10   34.30
  -8   2  12  767.22   32.41
  -8   2  13  163.49   15.39
  -8  -2  13  141.16   15.57
  -8  -2  14  741.33   35.41
  -8   2  14  727.68   33.98
  -8  -2  15    8.53    7.50
  -8   2  15   17.03    8.73
  -8  -4 -13  139.97   17.85
  -8  -4 -12  799.17   41.00
  -8  -4 -11   68.73   12.05
  -8   4 -11   77.79    9.69
  -8   4 -10 1844.49   51.72
  -8  -4 -10 1858.31   62.05
  -8  -4  -4 1423.30   41.33
  -8  -4  -3  990.23   31.88
  -8  -4  -2  989.83   31.55
  -8  -4  -1   88.99    8.22
  -8  -4   0 2980.99   66.86
  -8  -4   0 2956.60   61.20
  -8  -4   1  279.35   12.83
  -8  -4   1  264.26   13.73
  -8  -4   2 2183.56   50.92
  -8  -4   2 2248.85   52.26
  -8  -4   3  110.93    8.96
  -8  -4   4 1653.00   43.85
  -8  -4   5  166.46   11.91
  -8  -4   6 1926.90   51.51
  -8  -4   7  150.94   12.67
  -8  -4   8  320.30   19.34
  -8  -4   9  115.36   12.30
  -8  -4  10  488.19   25.35
  -8  -4  11   44.63    9.55
  -8  -4  12  595.55   31.03
  -8  -4  13   69.06   11.64
  -8  -4  14  462.25   28.90
  -8  -6 -11  235.41   21.92
  -8  -6 -10  623.16   34.41
  -8  -6  -9  391.91   26.10
  -8  -6  -3   52.94    7.39
  -8  -6  -2 1911.00   48.92
  -8  -6  -1  223.74    9.96
  -8  -6  -1  223.45   13.06
  -8  -6   0  427.03   15.94
  -8  -6   0  414.20   17.71
  -8  -6   1  307.14   14.70
  -8  -6   1  303.71   13.97
  -8  -6   2  928.54   27.47
  -8  -6   2  937.90   28.92
  -8  -6   3  271.50   14.88
  -8  -6   4 2003.96   52.14
  -8  -6   5  647.63   26.13
  -8  -6   6  728.99   29.16
  -8  -6   7  340.66   19.95
  -8  -6   8  926.76   35.91
  -8  -6   9   66.04   10.65
  -8  -6  10  281.04   20.33
  -8  -6  11  261.82   20.95
  -8  -6  12  184.36   18.61
  -8  -6  13  133.89   16.77
  -8  -8 -10  349.21   26.65
  -8  -8  -9  355.56   25.76
  -8  -8  -8  617.10   32.70
  -8  -8  -7  440.73   26.91
  -8  -8  -2  862.04   21.90
  -8  -8  -2  836.54   28.74
  -8  -8  -1  246.05   13.97
  -8  -8  -1  259.44   11.78
  -8  -8   0  915.57   28.89
  -8  -8   0  936.32   27.67
  -8  -8   1  691.45   24.29
  -8  -8   1  652.71   22.36
  -8  -8   2  878.79   25.84
  -8  -8   2  869.20   29.66
  -8  -8   3  850.56   30.36
  -8  -8   4  691.60   27.83
  -8  -8   5  285.98   18.25
  -8  -8   6  448.75   23.67
  -8  -8   7  122.39   13.02
  -8  -8   8  169.62   15.96
  -8  -8   9  219.03   18.68
  -8  -8  10  266.25   21.82
  -8  -8  11  100.69   14.64
  -8 -10  -8  152.21   17.47
  -8 -10  -7  328.24   23.91
  -8 -10  -6  275.16   21.25
  -8 -10  -5  127.48   14.18
  -8 -10  -1  288.07   13.75
  -8 -10   0  590.79   22.46
  -8 -10   1  351.44   17.61
  -8 -10   2  397.13   20.46
  -8 -10   3  497.90   23.82
  -8 -10   4  277.78   18.31
  -8 -10   5  330.10   21.25
  -8 -10   6  256.27   19.47
  -8 -10   7  254.79   20.12
  -8 -10   8   81.75   12.50
  -8 -10   9  268.16   22.56
  -8 -10  10  145.61   17.57
  -8 -12  -6  139.71   16.38
  -8 -12  -5  290.93   21.99
  -8 -12  -4   86.12   12.00
  -8 -12  -3  241.55   18.64
  -8 -12  -2  112.96   12.85
  -8 -12  -1  254.99   18.46
  -8 -12   0   99.38   11.26
  -8 -12   2   99.41   11.33
  -8 -12   3  231.72   17.41
  -8 -12   4  197.13   17.14
  -8 -12   5  513.85   28.22
  -8 -12   6   99.70   14.02
  -8 -12   7  229.10   20.87
  -8 -12   8   42.66   11.08
  -8 -14  -3  216.08   18.90
  -7  -1 -15  597.15   35.09
  -7   1 -14   -1.01    6.40
  -7  -1 -14   -3.42    7.04
  -7   1 -13  874.11   38.50
  -7  -1 -13  925.26   41.71
  -7   1 -12    5.27    5.41
  -7  -1 -12    9.64    6.92
  -7   1 -11  725.13   32.14
  -7  -1 -11  756.14   34.62
  -7   1 -10   31.83    7.60
  -7  -1 -10   36.77    8.53
  -7   1  -6    6.17    4.11
  -7  -1  -5 4060.97   87.54
  -7   1  -5 3928.36   87.91
  -7   1  -4    1.76    3.33
  -7  -1  -4    4.43    3.38
  -7   1  -3 4010.08   85.77
  -7  -1  -3 3884.18   84.46
  -7   1  -2    0.93    2.86
  -7  -1  -2    1.66    2.95
  -7  -1  -1 2272.17   53.55
  -7   1  -1 2248.03   54.41
  -7  -1   0  194.33   11.50
  -7  -1   1 2227.69   52.34
  -7  -1   2  342.11   13.79
  -7  -1   3 2085.76   47.74
  -7  -1   4   24.71    4.80
  -7  -1   5 2485.56   57.29
  -7   1   6   15.73    4.57
  -7  -1   6   20.62    5.13
  -7   1   7 1444.85   39.60
  -7  -1   7 1364.08   39.86
  -7  -1   8   37.07    6.71
  -7   1   8   40.37    6.64
  -7   1   9 2578.55   63.72
  -7  -1   9 2511.74   64.22
  -7  -1  10  125.36   12.36
  -7   1  10  137.06   12.30
  -7  -1  11 1401.56   45.54
  -7   1  11 1385.60   44.13
  -7   1  12   -4.90    5.86
  -7  -1  12  -12.97    7.00
  -7   1  13  634.37   30.17
  -7  -1  13  660.48   31.51
  -7  -1  14   13.38    7.39
  -7   1  14   10.32    6.63
  -7  -1  15  219.95   19.50
  -7   1  15  233.98   19.39
  -7   1  16    5.62    7.72
  -7  -3 -14   40.63   11.84
  -7  -3 -13  973.66   45.57
  -7  -3 -12   30.63   10.22
  -7   3 -12   28.37    7.48
  -7   3 -11  627.09   27.58
  -7  -3 -11  630.87   33.15
  -7   3 -10   82.72    9.76
  -7  -3 -10   79.37   11.75
  -7  -3  -9 1271.83   46.18
  -7   3  -6   25.35    6.16
  -7   3  -5 1055.12   35.83
  -7  -3  -5 1126.66   34.41
  -7  -3  -4   77.54    8.13
  -7   3  -4   66.59    8.22
  -7  -3  -3 5455.80  108.72
  -7   3  -3 5251.29  111.88
  -7   3  -2  416.30   19.69
  -7  -3  -2  436.82   18.19
  -7  -3  -1 1937.83   47.08
  -7  -3   0  381.63   13.27
  -7  -3   0  350.40   15.45
  -7  -3   1 3469.39   69.29
  -7  -3   1 3382.20   71.68
  -7  -3   2  196.98   10.94
  -7  -3   2  194.48   10.43
  -7  -3   3 2305.22   52.47
  -7  -3   4  147.11   10.28
  -7  -3   5  171.47   11.76
  -7  -3   6  148.32   11.19
  -7  -3   7 1776.10   48.47
  -7  -3   8  263.64   16.28
  -7  -3   9  976.57   35.07
  -7  -3  10   81.94   10.49
  -7  -3  11 1315.65   45.04
  -7  -3  12   50.99    9.71
  -7   3  12   28.08    6.95
  -7   3  13 1274.30   44.53
  -7  -3  13 1318.81   47.98
  -7   3  14   52.89    9.73
  -7  -3  14   58.28   11.66
  -7  -3  15   99.30   14.77
  -7  -5 -13  394.22   29.98
  -7  -5 -12   94.90   14.89
  -7  -5 -11  537.16   32.04
  -7  -5 -10   21.99    8.43
  -7   5 -10   22.86    5.23
  -7  -5  -9  900.33   38.85
  -7  -5  -8  472.26   26.45
  -7   5  -5 2036.51   56.46
  -7  -5  -4  592.21   22.86
  -7  -5  -3 2664.44   61.61
  -7  -5  -2  701.44   23.83
  -7  -5  -1 1263.04   34.96
  -7  -5  -1 1362.20   30.60
  -7  -5   0   27.49    4.57
  -7  -5   0   32.43    4.17
  -7  -5   1 2086.69   46.68
  -7  -5   1 2001.92   46.51
  -7  -5   2  545.00   18.35
  -7  -5   2  534.11   19.56
  -7  -5   3  678.67   23.82
  -7  -5   4   70.01    8.02
  -7  -5   5 1353.16   39.85
  -7  -5   6  279.82   16.61
  -7  -5   7 1668.71   48.45
  -7  -5   8  665.62   28.62
  -7  -5   9 1502.40   47.94
  -7  -5  10   43.37    9.21
  -7  -5  11  572.55   29.70
  -7  -5  12  216.62   19.34
  -7  -5  13  571.61   31.55
  -7  -5  14   67.86   12.73
  -7  -7 -11  595.44   34.72
  -7  -7 -10  227.07   21.04
  -7  -7  -9  318.07   23.63
  -7  -7  -8  171.06   16.87
  -7  -7  -7  742.53   33.95
  -7  -7  -3  619.21   23.46
  -7  -7  -2  214.10   12.69
  -7  -7  -2  230.15    8.87
  -7  -7  -1 2152.58   51.43
  -7  -7  -1 2238.26   47.55
  -7  -7   0  391.50   15.99
  -7  -7   0  383.76   15.39
  -7  -7   1  440.04   16.49
  -7  -7   1  473.18   18.34
  -7  -7   2  518.31   17.24
  -7  -7   2  501.24   20.33
  -7  -7   3  262.25   15.09
  -7  -7   4  405.75   19.85
  -7  -7   5  992.21   34.69
  -7  -7   6  290.78   18.32
  -7  -7   7  439.52   23.36
  -7  -7   8  279.77   19.45
  -7  -7   9  629.73   30.89
  -7  -7  10  354.13   23.73
  -7  -7  11  550.15   30.69
  -7  -7  12  230.54   20.77
  -7  -9  -9  234.55   20.92
  -7  -9  -8   78.60   12.78
  -7  -9  -7  149.81   15.66
  -7  -9  -6  411.53   24.74
  -7  -9  -5  449.84   24.82
  -7  -9  -3  723.34   17.01
  -7  -9  -2  411.65   18.72
  -7  -9  -2  445.44   14.91
  -7  -9  -1  544.07   21.07
  -7  -9  -1  599.06   20.08
  -7   9   0  590.56   23.78
  -7  -9   0  682.19   22.70
  -7  -9   0  696.68   23.47
  -7   9   1  885.53   30.99
  -7  -9   1  940.14   30.33
  -7  -9   1  934.15   26.68
  -7  -9   2  419.83   14.74
  -7  -9   2  378.46   19.20
  -7   9   2  345.91   19.07
  -7  -9   3  404.79   20.63
  -7  -9   4  653.68   28.30
  -7  -9   5  201.79   15.94
  -7  -9   6  216.15   17.44
  -7  -9   7  285.19   20.24
  -7  -9   8  223.46   19.11
  -7  -9   9  279.48   22.09
  -7  -9  10  496.98   30.46
  -7  -9  11  334.00   25.31
  -7 -11  -8  354.03   25.78
  -7 -11  -7  184.19   18.24
  -7 -11  -6  248.66   20.04
  -7 -11  -5  355.36   23.20
  -7 -11  -4  492.38   26.36
  -7 -11  -3  278.59   19.01
  -7 -11  -2  406.03   22.38
  -7 -11  -1   98.13    8.78
  -7 -11   0  257.04   14.83
  -7 -11   1  178.94   13.58
  -7 -11   2  256.66   16.90
  -7 -11   3  128.03   12.89
  -7 -11   4  396.79   23.20
  -7 -11   5  103.04   12.94
  -7 -11   6  297.92   21.66
  -7 -11   7  163.07   17.02
  -7 -11   8  292.11   23.33
  -7 -11   9   88.70   14.83
  -7 -13  -5  153.29   16.65
  -7 -13  -4  500.27   28.21
  -7 -13  -3   46.93    9.53
  -7 -13  -2  269.19   19.41
  -7 -13  -1  132.92   13.45
  -7 -13   0  313.94   19.51
  -7 -13   2  392.68   22.93
  -7 -13   3   66.51   11.05
  -7 -13   4  231.10   19.24
  -7 -13   5   30.30    9.04
  -7 -13   6  215.78   19.95
  -7 -13   7   26.59    9.86
  -6   0 -15    9.33    7.65
  -6   0 -14  490.70   29.13
  -6   0 -13    6.55    6.17
  -6   0 -12  561.88   29.32
  -6   0 -11   -5.01    5.37
  -6   0 -10 1652.00   50.93
  -6   0  -9   -2.68    5.21
  -6   0  -7   10.54    4.43
  -6   0  -6 2888.08   67.31
  -6   0  -5   -0.86    2.98
  -6   0  -4 5583.68  112.06
  -6   0  -3    2.21    2.58
  -6   0  -2  211.28   11.61
  -6   0  -1   -0.71    2.76
  -6   0   0  157.07    9.61
  -6   0   7    2.72    3.96
  -6   0   8 2390.32   58.56
  -6   0   9   -2.57    4.45
  -6   0  10  449.04   21.66
  -6   0  11    5.06    5.18
  -6   0  12  664.74   29.52
  -6   0  13   -9.98    7.08
  -6   0  14  129.01   14.09
  -6   0  15   -2.57    6.86
  -6   0  16  516.84   29.75
  -6  -2 -15   66.70   13.14
  -6  -2 -14  642.65   35.67
  -6   2 -14  600.94   30.18
  -6   2 -13   -0.54    5.55
  -6  -2 -13   11.38    7.71
  -6  -2 -12  987.91   42.31
  -6   2 -12  980.47   37.36
  -6  -2 -11   -2.14    5.71
  -6   2 -11    2.90    4.51
  -6  -2 -10 1175.96   43.26
  -6   2 -10 1178.76   38.82
  -6  -2  -9  238.16   17.57
  -6   2  -9  245.43   15.56
  -6   2  -7    6.60    4.31
  -6  -2  -6 2437.11   59.43
  -6   2  -6 2511.36   60.76
  -6   2  -5  172.36   11.93
  -6  -2  -5  180.57   11.59
  -6   2  -4 2665.82   62.49
  -6  -2  -4 2665.29   60.39
  -6   2  -3  120.87    9.78
  -6  -2  -3  138.47    9.49
  -6   2  -2 1962.91   48.60
  -6  -2  -2 1961.34   46.57
  -6  -2  -1   80.61    6.80
  -6   2  -1   78.28    7.67
  -6  -2   0 4978.44   93.02
  -6  -2   0 5007.13   97.28
  -6  -2   1 1398.10   31.32
  -6  -2   1 1225.79   32.41
  -6  -2   2 3832.71   75.99
  -6  -2   3  130.39    8.50
  -6  -2   4 6171.49  119.13
  -6  -2   5   27.12    5.13
  -6  -2   6 2209.20   53.75
  -6   2   6 2266.38   52.73
  -6   2   7  499.05   20.01
  -6  -2   7  476.18   20.91
  -6   2   8 1053.46   32.72
  -6  -2   8 1083.34   34.66
  -6   2   9   45.23    7.49
  -6  -2   9   64.13    8.81
  -6  -2  10  653.66   28.13
  -6   2  10  709.70   27.19
  -6  -2  11  149.36   13.86
  -6   2  11  144.40   12.79
  -6   2  12  505.47   24.52
  -6  -2  12  475.68   25.58
  -6   2  13   -3.88    5.51
  -6  -2  13   22.46    8.36
  -6  -2  14  268.14   21.03
  -6   2  14  285.39   19.65
  -6   2  15   -3.89    5.98
  -6  -2  15   -8.66    8.21
  -6   2  16  353.55   23.51
  -6   2  17   66.27   12.11
  -6  -4 -14  426.16   30.80
  -6  -4 -13   73.07   13.37
  -6   4 -12  943.68   33.45
  -6  -4 -12  950.79   43.74
  -6  -4 -11   55.80   11.44
  -6   4 -11   76.11    8.92
  -6  -4 -10  950.92   40.16
  -6   4 -10  973.90   32.13
  -6  -4  -9  216.35   17.46
  -6  -4  -8 1506.44   48.97
  -6   4  -7  162.64   12.88
  -6   4  -6 2083.79   54.94
  -6  -4  -5   38.03    5.82
  -6   4  -5   52.66    7.35
  -6  -4  -4  745.96   25.26
  -6   4  -4  750.76   27.32
  -6  -4  -3   40.80    5.42
  -6   4  -3   44.57    6.94
  -6  -4  -2 1678.28   40.96
  -6  -4  -1  120.41    8.03
  -6  -4  -1  124.85    6.22
  -6  -4   0 2231.32   48.51
  -6  -4   0 2172.44   45.77
  -6  -4   1  376.89   13.85
  -6  -4   1  342.50   13.32
  -6  -4   2 2210.91   47.10
  -6  -4   2 2177.33   49.30
  -6  -4   3 1033.30   29.72
  -6  -4   4 3321.29   72.14
  -6  -4   5  201.07   12.63
  -6  -4   6 1428.85   41.29
  -6  -4   7  246.93   15.67
  -6  -4   8 1841.48   51.86
  -6  -4   9  391.12   21.51
  -6  -4  10  674.39   30.25
  -6  -4  11   52.10    7.70
  -6  -4  11   56.20    9.77
  -6  -4  12  316.24   21.86
  -6  -4  13   77.94   12.81
  -6  -4  14  395.85   27.07
  -6  -4  15   63.80   12.37
  -6  -6 -12  330.04   26.71
  -6  -6 -11   61.16   12.07
  -6  -6 -10  740.29   37.13
  -6  -6  -9  181.78   17.27
  -6   6  -9  189.86   10.53
  -6  -6  -8 1514.21   51.46
  -6   6  -8 1516.32   36.57
  -6  -6  -7  690.55   31.12
  -6   6  -6 1663.67   48.94
  -6  -6  -4 1480.38   40.38
  -6  -6  -3  561.99   20.98
  -6  -6  -2  595.07   15.29
  -6  -6  -2  571.22   20.47
  -6  -6  -1  619.78   20.66
  -6  -6  -1  667.45   18.50
  -6  -6   0 1003.07   27.24
  -6  -6   0 1047.35   27.51
  -6  -6   1  159.43    8.60
  -6  -6   1  153.05    9.68
  -6  -6   2 1326.93   36.04
  -6  -6   2 1344.32   31.15
  -6  -6   3 1316.96   37.37
  -6  -6   4 1531.11   42.67
  -6  -6   5  490.46   22.07
  -6  -6   6 2266.95   59.68
  -6  -6   7  287.88   18.35
  -6  -6   8 1169.08   41.07
  -6  -6   9  258.30   18.42
  -6  -6  10  378.67   23.82
  -6  -6  11   44.06   10.16
  -6  -6  12  191.74   18.50
  -6  -6  13   41.33   10.79
  -6  -8 -11  168.63   19.23
  -6  -8 -10  640.63   35.29
  -6  -8  -9  427.30   27.40
  -6  -8  -8  470.30   27.31
  -6  -8  -7   56.16   10.02
  -6  -8  -6  715.89   31.72
  -6  -8  -5  694.62   30.17
  -6  -8  -3  376.23   17.60
  -6  -8  -3  362.93   10.43
  -6  -8  -2  335.73   12.16
  -6  -8  -2  316.15   15.28
  -6  -8  -1   70.71    7.01
  -6  -8  -1   66.49    6.27
  -6  -8   0 1613.39   38.93
  -6  -8   0 1620.23   40.78
  -6  -8   1 1256.73   31.25
  -6  -8   1 1307.38   36.50
  -6   8   1 1279.46   36.91
  -6   8   2  533.06   22.55
  -6  -8   2  560.54   22.64
  -6  -8   2  551.73   16.45
  -6  -8   3  443.84   12.01
  -6  -8   3  504.53   22.15
  -6   8   3  475.14   21.76
  -6  -8   4  793.24   30.15
  -6  -8   5  500.49   24.33
  -6  -8   6  884.11   34.48
  -6  -8   7  493.93   26.08
  -6  -8   8  258.95   19.50
  -6  -8   9  119.50   14.09
  -6  -8  10  331.76   23.57
  -6  -8  11  235.34   21.10
  -6  -8  12  282.88   23.64
  -6 -10  -9  313.18   24.20
  -6 -10  -8  172.44   17.86
  -6 -10  -7  306.31   22.52
  -6 -10  -6  592.64   30.07
  -6 -10  -5  571.13   28.04
  -6 -10  -4  154.99   14.06
  -6 -10  -3  291.66   18.35
  -6 -10  -3  326.94   11.69
  -6 -10  -2  366.04   20.25
  -6 -10  -2  355.76   17.22
  -6 -10  -2  375.90   15.11
  -6 -10  -1  397.16   17.19
  -6  10  -1  382.43   16.69
  -6 -10  -1  423.88   17.78
  -6 -10   0  232.72   12.14
  -6 -10   0  261.50   14.68
  -6  10   0  240.43   13.86
  -6 -10   1  491.49   22.10
  -6  10   1  495.79   21.74
  -6 -10   1  496.08   17.06
  -6  10   2  219.38   14.86
  -6 -10   2  207.45    9.31
  -6 -10   2  249.94   16.19
  -6 -10   3  832.31   32.53
  -6 -10   4  473.46   24.60
  -6 -10   5  662.29   30.22
  -6 -10   6  223.54   18.41
  -6 -10   7  298.83   21.79
  -6 -10   8  262.79   21.28
  -6 -10   9  230.03   20.82
  -6 -10  10  209.68   20.38
  -6 -12  -7  444.52   28.02
  -6 -12  -6  195.22   18.12
  -6 -12  -5  394.94   24.91
  -6 -12  -4  119.90   13.30
  -6 -12  -3  231.04   17.56
  -6 -12  -2  133.18   13.37
  -6 -12  -1  431.33   22.21
  -6 -12   0   55.14    8.58
  -6 -12   0   64.37    8.75
  -6 -12   1  173.86   14.31
  -6 -12   1  175.88   13.03
  -6 -12   2   50.43    8.98
  -6 -12   2   51.01    7.33
  -6 -12   3  575.67   28.45
  -6 -12   4  324.63   22.27
  -6 -12   5  456.27   27.11
  -6 -12   6  142.42   16.74
  -6 -12   7  254.38   21.90
  -6 -12   8   54.69   11.98
  -6 -14  -5  277.42   22.02
  -6 -14  -4   52.01   10.24
  -6 -14  -3  183.38   16.82
  -6 -14  -2   18.45    7.07
  -6 -14   3  233.26   19.70
  -6 -14   4    7.10    7.50
  -6 -14   5  259.45   22.31
  -6 -14   6   24.12    9.16
  -5  -1 -15  623.53   34.79
  -5  -1 -14   81.61   12.89
  -5   1 -14   79.22   12.03
  -5   1 -13 1368.58   47.99
  -5  -1 -13 1432.84   51.91
  -5  -1 -12   13.42    6.69
  -5   1 -12   16.57    6.36
  -5   1 -11  797.57   32.19
  -5  -1 -11  810.45   34.79
  -5   1 -10   23.21    5.75
  -5  -1 -10   17.82    6.57
  -5   1  -9 1354.29   41.63
  -5  -1  -9 1435.54   44.69
  -5  -1  -8   68.08    8.79
  -5   1  -8   79.08    8.85
  -5  -1  -7 1594.05   43.49
  -5   1  -7 1641.98   43.97
  -5  -1  -6  160.97   10.81
  -5   1  -6  146.46   10.55
  -5  -1  -5 2260.16   52.98
  -5   1  -5 2282.95   53.81
  -5   1  -4  305.02   14.49
  -5  -1  -4  329.91   14.41
  -5  -1  -3 6963.22  132.34
  -5   1  -3 7046.40  133.38
  -5   1  -2  589.72   20.00
  -5  -1  -2  603.12   19.49
  -5   1  -1 5783.12  113.29
  -5  -1  -1 6020.95  112.09
  -5   1   0    9.53    3.11
  -5  -1   0    8.16    2.72
  -5  -1   1 3849.95   75.07
  -5  -1   1 3754.11   72.37
  -5  -1   2  366.97   12.94
  -5  -1   7 1214.54   34.89
  -5   1   7 1207.28   34.07
  -5   1   8  493.76   20.32
  -5  -1   8  502.12   21.14
  -5   1   9  931.54   33.93
  -5  -1   9  972.34   32.54
  -5   1   9  928.82   31.06
  -5  -1  10    0.70    3.60
  -5  -1  10    2.74    4.82
  -5   1  10    0.62    4.36
  -5   1  11  738.88   28.88
  -5  -1  11  735.84   29.90
  -5   1  12   51.90    8.37
  -5  -1  12   62.48    9.69
  -5  -1  13 1507.91   49.27
  -5   1  13 1514.14   47.91
  -5  -1  14   -2.72    7.23
  -5   1  14   -2.83    5.96
  -5   1  15  642.59   30.95
  -5  -1  15  648.05   32.20
  -5  -1  16   -2.09    7.44
  -5   1  16    0.47    6.88
  -5   1  17  358.75   24.67
  -5  -3 -15 1094.48   50.13
  -5  -3 -14  102.00   15.12
  -5   3 -13  800.11   32.27
  -5  -3 -13  778.33   38.97
  -5   3 -12   33.64    7.02
  -5  -3 -12   31.18    8.87
  -5  -3 -11 1136.43   44.88
  -5   3 -11 1113.12   36.90
  -5  -3 -10   83.44   11.83
  -5   3 -10   69.12    8.36
  -5  -3  -9 1170.45   41.65
  -5  -3  -8  235.79   16.79
  -5   3  -8  241.12   15.10
  -5   3  -7  419.79   19.62
  -5   3  -6   86.28    8.58
  -5  -3  -6   85.37    8.11
  -5   3  -5 1979.83   48.98
  -5  -3  -5 1891.54   47.53
  -5  -3  -4  173.87   10.52
  -5   3  -4  168.42   11.03
  -5  -3  -3 3392.44   70.20
  -5   3  -3 3365.21   72.85
  -5  -3  -2  298.63   12.65
  -5   3  -2  320.29   14.94
  -5  -3  -1 7077.09  125.14
  -5  -3  -1 6957.48  130.19
  -5  -3   0  506.59   14.47
  -5  -3   0  414.81   15.33
  -5  -3   1 9999.00  177.11
  -5  -3   1 9754.30  176.82
  -5  -3   2 1440.70   31.76
  -5  -3   2 1387.46   33.75
  -5  -3   3 2664.23   57.35
  -5  -3   4  159.78   10.25
  -5  -3   5  976.55   29.69
  -5  -3   6   -2.26    3.90
  -5  -3   7  758.96   27.33
  -5   3   8  224.59   13.26
  -5   3   8  211.37   15.35
  -5  -3   8  237.92   15.21
  -5   3   9  674.32   24.88
  -5  -3   9  665.05   27.58
  -5  -3  10    3.18    5.41
  -5  -3  10    8.09    4.38
  -5   3  10    2.96    4.05
  -5   3  11 1719.16   48.05
  -5  -3  11 1654.12   47.75
  -5  -3  11 1747.86   52.90
  -5  -3  12   39.49    9.12
  -5   3  12   44.45    7.76
  -5   3  13  667.94   28.71
  -5  -3  13  694.47   32.87
  -5   3  14   77.64   10.97
  -5  -3  14   86.24   13.60
  -5   3  15  727.81   32.33
  -5  -3  15  761.00   36.87
  -5   3  16   38.59    9.27
  -5  -5 -13  777.39   40.51
  -5  -5 -12   56.99   11.85
  -5  -5 -11  710.77   36.09
  -5  -5 -10  199.91   18.01
  -5  -5  -9  914.25   37.82
  -5   5  -9  966.95   27.90
  -5   5  -8  109.89    7.68
  -5  -5  -8  102.46   11.74
  -5   5  -8  112.09   10.69
  -5  -5  -7 1413.73   45.77
  -5   5  -7 1466.60   42.73
  -5   5  -6  547.43   22.92
  -5   5  -5 2036.73   52.17
  -5  -5  -5 1985.74   49.95
  -5  -5  -4  147.30    9.79
  -5  -5  -3 1173.67   32.06
  -5  -5  -2  206.18   10.55
  -5  -5  -2  208.86    7.00
  -5  -5  -1 4151.54   80.70
  -5  -5  -1 4073.35   77.03
  -5  -5   0 1893.14   43.13
  -5  -5   0 2189.34   44.22
  -5  -5   1 2490.71   53.86
  -5  -5   1 2499.47   50.53
  -5  -5   2  320.58   10.70
  -5  -5   2  332.28   14.37
  -5  -5   3 1295.68   35.52
  -5  -5   4  487.89   20.11
  -5   5   5  574.32   23.79
  -5  -5   5  609.28   23.99
  -5   5   6  314.61   17.97
  -5  -5   6  308.76   17.26
  -5  -5   7  721.37   28.73
  -5  -5   8    7.56    5.31
  -5  -5   9 1081.91   39.43
  -5  -5  10  199.48   12.24
  -5  -5  10  186.14   15.81
  -5  -5  11  534.13   21.76
  -5  -5  11  543.61   28.30
  -5  -5  12   77.67   11.75
  -5  -5  13  569.72   31.73
  -5  -5  14   91.99   14.37
  -5  -7 -12  127.20   16.93
  -5  -7 -11  249.04   22.21
  -5  -7 -10  161.95   16.98
  -5  -7  -9  560.59   30.03
  -5  -7  -8  145.08   14.92
  -5  -7  -7 1260.07   44.10
  -5   7  -7 1262.19   25.83
  -5  -7  -6  297.20   18.85
  -5  -7  -5  161.98   13.32
  -5  -7  -4 1171.60   34.40
  -5  -7  -3 1349.50   35.86
  -5  -7  -3 1295.27   26.71
  -5  -7  -2 1125.25   31.46
  -5  -7  -2 1187.56   27.31
  -5  -7  -1 2076.32   46.90
  -5  -7  -1 2077.94   45.63
  -5  -7   0  837.06   23.00
  -5  -7   0  830.68   24.87
  -5  -7   1 1123.99   27.10
  -5  -7   1 1144.02   32.41
  -5  -7   2  758.95   18.83
  -5  -7   2  733.53   25.66
  -5   7   2  732.42   25.64
  -5  -7   3 2480.60   55.70
  -5   7   3 2401.26   54.96
  -5  -7   4  132.62   11.25
  -5   7   4  113.52   10.32
  -5  -7   5  465.86   22.35
  -5   7   5  460.71   22.44
  -5  -7   6  131.12   12.73
  -5  -7   7  713.71   31.02
  -5  -7   8  287.61   19.73
  -5  -7   9  683.00   32.34
  -5  -7  10  109.09   13.85
  -5  -7  11  320.70   23.74
  -5  -7  12  379.74   26.31
  -5  -7  13  384.23   27.60
  -5  -9 -11  372.37   27.94
  -5  -9 -10  238.20   21.85
  -5  -9  -9  382.44   25.98
  -5  -9  -8  284.56   21.48
  -5  -9  -7  153.35   15.53
  -5  -9  -6  221.08   17.15
  -5  -9  -5  604.04   27.80
  -5  -9  -4  471.40   22.89
  -5  -9  -4  439.18   11.00
  -5  -9  -3  438.56   21.91
  -5   9  -3  451.22   14.27
  -5  -9  -3  493.52   15.33
  -5  -9  -3  479.30   20.18
  -5  -9  -2  988.03   26.85
  -5  -9  -2  975.65   29.38
  -5  -9  -2  908.85   31.95
  -5   9  -2  930.22   25.60
  -5   9  -1  721.77   23.37
  -5  -9  -1  770.08   24.12
  -5  -9  -1  772.94   24.70
  -5   9   0  445.89   18.14
  -5  -9   0  426.37   15.82
  -5  -9   0  415.09   18.55
  -5  -9   1  946.34   24.77
  -5   9   1  941.47   30.43
  -5  -9   1  987.08   31.98
  -5  -9   2 1248.66   28.23
  -5   9   2 1255.83   37.89
  -5  -9   2 1251.49   38.86
  -5   9   3  402.95   20.27
  -5  -9   3  437.29   21.94
  -5  -9   4  344.17   19.97
  -5  -9   5  258.15   18.12
  -5  -9   6  156.47   15.05
  -5  -9   7  203.42   17.51
  -5  -9   8  357.46   24.11
  -5  -9   9  352.15   24.34
  -5  -9  10   51.81   10.86
  -5  -9  11  283.17   23.68
  -5  -9  12  313.21   25.33
  -5 -11  -9   74.71   13.68
  -5 -11  -8  266.53   21.74
  -5 -11  -7  193.26   17.84
  -5 -11  -6  459.47   26.50
  -5 -11  -5  276.63   19.90
  -5 -11  -4  345.29   21.01
  -5 -11  -3  141.19    9.14
  -5 -11  -3  136.96   12.86
  -5 -11  -2  562.46   21.96
  -5 -11  -2  487.03   23.66
  -5 -11  -2  530.50   20.50
  -5 -11  -1  387.75   18.71
  -5 -11  -1  386.02   17.17
  -5 -11  -1  372.67   19.55
  -5 -11   0  797.37   29.07
  -5 -11   0  851.77   30.72
  -5 -11   1  119.59    9.84
  -5  11   1  110.86   10.04
  -5 -11   1  107.82   11.27
  -5 -11   2  289.57   15.02
  -5  11   2  317.09   17.94
  -5 -11   2  335.37   20.14
  -5 -11   3  194.46   11.48
  -5 -11   3  199.26   16.19
  -5 -11   4  683.49   31.97
  -5 -11   4  701.83   22.20
  -5 -11   5  467.36   26.46
  -5 -11   6  231.50   19.35
  -5 -11   7  102.35   14.26
  -5 -11   8  194.10   19.81
  -5 -11   9  193.62   19.99
  -5 -11  10  289.84   24.93
  -5 -13  -7  107.29   14.88
  -5 -13  -6  406.03   25.99
  -5 -13  -5   19.14    7.87
  -5 -13  -4  259.40   19.59
  -5 -13  -3  114.12   13.08
  -5 -13  -2  375.77   21.98
  -5 -13  -1   79.32   10.22
  -5 -13   0  588.42   25.92
  -5 -13   0  565.22   26.65
  -5 -13   1   32.81    8.43
  -5 -13   2  374.70   23.50
  -5 -13   3  189.30   17.41
  -5 -13   4  168.54   16.92
  -5 -13   5  106.25   15.13
  -5 -13   6  203.82   20.46
  -5 -13   7   49.95   12.29
  -5 -15   4  240.20   21.84
  -4   0 -14  137.76   15.33
  -4   0 -13    2.02    6.00
  -4   0 -12  839.48   35.27
  -4   0 -11   -0.50    5.91
  -4   0 -10 1691.71   49.96
  -4   0  -9   -0.63    3.95
  -4   0  -8 2046.13   53.56
  -4   0  -8 2148.28   52.84
  -4   0  -7   -0.59    2.69
  -4   0  -6 8103.56  153.40
  -4   0  -5   -0.98    2.62
  -4   0  -4 8175.03  151.55
  -4   0  -3    1.44    2.42
  -4   0  -2 7110.14  131.31
  -4   0  -1    1.01    2.28
  -4   0   0 1915.44   41.24
  -4   0   7   -0.48    2.30
  -4   0   8 2890.29   66.77
  -4   0   8 2761.82   63.95
  -4   0   9    1.88    3.25
  -4   0   9    2.41    4.28
  -4   0  10 1227.64   38.33
  -4   0  10 1310.68   41.02
  -4   0  11   -1.72    4.74
  -4   0  12  571.90   26.02
  -4   0  13  -10.87    6.67
  -4   0  14  819.35   34.49
  -4   0  15    6.32    7.09
  -4   0  16  315.29   22.32
  -4   0  17   -4.82    7.73
  -4  -2 -14  775.02   38.64
  -4  -2 -13   18.53    8.00
  -4   2 -13    8.89    5.87
  -4  -2 -12  345.64   22.94
  -4   2 -12  316.82   19.17
  -4   2 -11    4.38    4.75
  -4  -2 -11    2.36    5.85
  -4   2 -10 1682.64   47.37
  -4  -2 -10 1729.79   53.52
  -4  -2  -9    9.59    4.92
  -4   2  -9   10.98    4.34
  -4   2  -9    5.71    4.24
  -4  -2  -8 2695.09   67.34
  -4   2  -8 2658.74   63.06
  -4  -2  -7  431.17   20.59
  -4   2  -7  442.66   18.78
  -4  -2  -7  418.26   18.55
  -4  -2  -6 2795.17   62.87
  -4   2  -6 2819.58   63.29
  -4  -2  -5  124.75    8.68
  -4   2  -5  126.11    8.78
  -4  -2  -4 5153.93  101.36
  -4   2  -4 5294.60  102.51
  -4  -2  -3  124.73    7.67
  -4   2  -3  123.30    8.20
  -4   2  -2 3687.80   73.89
  -4  -2  -2 3625.10   71.76
  -4  -2  -1  887.14   22.25
  -4   2  -1  843.18   24.28
  -4  -2   0  983.47   21.85
  -4  -2   0  996.44   23.63
  -4  -2   1  146.06    6.65
  -4  -2   1  141.51    6.67
  -4  -2   2 1136.87   27.39
  -4   2   5    4.05    2.81
  -4   2   7    1.49    3.47
  -4   2   8 2813.26   62.86
  -4  -2   8 2701.94   65.61
  -4   2   8 2849.09   68.17
  -4  -2   9  471.46   20.11
  -4   2   9  507.41   23.64
  -4  -2   9  456.25   21.47
  -4   2   9  454.93   19.55
  -4   2  10 1082.08   34.28
  -4  -2  10 1117.09   35.24
  -4  -2  10 1070.40   36.78
  -4  -2  11  144.35   13.41
  -4   2  11  140.64   11.87
  -4  -2  11  149.98   12.09
  -4   2  12 1386.97   43.02
  -4  -2  12 1452.80   46.83
  -4  -2  13   10.87    7.86
  -4   2  13   -1.71    5.47
  -4   2  14  364.54   21.66
  -4  -2  14  382.54   23.88
  -4  -2  15   31.63    8.81
  -4   2  15   11.14    6.93
  -4  -2  16  333.52   23.95
  -4   2  16  344.04   22.33
  -4   2  17    9.57    6.69
  -4  -4 -14  719.35   38.91
  -4  -4 -13   20.18    9.06
  -4  -4 -12  249.01   21.11
  -4   4 -11   64.29    7.65
  -4  -4 -11   66.88   11.10
  -4  -4 -10 1220.39   45.39
  -4  -4  -9  645.31   29.77
  -4   4  -9  644.18   22.01
  -4   4  -9  600.60   24.82
  -4   4  -8 2217.16   56.33
  -4  -4  -8 2269.58   61.94
  -4   4  -8 2263.28   51.03
  -4  -4  -7  432.64   21.75
  -4   4  -7  455.12   19.55
  -4   4  -7  442.97   15.76
  -4  -4  -6 2516.18   59.00
  -4   4  -6 2512.57   59.04
  -4  -4  -6 2503.60   62.67
  -4   4  -5  862.79   27.60
  -4  -4  -5  920.16   27.80
  -4   4  -4 5629.70  112.09
  -4  -4  -4 5747.16  110.86
  -4  -4  -3   99.45    7.25
  -4   4  -3   94.34    8.01
  -4  -4  -2 2645.22   48.18
  -4  -4  -2 2677.32   55.31
  -4  -4  -1   10.29    2.43
  -4  -4  -1    7.05    1.88
  -4  -4   0 1951.98   40.68
  -4  -4   0 2005.37   41.33
  -4  -4   1 1867.29   40.84
  -4  -4   1 1827.30   37.27
  -4  -4   2 3518.94   72.64
  -4  -4   2 3592.67   65.76
  -4  -4   3  558.73   19.65
  -4  -4   4   91.79    8.26
  -4   4   5   15.51    4.43
  -4  -4   5   15.37    4.73
  -4  -4   6 3111.38   72.88
  -4   4   6 3291.17   74.34
  -4  -4   7  684.18   27.16
  -4   4   7  737.53   28.07
  -4  -4   8 2604.13   65.66
  -4  -4   9   19.88    4.08
  -4  -4   9   24.49    6.68
  -4  -4  10  695.85   30.14
  -4  -4  10  692.97   24.48
  -4  -4  11   16.11    6.61
  -4  -4  11   28.94    5.95
  -4  -4  12 1112.82   35.63
  -4  -4  12 1179.13   43.59
  -4  -4  13   97.21   13.21
  -4  -4  14  234.87   20.43
  -4  -4  15   41.18   10.80
  -4  -6 -13   48.26   11.37
  -4  -6 -12  405.22   28.58
  -4  -6 -11   59.31   11.96
  -4  -6 -10  678.02   33.87
  -4  -6  -9  513.33   28.09
  -4   6  -9  522.65   23.41
  -4   6  -8 1174.79   36.69
  -4  -6  -8 1132.31   41.46
  -4   6  -7  462.74   12.74
  -4   6  -7  478.08   20.94
  -4  -6  -7  435.02   23.31
  -4  -6  -6 3251.52   77.40
  -4   6  -6 3142.51   59.58
  -4   6  -6 3361.27   73.39
  -4  -6  -5  558.84   24.12
  -4  -6  -5  590.66   22.22
  -4  -6  -4 1153.40   32.67
  -4  -6  -3 1250.40   25.24
  -4  -6  -3 1289.22   33.60
  -4  -6  -2 1402.77   30.50
  -4  -6  -2 1407.42   34.91
  -4  -6  -1   41.61    4.45
  -4  -6  -1   49.91    4.78
  -4  -6   0 1330.24   32.92
  -4  -6   0 1327.65   30.49
  -4  -6   1  284.15   13.22
  -4  -6   1  279.50    9.71
  -4  -6   2  784.19   25.93
  -4   6   2  842.80   26.03
  -4  -6   2  827.84   18.59
  -4  -6   3   37.91    6.04
  -4   6   3   25.52    4.83
  -4   6   4 1390.20   39.62
  -4  -6   4 1415.54   40.28
  -4   6   5  110.16   10.13
  -4  -6   5  125.23   11.25
  -4  -6   6 1088.79   36.81
  -4   6   6 1133.89   37.28
  -4  -6   7  950.13   35.01
  -4  -6   8 1546.13   49.06
  -4  -6   9  104.79    7.56
  -4  -6   9  109.95   12.55
  -4  -6  10 1019.17   39.94
  -4  -6  10  953.88   27.40
  -4  -6  11  430.26   26.21
  -4  -6  12  207.72   19.40
  -4  -6  13  133.25   16.98
  -4  -6  14  385.44   27.70
  -4  -8 -12  310.83   25.47
  -4  -8 -11  287.94   23.76
  -4  -8 -10  350.15   25.08
  -4  -8  -9  249.21   20.26
  -4  -8  -8  573.75   29.87
  -4  -8  -7  498.93   26.22
  -4  -8  -6 1090.08   39.32
  -4  -8  -5 1112.15   38.08
  -4  -8  -4  434.34   18.52
  -4  -8  -4  450.11   21.18
  -4  -8  -4  401.26   11.45
  -4  -8  -3  901.59   30.84
  -4   8  -3  867.42   20.83
  -4  -8  -3  938.68   28.20
  -4  -8  -3  914.26   23.05
  -4  -8  -2 1036.71   32.67
  -4  -8  -2 1105.78   28.56
  -4  -8  -2 1080.62   29.91
  -4   8  -2 1024.61   25.91
  -4   8  -1 1171.12   30.50
  -4  -8  -1 1221.83   31.62
  -4  -8  -1 1253.61   33.10
  -4  -8   0  869.72   23.62
  -4  -8   0  854.68   27.47
  -4   8   0  860.25   25.67
  -4   8   1  163.36   10.63
  -4  -8   1  198.68   12.66
  -4  -8   1  180.49    8.26
  -4  -8   2  483.40   13.33
  -4   8   2  517.56   20.64
  -4  -8   2  487.80   21.51
  -4  -8   3  183.68   13.48
  -4   8   3  180.92   12.57
  -4  -8   4 1126.41   38.13
  -4   8   4 1119.05   36.45
  -4  -8   5  435.83   22.81
  -4  -8   6  518.30   25.84
  -4  -8   7  597.00   29.10
  -4  -8   8  733.14   18.53
  -4  -8   8  760.04   33.90
  -4  -8   9  331.61   22.86
  -4  -8  10  551.40   30.77
  -4  -8  11  174.52   18.67
  -4  -8  12  197.69   20.57
  -4  -8  13  226.01   21.96
  -4 -10 -10  190.75   19.67
  -4 -10  -9  386.03   26.36
  -4 -10  -8  265.86   20.91
  -4 -10  -7  693.37   32.83
  -4 -10  -6  215.27   17.59
  -4 -10  -5  370.48   21.57
  -4 -10  -4  806.18   32.13
  -4 -10  -4  832.74   22.70
  -4 -10  -3  474.85   23.10
  -4 -10  -3  492.20   18.16
  -4 -10  -2  469.36   19.13
  -4 -10  -2  454.36   21.32
  -4 -10  -2  476.25   19.26
  -4 -10  -1  539.74   21.89
  -4 -10  -1  504.23   19.01
  -4 -10  -1  507.88   21.95
  -4 -10   0  268.18   15.91
  -4 -10   0  267.83   12.50
  -4 -10   0  255.40   14.38
  -4  10   0  259.01   13.73
  -4 -10   1  186.07    9.23
  -4  10   1  173.77   11.86
  -4 -10   1  183.98   11.48
  -4 -10   1  194.23   14.31
  -4 -10   2  580.36   16.25
  -4 -10   2  570.10   20.30
  -4 -10   2  609.53   26.73
  -4  10   2  583.25   23.69
  -4 -10   3  484.77   16.43
  -4  10   3  495.56   22.08
  -4 -10   3  496.76   24.08
  -4 -10   4   87.15    6.30
  -4 -10   4   72.55   10.55
  -4 -10   5  599.15   16.94
  -4 -10   5  633.64   30.75
  -4 -10   6  623.22   30.98
  -4 -10   7  400.46   25.84
  -4 -10   8  432.60   27.53
  -4 -10   9  236.79   21.18
  -4 -10  10  121.84   16.68
  -4 -10  11  256.67   23.17
  -4 -12  -8   54.29   11.41
  -4 -12  -7  435.00   27.06
  -4 -12  -6  112.44   13.17
  -4 -12  -5  469.65   26.19
  -4 -12  -4  100.25   12.00
  -4 -12  -3  593.59   27.72
  -4 -12  -2  143.29   11.65
  -4 -12  -2  123.10   12.32
  -4 -12  -1  375.17   20.27
  -4 -12  -1  438.00   21.47
  -4 -12   0  109.66   10.54
  -4 -12   0  124.15   12.57
  -4 -12   1  412.24   23.30
  -4 -12   1  374.99   18.36
  -4 -12   2   69.91   10.58
  -4 -12   2   66.69    7.52
  -4 -12   3  298.83   21.24
  -4 -12   4  346.86   23.58
  -4 -12   5  275.17   21.63
  -4 -12   6  130.82   15.74
  -4 -12   7  516.44   31.46
  -4 -12   8  138.93   17.40
  -4 -12   9  220.45   22.35
  -4 -14  -6   58.78   11.98
  -4 -14  -5  300.78   22.11
  -4 -14  -4   34.29    9.10
  -4 -14  -3  234.83   18.16
  -4 -14  -2   50.49    9.24
  -4 -14   1  303.42   21.72
  -4 -14   2   54.61   11.32
  -4 -14   3  238.42   20.87
  -4 -14   4   71.52   13.01
  -4 -14   5  213.83   20.75
  -4 -14   6   50.14   12.33
  -3  -1 -13  743.10   34.70
  -3   1 -12   43.60    8.31
  -3  -1 -12   28.96    7.77
  -3  -1 -11 3229.22   81.46
  -3   1 -11 3188.55   77.74
  -3  -1 -10  133.18   12.61
  -3   1 -10  149.64   12.42
  -3   1  -9 3396.73   76.64
  -3   1  -9 3368.14   75.47
  -3  -1  -9 3350.34   79.68
  -3   1  -8   14.33    4.20
  -3  -1  -8   16.19    5.08
  -3  -1  -8   10.07    4.15
  -3  -1  -7 1588.30   41.26
  -3   1  -7 1645.47   41.34
  -3   1  -7 1594.69   40.63
  -3   1  -6   62.20    5.96
  -3  -1  -6   65.30    6.40
  -3  -1  -5 1961.34   45.37
  -3   1  -5 2050.66   45.44
  -3  -1  -4 1712.82   38.27
  -3   1  -4 1600.43   37.74
  -3  -1  -3 1534.64   34.05
  -3   1  -3 1465.17   34.32
  -3  -1  -2   38.90    3.79
  -3   1  -2   37.95    4.01
  -3   1  -1 4460.60   83.92
  -3  -1  -1 4468.70   82.66
  -3  -1   0  178.04    6.01
  -3  -1   0  178.74    6.99
  -3  -1   1 6797.72  120.23
  -3  -1   1 6682.85  120.09
  -3   1   5 7461.86  137.95
  -3   1   6    8.97    3.11
  -3   1   6   12.07    3.79
  -3  -1   7 2274.23   52.79
  -3   1   7 2304.60   54.86
  -3  -1   8   -7.24    4.42
  -3   1   8    0.99    2.28
  -3  -1   8    0.20    3.20
  -3   1   8   -0.23    3.14
  -3   1   9  247.07   13.67
  -3  -1   9  216.41   13.75
  -3   1   9  230.30   14.52
  -3  -1   9  231.52   13.91
  -3  -1  10   45.89    7.71
  -3  -1  10   63.82    7.63
  -3   1  10   54.54    7.37
  -3  -1  11 1952.24   53.24
  -3   1  11 1908.83   51.50
  -3  -1  11 1945.50   53.78
  -3   1  12   86.70    9.83
  -3  -1  12   91.63   10.77
  -3   1  13 1026.99   36.37
  -3  -1  13  979.43   37.58
  -3  -1  14   61.12   10.52
  -3   1  14   34.28    7.97
  -3  -1  15  919.26   38.49
  -3   1  15  931.23   36.74
  -3  -1  16    5.00    6.94
  -3   1  16   13.89    7.05
  -3   1  17  636.83   31.42
  -3  -1  17  593.98   32.32
  -3  -3 -14   45.95   11.16
  -3  -3 -13 1171.80   47.74
  -3  -3 -12  106.98   13.59
  -3  -3 -11 1910.81   59.35
  -3  -3 -10  194.71   16.01
  -3   3 -10  189.53   13.02
  -3  -3  -9 2428.69   65.91
  -3   3  -9 2506.83   59.91
  -3   3  -8   73.67    6.88
  -3  -3  -8   66.08    8.67
  -3   3  -8   59.82    6.93
  -3  -3  -7 3166.52   71.55
  -3  -3  -7 3167.61   74.98
  -3   3  -7 3267.94   70.05
  -3   3  -7 3221.10   66.42
  -3   3  -6  205.21   11.22
  -3   3  -6  204.48    9.71
  -3  -3  -6  215.63   12.17
  -3  -3  -5  775.04   23.91
  -3   3  -5  726.69   22.71
  -3  -3  -4  157.68    9.10
  -3   3  -4  160.58    9.08
  -3  -3  -3 3846.74   74.78
  -3   3  -3 3741.79   75.44
  -3   3  -2  489.01   16.49
  -3  -3  -2  477.32   14.77
  -3  -3  -1 1182.71   23.57
  -3  -3  -1 1153.06   26.23
  -3  -3   0  560.83   14.64
  -3  -3   0  580.16   14.97
  -3  -3   1 3317.57   65.28
  -3  -3   1 3399.04   61.61
  -3  -3   2 1372.23   32.69
  -3  -3   2 1401.61   26.87
  -3  -3   3 4521.85   88.98
  -3   3   5 2107.57   50.36
  -3   3   6  765.72   26.34
  -3   3   7 2331.61   57.88
  -3  -3   8   24.72    5.79
  -3   3   8   26.16    5.96
  -3  -3   8   27.93    4.80
  -3   3   9  746.26   24.82
  -3  -3   9  747.09   24.76
  -3  -3   9  719.96   28.82
  -3   3  10  153.86   11.04
  -3  -3  10  148.68   10.98
  -3  -3  10  149.04   13.07
  -3  -3  11  876.01   34.22
  -3   3  11  850.17   29.22
  -3  -3  11  856.08   29.35
  -3   3  12  140.89   11.83
  -3  -3  12  135.36   11.34
  -3  -3  12  109.32   12.89
  -3   3  13 1001.62   34.62
  -3  -3  13  993.90   40.08
  -3  -3  14   10.22    7.02
  -3   3  14   20.17    7.18
  -3  -3  15  561.66   31.35
  -3   3  15  561.42   26.54
  -3  -3  16   52.89   12.43
  -3   3  16   54.85   10.11
  -3  -5 -14   71.96   13.79
  -3  -5 -13  823.17   41.17
  -3  -5 -12  416.39   27.33
  -3  -5 -11 1291.80   48.77
  -3  -5 -10  331.84   22.56
  -3   5 -10  347.85   18.12
  -3  -5  -9 1130.20   41.37
  -3   5  -9 1125.64   34.92
  -3   5  -8  992.00   31.02
  -3  -5  -8  951.76   36.41
  -3  -5  -7 1766.90   51.38
  -3   5  -7 1719.62   45.33
  -3   5  -7 1859.40   37.83
  -3  -5  -6  336.29   18.21
  -3   5  -6  329.85   10.16
  -3  -5  -6  348.10   16.21
  -3   5  -6  324.27   15.20
  -3  -5  -5 1223.44   33.52
  -3   5  -5 1168.54   24.80
  -3  -5  -5 1232.28   36.54
  -3   5  -5 1291.11   33.65
  -3  -5  -4   14.39    3.47
  -3  -5  -4   19.56    4.70
  -3  -5  -3  722.98   21.33
  -3  -5  -3  682.48   14.98
  -3  -5  -2  469.35   12.88
  -3  -5  -2  480.22   15.46
  -3  -5  -1 2815.51   56.42
  -3  -5  -1 2848.62   56.15
  -3  -5   0   36.35    3.38
  -3  -5   0   33.38    4.20
  -3  -5   1 3064.79   57.26
  -3  -5   1 3105.14   64.26
  -3  -5   2  803.36   17.00
  -3   5   2  892.90   24.99
  -3  -5   2  848.93   25.57
  -3   5   3 3451.86   73.03
  -3  -5   3 3457.19   74.41
  -3  -5   4 1283.66   36.89
  -3   5   4 1317.00   36.29
  -3   5   5 2049.99   51.40
  -3  -5   5 2000.66   52.05
  -3   5   6   74.08    8.18
  -3  -5   6   55.10    8.13
  -3  -5   7 1068.35   36.39
  -3   5   7 1106.08   36.48
  -3  -5   8  103.02    6.98
  -3  -5   8  116.28   11.88
  -3  -5   9  736.08   22.41
  -3  -5   9  733.58   31.22
  -3  -5  10  123.19   13.30
  -3  -5  10  104.51    8.07
  -3  -5  11  875.48   26.99
  -3  -5  11  910.27   37.93
  -3  -5  12  104.95   13.75
  -3  -5  13  670.19   34.68
  -3  -5  14  207.70   19.82
  -3  -5  15  526.35   32.24
  -3  -7 -13  374.59   28.25
  -3  -7 -12  177.53   19.57
  -3  -7 -11  942.73   42.67
  -3  -7 -10  593.53   31.67
  -3  -7  -9  926.55   39.68
  -3   7  -9 1038.60   33.57
  -3  -7  -8  306.16   20.53
  -3  -7  -7 1115.10   39.80
  -3  -7  -6  155.98   13.39
  -3  -7  -5  877.18   31.56
  -3  -7  -4  907.99   31.49
  -3  -7  -4  976.43   22.09
  -3  -7  -3  482.50   19.96
  -3   7  -3  437.76   11.15
  -3  -7  -3  465.71   14.42
  -3   7  -2  597.30   16.17
  -3  -7  -2  624.23   22.45
  -3  -7  -2  650.82   19.39
  -3  -7  -1 1008.77   28.02
  -3   7  -1 1023.29   25.48
  -3  -7   0  368.34   15.79
  -3   7   0  363.48   13.95
  -3  -7   1 2110.44   42.26
  -3  -7   1 2132.91   51.03
  -3   7   1 2030.95   47.79
  -3   7   2  410.41   17.04
  -3  -7   2  416.49   11.15
  -3  -7   2  399.69   18.29
  -3  -7   3 1111.57   34.80
  -3   7   3 1057.00   32.38
  -3  -7   4  113.02   10.86
  -3   7   4   99.32    9.30
  -3   7   5 2011.01   53.90
  -3  -7   5 2047.74   56.18
  -3  -7   6  797.79   31.98
  -3  -7   7  289.89   19.31
  -3  -7   7  300.69    9.63
  -3  -7   8  299.69   20.26
  -3  -7   8  294.49    9.66
  -3  -7   9  205.88    8.11
  -3  -7   9  218.22   18.04
  -3  -7  10  229.65   19.57
  -3  -7  11  860.75   39.55
  -3  -7  12  419.97   28.19
  -3  -7  13  150.27   18.04
  -3  -7  14  150.79   18.53
  -3  -9 -11  392.46   27.86
  -3  -9 -10  786.39   38.40
  -3  -9  -9  218.98   19.64
  -3  -9  -8  371.24   23.81
  -3  -9  -7  498.63   26.52
  -3  -9  -6  216.07    6.28
  -3  -9  -6  232.78   17.28
  -3  -9  -5  434.77   22.73
  -3  -9  -5  406.66   13.19
  -3  -9  -5  414.93   12.46
  -3  -9  -4  474.81   16.42
  -3  -9  -4  464.44   22.44
  -3  -9  -3  489.38   22.14
  -3  -9  -3  524.32   18.69
  -3  -9  -2  290.85   14.36
  -3  -9  -2  261.33   15.17
  -3  -9  -1  809.49   27.34
  -3  -9  -1  769.25   26.38
  -3   9   0  697.90   22.66
  -3  -9   0  679.02   23.35
  -3  -9   0  685.71   25.72
  -3  -9   1  712.14   27.47
  -3   9   1  737.67   24.72
  -3  -9   1  693.98   22.64
  -3   9   2  612.84   23.42
  -3  -9   2  607.75   16.19
  -3  -9   2  637.77   19.81
  -3  -9   2  638.44   26.37
  -3  -9   3  830.86   18.25
  -3   9   3  916.09   30.49
  -3  -9   3  937.49   23.60
  -3  -9   3  816.97   20.05
  -3  -9   3  898.54   33.49
  -3   9   4  391.08   20.05
  -3  -9   4  416.17   13.01
  -3  -9   4  384.47   21.81
  -3  -9   5  464.00   12.37
  -3  -9   5  504.05   25.90
  -3  -9   6 1398.74   48.40
  -3  -9   7  659.20   32.41
  -3  -9   8   89.99   13.36
  -3  -9   9  263.65   21.71
  -3  -9  10  211.70   20.36
  -3  -9  11  163.55   19.42
  -3  -9  12  318.96   26.08
  -3 -11 -10  457.39   30.18
  -3 -11  -9  112.11   14.94
  -3 -11  -8  481.67   29.00
  -3 -11  -7  276.22   20.87
  -3 -11  -6  360.90   22.86
  -3 -11  -5   77.09   10.49
  -3 -11  -4  135.63   13.16
  -3 -11  -4  149.90   10.08
  -3 -11  -3  389.22   18.17
  -3 -11  -3  388.29   20.83
  -3 -11  -2  773.77   30.13
  -3 -11  -2  845.38   29.42
  -3 -11  -1  561.66   23.77
  -3 -11  -1  565.23   24.90
  -3 -11   0  348.13   19.80
  -3 -11   0  331.80   16.98
  -3 -11   1  111.85    9.24
  -3 -11   1  116.88    7.46
  -3 -11   1  107.89   12.10
  -3 -11   2  416.14   16.84
  -3 -11   2  423.63   13.84
  -3 -11   2  384.80   22.67
  -3 -11   3  407.74   23.78
  -3 -11   3  432.01   15.23
  -3 -11   3  336.84   12.22
  -3 -11   4  919.59   38.58
  -3 -11   5  235.33   19.60
  -3 -11   6  306.06   22.96
  -3 -11   7  104.75   15.15
  -3 -11   8  180.96   18.86
  -3 -11   9  154.18   18.35
  -3 -11  10  209.37   21.60
  -3 -13  -7   32.28    9.25
  -3 -13  -6  257.55   20.82
  -3 -13  -5   64.11   10.75
  -3 -13  -4  308.77   21.01
  -3 -13  -3   30.02    7.17
  -3 -13  -2  480.32   24.28
  -3 -13  -2  505.91   24.09
  -3 -13  -1  124.87   11.81
  -3 -13  -1  120.17   12.72
  -3 -13   0  324.57   17.68
  -3 -13   0  314.01   20.71
  -3 -13   1  155.16   15.32
  -3 -13   2  504.60   28.07
  -3 -13   3   87.13   12.98
  -3 -13   4  302.75   23.52
  -3 -13   5  219.55   21.07
  -3 -13   6  314.54   25.18
  -3 -13   7   60.83   13.01
  -3 -15   2  282.63   22.74
  -3 -15   3   -3.94    8.22
  -3 -15   4  328.52   26.13
  -2   0 -11   -0.14    4.67
  -2   0 -10 1212.12   39.04
  -2   0  -9    1.97    3.26
  -2   0  -9    1.46    3.43
  -2   0  -8 1563.33   40.57
  -2   0  -7    1.01    2.53
  -2   0  -6  300.01   12.93
  -2   0  -6  309.44   13.90
  -2   0  -5    1.11    2.21
  -2   0  -5    2.44    2.37
  -2   0  -4 6727.63  123.57
  -2   0  -3    0.69    1.77
  -2   0  -2 3554.71   66.52
  -2   0  -1    0.86    1.34
  -2   0   0 5910.48  105.00
  -2   0   5   -1.13    2.34
  -2   0   5   -0.12    2.60
  -2   0   6 3989.48   80.84
  -2   0   6 3978.56   80.03
  -2   0   7    3.80    2.94
  -2   0   8 2402.79   56.87
  -2   0   9    1.45    3.45
  -2   0   9   -5.37    4.21
  -2   0  10 2596.10   63.31
  -2   0  10 2499.82   61.37
  -2   0  11    0.54    4.49
  -2   0  12 2132.06   57.51
  -2   0  13    8.13    6.14
  -2   0  14  951.19   36.50
  -2   0  15   -5.60    6.69
  -2   0  16  277.32   20.41
  -2   0  17   -8.77    7.66
  -2  -2 -12  734.27   33.45
  -2  -2 -11  106.28   12.37
  -2   2 -10 1329.50   38.96
  -2  -2 -10 1276.20   43.15
  -2   2 -10 1383.92   38.68
  -2   2  -9  104.78    8.73
  -2  -2  -9   90.79   10.31
  -2   2  -8 1575.90   40.99
  -2  -2  -8 1654.15   46.40
  -2  -2  -8 1690.95   44.01
  -2   2  -8 1625.67   41.02
  -2  -2  -8 1684.01   40.00
  -2  -2  -7   10.26    3.00
  -2   2  -7    8.69    2.96
  -2  -2  -7   20.70    5.21
  -2  -2  -7   18.75    4.35
  -2   2  -7   13.40    3.78
  -2  -2  -6 2019.96   43.33
  -2   2  -6 2105.90   46.51
  -2  -2  -6 2065.54   47.80
  -2   2  -6 2153.27   45.78
  -2  -2  -5   77.90    4.45
  -2   2  -5   66.88    5.03
  -2  -2  -5   61.70    5.63
  -2   2  -5   71.93    5.71
  -2  -2  -4 5926.62  111.17
  -2   2  -4 5987.91  110.86
  -2  -2  -3 4155.62   79.86
  -2   2  -3 4289.83   80.08
  -2  -2  -2 9492.60  166.45
  -2   2  -2 9278.67  167.20
  -2  -2  -1  418.40   11.51
  -2  -2   0 2819.73   53.00
  -2  -2   0 2915.83   53.66
  -2  -2   1  272.20    9.09
  -2  -2   1  253.96    6.45
  -2   2   4 3948.39   79.94
  -2   2   4 4057.59   75.96
  -2   2   5  169.77    8.30
  -2   2   5  160.02    9.65
  -2   2   6 2928.14   60.56
  -2  -2   6 2956.36   61.00
  -2   2   6 3027.50   65.86
  -2   2   7  278.90   12.61
  -2   2   7  314.64   15.46
  -2  -2   7  277.56   12.47
  -2  -2   8 2549.13   61.78
  -2  -2   8 2544.58   57.40
  -2   2   8 2604.32   62.55
  -2   2   9  161.79   12.34
  -2  -2   9  164.90   12.58
  -2  -2   9  169.88   10.69
  -2   2  10 3268.62   72.26
  -2  -2  10 3313.29   73.22
  -2  -2  10 3167.91   77.20
  -2   2  11  127.92   10.81
  -2  -2  11  146.48   11.36
  -2  -2  11  126.71   12.01
  -2   2  12 1084.01   35.21
  -2  -2  12 1061.68   38.88
  -2  -2  13   56.50    9.54
  -2   2  13   55.77    8.27
  -2   2  14  437.79   22.52
  -2  -2  14  459.76   25.76
  -2  -2  15   31.63    8.91
  -2   2  15   13.34    6.88
  -2   2  16  401.27   23.01
  -2  -2  16  439.10   27.16
  -2  -2  17   27.16    9.99
  -2  -4 -13   63.09   11.98
  -2  -4 -12 1099.51   44.42
  -2   4 -11  545.56   23.10
  -2  -4 -11  523.69   28.24
  -2  -4 -10  642.78   21.11
  -2  -4 -10  604.21   29.57
  -2   4 -10  632.41   24.15
  -2  -4  -9   36.15    4.72
  -2   4  -9   32.68    5.39
  -2  -4  -9   31.94    7.80
  -2  -4  -8  797.64   21.08
  -2  -4  -8  766.27   30.71
  -2   4  -8  770.00   25.27
  -2  -4  -7   65.43    7.27
  -2  -4  -7   57.03    7.88
  -2  -4  -7   66.63    4.50
  -2   4  -7   67.53    6.67
  -2   4  -6 2417.37   53.25
  -2  -4  -6 2321.11   45.97
  -2   4  -6 2560.54   47.88
  -2  -4  -5  873.43   19.05
  -2   4  -5 1013.63   20.67
  -2   4  -5  962.71   25.87
  -2   4  -4 3318.74   62.98
  -2   4  -4 3554.66   70.25
  -2  -4  -3  666.48   21.75
  -2  -4  -2 2995.61   55.72
  -2  -4  -1   15.73    2.37
  -2  -4   0 2583.93   52.09
  -2  -4   1  863.66   23.17
  -2   4   1  842.40   21.85
  -2   4   2  841.64   23.27
  -2  -4   2  908.18   25.08
  -2  -4   3  222.09   11.84
  -2   4   3  208.70   10.46
  -2   4   4 2181.45   50.53
  -2   4   5  746.04   25.05
  -2   4   6 1706.11   45.20
  -2  -4   7  128.08    7.22
  -2  -4   7  108.04   10.63
  -2   4   7  125.84   10.53
  -2   4   8 1270.62   40.09
  -2  -4   8 1326.19   32.22
  -2  -4   8 1270.04   40.91
  -2  -4   9  146.76    9.15
  -2  -4   9  161.48   13.65
  -2   4  10 3544.37   74.47
  -2  -4  10 3448.69   73.20
  -2  -4  10 3312.36   83.76
  -2   4  11  422.40   18.54
  -2  -4  11  396.44   23.61
  -2   4  12  881.97   29.53
  -2  -4  12  849.98   36.66
  -2  -4  13   46.07   10.39
  -2   4  13   61.59    8.21
  -2   4  14  516.90   23.24
  -2  -4  14  487.89   29.25
  -2  -4  15   73.26   12.68
  -2  -4  16  320.29   25.18
  -2  -6 -12  847.92   40.39
  -2  -6 -11  295.19   22.38
  -2   6 -10  364.22   17.64
  -2  -6 -10  365.77   23.56
  -2  -6 -10  344.14   12.04
  -2  -6  -9  135.86   14.13
  -2  -6  -9  125.25    6.29
  -2   6  -9  133.42   10.28
  -2  -6  -8  877.77   34.45
  -2  -6  -8  791.44   19.13
  -2   6  -8  866.37   27.25
  -2  -6  -7  181.44   14.61
  -2  -6  -7  179.37    6.73
  -2   6  -7  225.09   11.79
  -2  -6  -6  895.32   31.91
  -2  -6  -6  857.23   18.92
  -2  -6  -5  643.17   15.09
  -2  -6  -5  661.97   25.60
  -2  -6  -4 2553.22   60.35
  -2  -6  -3  969.90   29.51
  -2   6  -2 2262.28   43.94
  -2  -6  -2 2299.26   52.42
  -2  -6  -2 2436.56   49.56
  -2   6  -1  924.13   22.09
  -2  -6  -1  959.74   26.07
  -2  -6  -1  868.04   25.21
  -2   6   0 1726.89   37.98
  -2  -6   0 1694.11   41.21
  -2  -6   1  905.04   27.33
  -2   6   1  879.33   24.66
  -2  -6   2 3222.97   71.39
  -2   6   2 3250.02   68.14
  -2   6   3  122.45    8.77
  -2  -6   3  112.83    9.75
  -2  -6   4  997.41   32.53
  -2   6   4  954.03   30.12
  -2   6   5 1058.13   33.24
  -2  -6   5 1078.70   35.66
  -2   6   6  627.47   25.07
  -2  -6   6  633.61   14.64
  -2  -6   6  573.70   25.84
  -2  -6   7   83.41   10.53
  -2  -6   7   73.88    4.18
  -2  -6   8  835.35   20.00
  -2  -6   8  867.03   34.68
  -2  -6   9  617.11   29.67
  -2  -6  10 1453.85   50.63
  -2  -6  11  715.42   34.57
  -2  -6  12  929.76   40.92
  -2  -6  13   40.34   10.83
  -2  -6  14  365.83   27.19
  -2  -8 -11  122.47   15.83
  -2  -8 -10  304.25   22.68
  -2  -8  -9  334.56   22.56
  -2  -8  -8  798.77   33.55
  -2  -8  -8  631.94   14.65
  -2  -8  -7  192.23   15.83
  -2  -8  -7  199.31    7.36
  -2  -8  -6  611.52   27.42
  -2  -8  -6  634.04   16.49
  -2  -8  -5  242.78    9.54
  -2  -8  -5  237.83   15.84
  -2  -8  -4 1184.80   38.04
  -2  -8  -4 1273.55   32.11
  -2  -8  -3 1495.29   37.69
  -2  -8  -3 1502.77   42.01
  -2  -8  -2 1676.02   41.54
  -2  -8  -2 1559.36   42.56
  -2  -8  -1  185.78   11.21
  -2  -8  -1  165.80   11.27
  -2  -8   0  293.78   15.67
  -2  -8   0  288.64   13.20
  -2  -8   1  361.85   14.20
  -2  -8   1  390.93   18.72
  -2   8   1  367.82   15.59
  -2   8   2 1181.70   34.14
  -2  -8   2 1168.97   37.71
  -2  -8   2 1227.06   29.06
  -2  -8   3  244.92    9.27
  -2   8   3  251.72   14.26
  -2  -8   3  235.99    8.83
  -2  -8   3  261.76   16.68
  -2   8   4  973.69   32.25
  -2  -8   4 1011.60   35.57
  -2  -8   4  940.81   20.69
  -2   8   5  187.19   13.85
  -2  -8   5  181.94   14.65
  -2  -8   6  347.24   21.66
  -2  -8   7 1247.59   45.03
  -2  -8   8  968.56   39.95
  -2  -8   9  427.72   26.63
  -2  -8  10  619.75   33.24
  -2  -8  11  432.42   28.56
  -2  -8  12  344.10   27.17
  -2  -8  13  267.14   24.14
  -2 -10 -10  111.13   14.72
  -2 -10  -9  429.12   27.24
  -2 -10  -8  234.19   19.12
  -2 -10  -7  289.03   20.40
  -2 -10  -6  373.50   14.68
  -2 -10  -6  372.26   22.36
  -2 -10  -5  362.74   15.60
  -2 -10  -5  339.85   20.42
  -2 -10  -4  481.08   23.30
  -2 -10  -4  518.43   20.25
  -2 -10  -3  771.95   29.34
  -2 -10  -3  769.27   27.10
  -2 -10  -2  789.27   28.76
  -2 -10  -2  798.58   28.50
  -2 -10  -1  469.30   20.11
  -2 -10  -1  472.03   22.18
  -2 -10   0  616.76   22.59
  -2 -10   0  646.55   26.87
  -2 -10   1  735.30   23.75
  -2 -10   1  746.02   30.31
  -2 -10   2  133.09   13.02
  -2 -10   2  140.93    8.62
  -2 -10   3  535.35   17.11
  -2 -10   3  500.15   26.00
  -2 -10   3  556.18   16.47
  -2 -10   4  297.11   20.04
  -2 -10   4  251.06    6.37
  -2 -10   4  190.56    6.52
  -2 -10   5  632.18   30.93
  -2 -10   6  245.55   20.09
  -2 -10   7  357.42   24.76
  -2 -10   8  241.47   21.36
  -2 -10   9  376.62   27.00
  -2 -10  10  421.12   29.35
  -2 -10  11  346.53   27.31
  -2 -12  -7  306.88   22.14
  -2 -12  -6  127.28   13.89
  -2 -12  -5  426.21   24.51
  -2 -12  -4   69.32    8.57
  -2 -12  -4   66.08    9.57
  -2 -12  -3  458.87   23.50
  -2 -12  -3  476.30   22.48
  -2 -12  -2  474.54   23.09
  -2 -12  -2  507.02   24.42
  -2 -12  -1  581.03   24.69
  -2 -12  -1  578.79   27.11
  -2 -12   0  239.59   17.86
  -2 -12   1  400.09   23.72
  -2 -12   2  105.70   13.18
  -2 -12   3  258.88   20.42
  -2 -12   4  220.04   19.40
  -2 -12   5  458.84   28.78
  -2 -12   6   60.94   12.26
  -2 -12   7  132.26   16.68
  -2 -12   8   75.86   14.25
  -2 -12   9  474.65   32.40
  -2 -14  -1  235.73   18.49
  -2 -14   0   18.61    7.59
  -2 -14   1  260.15   20.69
  -2 -14   2   42.24   10.34
  -2 -14   3  380.96   26.37
  -2 -14   4   23.78   10.04
  -2 -14   5  220.81   21.79
  -2 -14   6   41.23   12.33
  -1  -1 -11 1861.42   51.70
  -1   1 -10   43.47    6.06
  -1  -1 -10   32.23    6.20
  -1  -1 -10   42.56    7.74
  -1   1  -9 2305.26   54.46
  -1  -1  -9 2341.55   56.27
  -1  -1  -9 2352.75   56.23
  -1  -1  -9 2330.05   59.19
  -1  -1  -8   52.13    6.38
  -1  -1  -8   53.30    6.24
  -1  -1  -8   58.33    7.51
  -1   1  -8   70.76    7.36
  -1   1  -8   61.85    8.21
  -1   1  -7 3196.91   66.61
  -1  -1  -7 3143.96   67.58
  -1  -1  -7 3223.90   67.50
  -1   1  -7 3166.20   67.67
  -1   1  -7 3368.22   71.92
  -1  -1  -6  108.30    8.39
  -1   1  -6   93.10    6.42
  -1  -1  -6   98.76    6.76
  -1   1  -6  107.00    7.35
  -1  -1  -6   99.92    7.08
  -1   1  -6   90.75    7.64
  -1   1  -5 2601.06   51.08
  -1  -1  -5 2527.14   53.87
  -1  -1  -5 2526.40   50.11
  -1   1  -5 2467.80   50.34
  -1  -1  -5 2470.50   51.23
  -1   1  -4   35.74    3.39
  -1  -1  -4   29.83    3.10
  -1  -1  -4   32.22    3.49
  -1   1  -4   36.91    3.54
  -1   1  -3 1244.37   26.70
  -1   1  -3 1257.54   26.50
  -1  -1  -3 1272.69   25.42
  -1   1  -2  748.55   16.81
  -1  -1  -1 3947.77   72.98
  -1   1  -1 4302.35   73.70
  -1   1   3 6332.82  110.53
  -1   1   3 5975.68  112.61
  -1   1   4  558.97   17.14
  -1  -1   4  565.48   15.49
  -1   1   4  585.50   15.57
  -1   1   5 5986.44  114.57
  -1  -1   5 6058.46  111.88
  -1   1   5 6257.48  111.79
  -1   1   6    6.67    3.80
  -1  -1   6    5.06    3.20
  -1   1   6    1.51    2.69
  -1  -1   6    3.96    2.35
  -1   1   7 3329.46   71.04
  -1  -1   7 3247.90   68.40
  -1   1   7 3251.38   67.82
  -1  -1   8  249.53   12.71
  -1   1   8  235.71   13.65
  -1  -1   9 2521.59   58.77
  -1   1   9 2583.21   61.56
  -1  -1   9 2434.73   60.33
  -1  -1  10   53.50    7.46
  -1   1  10   65.52    7.62
  -1   1  10   54.90    7.69
  -1  -1  10   64.63    7.68
  -1  -1  11  420.38   21.10
  -1   1  11  422.48   19.54
  -1  -1  12   -1.17    5.21
  -1   1  12    6.72    4.73
  -1   1  13  451.20   21.86
  -1  -1  13  430.98   23.15
  -1  -1  14    3.59    6.69
  -1   1  14   -1.88    5.87
  -1   1  15  856.92   34.03
  -1  -1  15  876.89   36.57
  -1  -1  16   14.48    7.22
  -1   1  16    1.83    5.93
  -1  -1  17  420.25   26.25
  -1  -3 -12  205.88   14.23
  -1   3 -11  618.05   23.77
  -1  -3 -11  683.95   30.91
  -1  -3 -11  629.23   24.31
  -1  -3 -10   37.75    5.65
  -1  -3 -10   48.21    8.83
  -1   3 -10   32.83    5.54
  -1   3  -9 3275.35   70.40
  -1  -3  -9 3309.32   70.11
  -1  -3  -9 3247.19   79.13
  -1   3  -8  106.16    8.00
  -1  -3  -8  105.85   10.23
  -1  -3  -8   78.22    6.49
  -1  -3  -7 1516.95   35.01
  -1   3  -7 1522.93   36.43
  -1   3  -6  599.19   18.13
  -1  -3  -6  581.13   16.50
  -1   3  -5 6151.31  109.67
  -1  -3  -5 6049.55  109.86
  -1   3  -5 6163.36  113.14
  -1   3  -4  503.16   14.50
  -1  -3  -4  487.80   11.87
  -1   3  -4  486.94   11.53
  -1  -3  -3 1841.77   34.37
  -1   3  -3 1878.88   38.19
  -1   3  -1  479.92   10.59
  -1   3   0  191.50    6.70
  -1  -3   0  219.67    8.36
  -1   3   1 9020.37  161.45
  -1  -3   1 9209.99  163.67
  -1   3   2  234.20    9.48
  -1   3   3 2569.34   54.05
  -1   3   4  914.79   25.81
  -1  -3   5 8727.97  147.43
  -1   3   5 8221.86  155.60
  -1   3   6  265.43   10.52
  -1   3   6  278.39   14.16
  -1  -3   6  280.76   10.33
  -1   3   7 6097.69  114.61
  -1  -3   7 6265.94  114.67
  -1  -3   7 6032.36  124.17
  -1   3   7 6072.24  123.08
  -1  -3   8   29.65    6.13
  -1   3   8   32.53    4.61
  -1   3   8   32.79    6.02
  -1  -3   8   33.43    4.36
  -1  -3   9 1449.96   44.10
  -1  -3  10  110.23   12.10
  -1  -3  11  606.34   28.44
  -1   3  11  670.83   23.73
  -1  -3  12   -7.66    8.07
  -1   3  12    9.15    4.62
  -1   3  13  311.00   16.98
  -1  -3  13  304.67   20.98
  -1  -3  14   34.98    9.68
  -1   3  14   30.06    6.77
  -1   3  15  377.99   20.16
  -1  -3  15  373.89   25.30
  -1  -3  16    1.08    6.74
  -1  -5 -11 1203.71   46.69
  -1  -5 -11 1296.10   35.34
  -1   5 -11 1306.68   37.66
  -1   5 -10  589.51   22.13
  -1  -5 -10  584.85   20.25
  -1  -5 -10  559.55   28.61
  -1  -5  -9 1105.32   28.79
  -1   5  -9 1054.19   30.98
  -1  -5  -9 1039.67   39.01
  -1  -5  -8  103.07    6.82
  -1   5  -8  104.39    7.94
  -1  -5  -8  108.99   11.75
  -1   5  -7 1687.51   39.67
  -1  -5  -7 1653.23   47.73
  -1  -5  -7 1652.67   36.18
  -1  -5  -6   70.98    8.60
  -1   5  -6   76.24    6.11
  -1  -5  -6   76.90    4.80
  -1  -5  -5 3019.05   57.04
  -1  -5  -5 2986.54   68.58
  -1   5  -5 2993.15   61.05
  -1  -5  -4  883.56   20.34
  -1  -5  -4  931.30   28.69
  -1  -5  -3 1742.77   42.44
  -1  -5  -2  223.75   11.04
  -1  -5  -1 1175.45   28.99
  -1  -5   0 1056.58   25.45
  -1   5   0 1092.32   25.12
  -1  -5   1 3989.06   80.10
  -1  -5   1 3877.81   72.63
  -1   5   1 3882.02   75.68
  -1   5   2 1684.39   39.16
  -1  -5   2 1697.86   42.52
  -1  -5   3 3502.97   74.27
  -1   5   3 3565.32   71.01
  -1  -5   3 3294.63   60.83
  -1  -5   4  652.76   13.76
  -1   5   4  725.72   23.27
  -1   5   5 1765.89   42.66
  -1  -5   5 1521.08   28.87
  -1   5   6 1383.49   39.72
  -1  -5   7 1624.81   48.06
  -1   5   7 1592.06   45.37
  -1  -5   8   47.16    8.43
  -1  -5   9  780.58   32.77
  -1  -5  10  297.96   20.22
  -1  -5  11  591.05   30.18
  -1  -5  12  140.52   15.85
  -1  -5  13  521.55   30.53
  -1  -5  14    8.28    8.30
  -1  -5  15  365.04   27.09
  -1  -7 -10  337.71   22.68
  -1  -7  -9  692.70   32.27
  -1   7  -9  693.15   23.41
  -1  -7  -9  724.75   20.65
  -1  -7  -8  268.72   11.06
  -1  -7  -8  298.50   19.60
  -1  -7  -7 1297.59   30.02
  -1  -7  -7 1262.89   42.60
  -1  -7  -6  506.88   23.56
  -1  -7  -6  483.89   14.98
  -1  -7  -5  768.77   20.56
  -1  -7  -5  797.24   29.19
  -1  -7  -4  590.61   23.43
  -1  -7  -3 1084.03   32.25
  -1  -7  -2  249.49   13.02
  -1  -7  -1  719.15   22.76
  -1  -7   0  964.46   30.51
  -1  -7   0  976.19   26.01
  -1  -7   1  791.88   27.59
  -1  -7   1  791.81   21.26
  -1  -7   2  836.85   20.25
  -1  -7   2  792.65   28.78
  -1  -7   3 3313.77   76.91
  -1  -7   3 3245.78   59.88
  -1  -7   3 3272.13   63.06
  -1  -7   4  497.96   22.80
  -1  -7   4  435.64   11.47
  -1  -7   5 1930.34   52.81
  -1  -7   5 1718.97   32.57
  -1  -7   6  930.03   35.53
  -1  -7   7  432.21   24.28
  -1  -7   8  643.36   30.88
  -1  -7   9 1702.12   56.48
  -1  -7  10  208.63   18.80
  -1  -7  11  252.50   21.67
  -1  -7  12   77.36   13.48
  -1  -7  13  319.12   25.96
  -1  -7  14   72.07   13.83
  -1  -9  -9  585.35   30.77
  -1  -9  -8  754.52   34.42
  -1  -9  -7  839.39   34.96
  -1  -9  -7  880.92   24.03
  -1  -9  -6  549.04   18.09
  -1  -9  -6  523.96   25.61
  -1  -9  -5  889.74   32.96
  -1  -9  -4  291.19   17.11
  -1  -9  -3  777.65   28.53
  -1  -9  -2  334.93   16.53
  -1  -9  -1  191.81   11.73
  -1  -9  -1  181.00   13.25
  -1  -9   0  735.28   28.27
  -1  -9   0  698.08   22.96
  -1  -9   1  604.23   26.09
  -1  -9   1  611.23   19.68
  -1  -9   2  485.16   23.91
  -1  -9   3  569.48   18.38
  -1  -9   3  558.47   26.93
  -1  -9   4 1001.83   37.64
  -1  -9   4  954.16   23.19
  -1  -9   5  473.85   26.12
  -1  -9   6  704.61   32.88
  -1  -9   7  927.44   39.99
  -1  -9   8  725.19   35.64
  -1  -9   9  319.74   24.49
  -1  -9  10  301.45   24.40
  -1  -9  11  143.35   18.31
  -1  -9  12   22.58   10.46
  -1 -11  -5  159.86   14.51
  -1 -11  -4  458.86   21.53
  -1 -11  -4  499.82   24.36
  -1 -11  -3  360.54   19.73
  -1 -11  -3  361.20   19.83
  -1 -11  -2  328.88   19.33
  -1 -11  -1  244.70   17.24
  -1 -11   0  594.63   27.97
  -1 -11   1  452.14   24.70
  -1 -11   2  852.62   36.11
  -1 -11   3  257.42   12.83
  -1 -11   3  248.52   19.75
  -1 -11   4  537.41   16.83
  -1 -11   4  592.27   31.08
  -1 -11   5  128.59   15.09
  -1 -11   6  586.45   32.33
  -1 -11   7  328.92   24.59
  -1 -11   8  295.94   24.46
  -1 -11   9  156.85   19.06
  -1 -11  10  354.30   28.38
  -1 -13  -3   62.78    9.81
  -1 -13  -2  157.76   14.67
  -1 -13  -1  124.63   13.74
  -1 -13   0  440.86   25.82
  -1 -13   1   51.72   10.32
  -1 -13   2  471.45   28.34
  -1 -13   3   91.68   14.01
  -1 -13   4  277.67   22.84
  -1 -13   5   58.30   12.07
  -1 -13   6  440.41   30.05
  -1 -13   7   54.82   13.27
  -1 -15   0  125.51   15.64
  -1 -15   1   -5.74    8.40
  -1 -15   2  330.35   25.77
  -1 -15   3   23.84   10.07
  -1 -15   4  407.09   29.45
   0   0 -11    8.86    5.00
   0   0 -10 2148.66   57.22
   0   0 -10 2207.66   53.95
   0   0  -9    1.77    2.96
   0   0  -9    2.80    3.64
   0   0  -8  121.12    9.78
   0   0  -8  120.52    8.32
   0   0  -7    3.04    2.83
   0   0  -7    3.24    2.51
   0   0  -7    8.44    3.71
   0   0  -6 3328.19   68.89
   0   0  -6 3332.58   69.23
   0   0  -5    1.53    2.44
   0   0  -5    5.22    2.59
   0   0  -4 2132.14   44.15
   0   0  -4 2149.44   44.43
   0   0  -3   -0.44    1.75
   0   0  -2 3212.51   58.81
   0   0   2 3101.99   56.70
   0   0   3    0.09    1.61
   0   0   4 2109.50   43.63
   0   0   4 2132.45   43.60
   0   0   5    3.55    2.75
   0   0   5    0.91    1.97
   0   0   6 3389.72   69.51
   0   0   6 3397.54   69.17
   0   0   7    2.91    3.05
   0   0   7    6.22    3.13
   0   0  10 2027.04   51.24
   0   0  11   -0.77    4.55
   0   0  12 1510.80   44.79
   0   0  13    3.57    5.13
   0   0  14 1026.68   37.32
   0   0  15    7.64    6.01
   0   0  16  744.81   32.80
   0  -2 -12 1106.38   38.27
   0   2 -11   67.17    7.42
   0  -2 -11   84.31    9.12
   0   2 -10 1135.14   33.03
   0  -2 -10 1178.02   35.78
   0   2 -10 1253.13   41.87
   0   2  -9   23.21    6.04
   0  -2  -9   22.29    4.67
   0   2  -9   21.75    4.06
   0  -2  -9   27.21    6.24
   0   2  -8 1765.05   41.54
   0  -2  -8 1697.48   47.21
   0  -2  -8 1822.99   43.60
   0   2  -8 1849.21   49.86
   0   2  -7  107.72    9.48
   0   2  -7  111.50    7.05
   0  -2  -7   86.25    6.98
   0   2  -6 1910.27   41.42
   0  -2  -6 1986.25   42.65
   0   2  -6 1950.34   48.72
   0   2  -5  823.87   25.70
   0   2  -5  814.00   20.14
   0  -2  -5  825.26   20.76
   0   2  -4 2182.67   42.71
   0   2  -4 2312.56   49.86
   0  -2  -4 2149.57   42.89
   0   2  -3   26.89    3.91
   0   2  -3   32.42    2.43
   0  -2  -3   27.83    2.32
   0   2  -2 5032.62   88.55
   0  -2   0 7787.33  135.35
   0   2   1   93.43    4.44
   0  -2   2 5033.92   87.38
   0   2   2 4842.51   91.35
   0   2   3   27.95    2.18
   0   2   3   34.56    3.91
   0  -2   3   37.28    2.59
   0  -2   3   38.09    2.21
   0   2   4 2241.27   42.61
   0  -2   4 2202.40   42.41
   0   2   4 2151.42   47.49
   0   2   5  851.22   20.07
   0  -2   5  836.81   20.25
   0   2   5  773.39   23.93
   0   2   6 1990.16   41.51
   0   2   6 1944.94   47.01
   0   2   7  107.95    6.89
   0   2   7  107.46    8.93
   0   2   8 1854.62   42.14
   0  -2   8 1795.38   48.21
   0  -2   9   30.06    6.74
   0  -2  10 1136.92   37.85
   0  -2  11   67.63    9.15
   0   2  11   68.94    7.63
   0   2  12 1111.72   34.03
   0  -2  12 1058.50   38.90
   0  -2  13   -2.58    6.47
   0   2  13   -3.68    4.96
   0   2  14 1021.01   34.92
   0  -2  14 1004.56   39.90
   0  -2  15   49.90   10.52
   0   2  15   46.49    8.25
   0  -2  16  647.44   33.09
   0  -2  17   37.70   10.15
   0  -4 -12 1122.85   36.42
   0   4 -12 1121.88   34.41
   0   4 -11  240.21   13.41
   0  -4 -11  235.66   14.09
   0  -4 -10  510.44   20.30
   0   4 -10  505.09   19.13
   0  -4  -9    6.76    3.60
   0   4  -9    4.82    3.02
   0  -4  -9    7.66    5.31
   0  -4  -8 1597.68   47.07
   0  -4  -8 1583.00   38.76
   0   4  -8 1633.22   38.14
   0  -4  -7  167.08    8.92
   0   4  -7  176.18    8.90
   0  -4  -7  177.87   12.57
   0   4  -6 1268.17   29.10
   0  -4  -6 1233.09   29.09
   0   4  -5  705.64   17.83
   0  -4  -5  665.55   17.80
   0  -4  -4 3338.61   64.13
   0   4  -4 3469.85   64.01
   0  -4  -3  274.92   12.37
   0  -4  -2 5723.36  107.69
   0  -4  -1 2047.10   42.63
   0  -4   0 6374.37  114.54
   0  -4   1 1953.46   37.23
   0  -4   2 5677.91  102.23
   0   4   3  282.14   12.33
   0  -4   3  279.97    8.56
   0  -4   4 3489.08   64.10
   0   4   4 3439.79   72.45
   0  -4   5  711.24   17.24
   0  -4   7  150.82   12.14
   0  -4   8 1613.86   48.06
   0  -4   9    7.12    5.51
   0   4   9    0.18    2.70
   0  -4  10  490.54   25.45
   0  -4  11  230.28   18.19
   0   4  12 1136.69   32.44
   0  -4  12 1106.94   43.37
   0   4  13  147.58   10.68
   0  -4  13  142.48   15.42
   0  -4  14  931.96   41.08
   0  -4  15   13.47    8.09
   0  -4  16  223.90   21.04
   0   6 -10 1108.17   31.10
   0  -6 -10 1113.29   32.19
   0   6  -9  366.24   14.94
   0  -6  -9  377.13   22.44
   0  -6  -9  398.55   15.89
   0  -6  -8  143.12   13.13
   0   6  -8  160.85    8.82
   0  -6  -8  152.30    8.97
   0   6  -7   50.63    4.83
   0  -6  -7   44.19    7.64
   0  -6  -7   51.57    5.21
   0  -6  -6  967.79   25.11
   0  -6  -6  992.17   33.27
   0  -6  -5  185.65    8.76
   0  -6  -5  178.64   12.28
   0  -6  -4 1519.79   40.99
   0  -6  -3  600.55   21.67
   0  -6  -2 1448.50   36.31
   0  -6  -1 1289.05   31.99
   0  -6   0 7730.43  141.11
   0  -6   1 1290.15   28.41
   0  -6   2 1439.92   40.91
   0  -6   3  639.20   17.63
   0  -6   3  634.98   25.21
   0  -6   4 1546.05   45.39
   0  -6   4 1577.48   33.15
   0  -6   5  183.01    7.24
   0  -6   5  198.14   14.38
   0  -6   6 1064.64   23.77
   0  -6   6  968.93   36.04
   0  -6   7   49.46    8.60
   0  -6   8  129.05   13.41
   0  -6   9  395.00   23.93
   0  -6  10 1066.21   43.02
   0  -6  11   71.62   12.21
   0  -6  12  974.77   43.33
   0  -6  13  300.63   23.88
   0  -6  14  668.51   37.38
   0  -6  15  138.87   18.31
   0  -8  -8  551.52   19.08
   0  -8  -7  363.79   14.74
   0  -8  -7  362.67   21.05
   0  -8  -6  839.50   24.71
   0  -8  -6  851.68   32.32
   0  -8  -5  778.52   29.73
   0  -8  -4  836.47   29.78
   0  -8  -3  324.43   16.49
   0  -8  -2  919.45   28.97
   0  -8  -1 1876.24   45.05
   0  -8   2  944.73   34.27
   0  -8   3  309.04   13.06
   0  -8   3  289.17   18.36
   0  -8   4  845.76   33.76
   0  -8   4  866.76   23.03
   0  -8   5  811.01   20.25
   0  -8   5  780.89   32.90
   0  -8   6  862.83   20.43
   0  -8   6  890.81   36.51
   0  -8   7  373.18   23.38
   0  -8   8  543.97   29.54
   0  -8   9  266.60   21.27
   0  -8  10  480.40   30.07
   0  -8  11  204.56   20.09
   0  -8  12  498.00   32.23
   0  -8  13  151.10   18.43
   0 -10  -6  189.07   11.49
   0 -10   0  471.51   24.76
   0 -10   1 1145.78   40.83
   0 -10   2  674.97   30.84
   0 -10   3  262.78   13.62
   0 -10   3  272.34   19.48
   0 -10   4  323.34   22.18
   0 -10   4  313.16   13.65
   0 -10   5  477.83   15.14
   0 -10   5  475.03   27.50
   0 -10   6  197.34    7.63
   0 -10   6  203.02   18.94
   0 -10   7  321.93   23.95
   0 -10   8  585.73   33.21
   0 -10   9  281.81   24.01
   0 -10  10   86.68   15.09
   0 -10  11  235.84   23.95
   0 -12  -2  179.22   15.62
   0 -12  -1  769.20   33.96
   0 -12   0  223.89   18.51
   0 -12   1  732.75   34.51
   0 -12   2  216.14   13.82
   0 -12   2  183.95   17.97
   0 -12   3  583.25   22.52
   0 -12   3  529.32   30.70
   0 -12   4   41.16    9.92
   0 -12   5  278.05   22.83
   0 -12   6   85.40   14.43
   0 -12   7  291.25   24.73
   0 -12   8  107.71   16.31
   0 -14  -2   14.27    7.00
   0 -14  -1  292.18   21.78
   0 -14   0   92.04   13.69
   0 -14   1  267.35   22.35
   0 -14   2   16.63    8.82
   0 -14   3  363.38   27.36
   0 -14   4   52.94   12.68
   0 -14   5  323.85   26.91
   1   1 -11  440.12   19.15
   1  -1 -11  466.52   22.74
   1   1 -10   61.13    7.11
   1   1 -10   57.66    8.55
   1  -1 -10   55.12    7.75
   1   1  -9 2572.16   63.60
   1   1  -9 2476.90   55.85
   1  -1  -9 2488.05   60.41
   1   1  -8  233.36   11.09
   1   1  -8  250.70   14.64
   1  -1  -8  233.77   13.06
   1   1  -7 3323.63   72.51
   1  -1  -7 3285.97   69.81
   1   1  -7 3213.04   65.24
   1   1  -6    0.23    2.62
   1  -1  -6    5.59    3.46
   1  -1  -5 6086.10  114.07
   1   1  -5 6166.59  117.07
   1   1  -4  603.47   18.46
   1  -1  -4  589.78   16.40
   1   1  -3 6223.94  111.32
   1  -1  -3 5904.09  108.14
   1  -1  -2  175.48    5.98
   1   1  -2  180.39    7.28
   1  -1   2  745.73   16.65
   1  -1   3 1317.55   27.35
   1   1   3 1282.27   25.62
   1  -1   4   37.95    4.36
   1  -1   4   35.34    3.35
   1   1   4   34.55    3.06
   1  -1   5 2512.05   55.28
   1   1   5 2638.23   51.52
   1  -1   6  101.00    7.85
   1   1   6   94.87    6.26
   1   1   7 3272.34   66.48
   1   1   8   45.85    5.41
   1  -1   9 2266.71   56.53
   1  -1  10   46.08    7.00
   1  -1  11 1715.74   49.27
   1   1  11 1726.17   45.66
   1  -1  12   18.72    6.89
   1   1  12   15.11    4.77
   1  -1  13  640.14   28.68
   1   1  13  707.32   27.43
   1  -1  14    6.57    6.32
   1   1  14    8.17    5.84
   1   1  15  428.15   22.11
   1  -1  15  418.81   24.33
   1  -1  16   13.37    7.81
   1   3 -12   12.09    4.07
   1  -3 -12   -4.78    5.35
   1   3 -11  638.27   22.60
   1  -3 -11  651.96   25.92
   1  -3 -10  112.02   10.02
   1   3 -10  113.91    8.36
   1  -3  -9 1481.50   40.40
   1   3  -9 1472.44   36.31
   1   3  -9 1540.31   47.79
   1   3  -8   32.36    4.21
   1   3  -8   32.31    6.72
   1  -3  -8   26.12    4.56
   1   3  -7 5850.83  110.81
   1  -3  -7 6011.25  115.15
   1   3  -6  267.07    9.35
   1   3  -6  269.57   14.88
   1  -3  -6  234.95   10.71
   1   3  -5 8268.19  147.58
   1   3  -5 8422.31  160.05
   1  -3  -5 8194.31  150.97
   1  -3  -4  898.67   21.68
   1   3  -4  894.93   18.72
   1   3  -4  887.48   27.07
   1  -3  -3 2729.20   53.12
   1   3  -3 2830.97   59.84
   1   3  -2  229.22   10.71
   1  -3   2  172.95    6.97
   1  -3   3 1900.81   38.36
   1  -3   4  502.35   14.31
   1  -3   5 6438.71  117.72
   1   3   6  596.26   15.30
   1  -3   6  607.54   17.60
   1   3   7 1530.86   32.98
   1  -3   7 1462.70   42.53
   1   3   8  118.91    7.14
   1  -3   8  100.26   10.20
   1   3   9 3366.50   67.70
   1  -3   9 3252.25   79.65
   1  -3  10   38.22    7.94
   1  -3  11  610.39   28.62
   1   3  12  222.59   12.64
   1  -3  12  205.26   17.18
   1   3  13  484.83   20.28
   1  -3  13  449.90   26.26
   1  -3  14   29.60    9.19
   1  -3  15  527.24   30.03
   1  -3  16   16.80    8.85
   1  -3  17  359.80   25.88
   1  -5 -11  541.06   23.20
   1   5 -11  600.62   20.94
   1  -5 -10  305.71   15.87
   1   5 -10  301.50   13.43
   1   5  -9  837.98   23.43
   1  -5  -9  804.46   26.33
   1  -5  -8   44.98    5.62
   1   5  -8   46.45    4.42
   1   5  -7 1648.64   34.78
   1  -5  -7 1547.06   38.28
   1  -5  -6 1320.30   32.64
   1   5  -6 1369.40   28.86
   1  -5  -5 1465.95   34.13
   1  -5  -4  714.80   23.87
   1  -5  -3 3490.16   72.44
   1  -5   2  229.41   10.23
   1  -5   3 1645.32   36.28
   1  -5   4  914.35   22.91
   1  -5   5 3001.35   59.50
   1  -5   6   84.45    9.93
   1  -5   6   65.52    5.19
   1  -5   7 1664.76   37.38
   1  -5   7 1631.56   49.36
   1  -5   8   91.87   10.95
   1  -5   9 1017.92   38.84
   1  -5  10  589.26   29.71
   1  -5  11 1242.25   46.81
   1  -5  12   69.35   12.14
   1  -5  13  597.41   33.11
   1  -5  14  144.27   17.67
   1  -5  15  321.27   25.85
   1  -7 -10  235.84   13.54
   1  -7  -9 1741.12   44.05
   1  -7  -8  695.79   23.05
   1  -7  -7  434.28   17.01
   1  -7  -6  942.42   26.92
   1  -7  -5 1800.08   42.31
   1  -7   3 1030.07   28.36
   1  -7   3 1062.50   37.03
   1  -7   4  572.73   26.86
   1  -7   4  612.04   19.13
   1  -7   5  829.04   22.51
   1  -7   5  832.82   33.43
   1  -7   6  547.51   16.78
   1  -7   6  512.25   26.07
   1  -7   7 1389.64   32.47
   1  -7   7 1268.81   45.99
   1  -7   8  245.37   18.91
   1  -7   9  712.69   34.22
   1  -7  10  306.97   22.95
   1  -7  11  612.09   34.07
   1  -7  12  183.48   19.65
   1  -7  13  451.07   31.15
   1  -7  14  127.62   18.08
   1  -9  -8  672.34   23.75
   1  -9  -7  929.49   29.09
   1  -9  -6  614.36   22.27
   1  -9   3  806.68   34.06
   1  -9   3  806.30   26.41
   1  -9   4  274.47   13.41
   1  -9   4  287.22   20.25
   1  -9   5  921.78   25.89
   1  -9   5  878.07   37.73
   1  -9   6  570.58   17.82
   1  -9   6  527.40   29.57
   1  -9   7  854.16   22.64
   1  -9   7  827.81   38.74
   1  -9   8  692.95   36.09
   1  -9   9  559.85   32.90
   1  -9  10  183.00   19.60
   1  -9  11  215.93   21.95
   1  -9  12  353.59   28.71
   1 -11   1  257.61   19.90
   1 -11   2  301.86   22.11
   1 -11   2  320.24   17.30
   1 -11   3  346.28   24.17
   1 -11   3  352.58   17.69
   1 -11   4  469.51   28.52
   1 -11   4  447.44   19.07
   1 -11   5  171.01   18.09
   1 -11   5  182.88   10.64
   1 -11   6  288.68   23.45
   1 -11   7  134.42   16.98
   1 -11   8  398.70   29.14
   1 -11   9  256.80   24.08
   1 -11  10  349.81   29.19
   1 -13  -1   49.25   10.19
   1 -13   0  434.34   27.24
   1 -13   1  144.80   16.74
   1 -13   2  181.00   18.49
   1 -13   3   67.03   12.63
   1 -13   4  621.62   35.18
   1 -13   5   68.42   13.74
   1 -13   6  387.31   29.60
   1 -13   7  140.53   18.92
   1 -15  -1   -0.02    7.58
   1 -15   0  138.56   17.22
   1 -15   1   36.80   10.80
   1 -15   2  196.50   20.82
   1 -15   3   39.12   11.81
   2   0 -11   -0.05    3.37
   2   0 -10 2513.00   64.51
   2   0  -9    2.50    3.45
   2   0  -8 2425.10   58.67
   2   0  -7   -2.17    3.26
   2   0  -6 4200.05   85.30
   2   0  -5   -1.10    2.51
   2   0  -4   66.94    5.38
   2   0  -3    0.03    1.69
   2   0  -2 4333.54   79.37
   2   0  -1    0.20    1.06
   2   0   3    3.10    2.05
   2   0   4 6946.87  125.74
   2   0   4 6816.20  125.42
   2   0   5    0.08    2.27
   2   0   6  284.09   12.28
   2   0   7    3.64    3.25
   2   0   8 1496.91   39.16
   2   0  10 1261.16   36.86
   2   0  11   -7.00    5.12
   2   0  12 1520.11   44.64
   2   0  13   -4.62    4.94
   2   0  14 1070.22   37.71
   2   0  15   10.67    6.65
   2   2 -12 1066.03   32.65
   2   2 -11  143.93   10.04
   2  -2 -11  126.60   12.12
   2   2 -10 3346.92   71.01
   2  -2 -10 3388.78   78.31
   2   2  -9  159.74    9.21
   2   2  -9  179.76   13.98
   2  -2  -9  156.78   11.46
   2   2  -8 2556.58   53.65
   2  -2  -8 2556.42   59.52
   2   2  -8 2672.14   64.91
   2   2  -7  274.24   10.53
   2   2  -7  305.92   16.39
   2  -2  -7  293.14   13.53
   2   2  -6 2989.31   66.91
   2  -2  -6 2924.61   61.75
   2   2  -5  159.07   10.10
   2  -2  -5  149.90    8.12
   2  -2  -4 4117.84   78.04
   2   2  -4 4070.60   82.46
   2  -2  -3  411.13   12.54
   2   2  -3  411.40   14.63
   2   2  -2 2778.75   55.60
   2   2  -1  269.62    6.42
   2   2  -1  298.63    9.75
   2   2   0 2866.67   52.79
   2   2   0 2917.52   54.03
   2  -2   1  438.64   13.12
   2  -2   2 9724.11  172.63
   2  -2   3 4220.92   79.38
   2  -2   4 5924.86  115.85
   2  -2   4 6103.32  110.17
   2   2   4 5983.98  104.17
   2  -2   5   73.50    5.72
   2   2   5   80.30    4.13
   2  -2   5   75.20    7.49
   2  -2   6 2159.39   46.63
   2   2   6 2086.53   42.42
   2   2   7   12.96    2.93
   2  -2   8 1523.18   43.82
   2   2   8 1601.53   36.42
   2  -2   9  110.98   10.80
   2   2   9   93.17    7.29
   2  -2  10 1308.45   41.96
   2  -2  11   89.72   11.24
   2  -2  12  778.22   32.88
   2   2  12  830.73   27.34
   2   2  13  157.46   11.58
   2  -2  13  149.73   14.23
   2   2  14 1068.18   33.95
   2  -2  14  957.36   39.25
   2  -2  15   71.88   11.33
   2  -2  16  863.78   38.11
   2  -4 -12  843.52   32.57
   2   4 -11  433.64   16.94
   2  -4 -11  416.47   20.86
   2   4 -10 3460.71   70.23
   2  -4 -10 3388.56   77.94
   2   4  -9  157.60    8.29
   2  -4  -9  148.60   10.94
   2   4  -8 1281.09   29.48
   2   4  -8 1304.96   42.77
   2  -4  -8 1287.67   35.17
   2   4  -7  120.80    5.94
   2   4  -7  130.18   11.69
   2  -4  -7  119.83    8.55
   2  -4  -6 1759.41   40.25
   2   4  -6 1805.52   48.39
   2   4  -6 1676.27   33.66
   2  -4  -5  755.84   20.69
   2   4  -5  826.51   27.12
   2  -4  -4 2267.43   47.82
   2   4  -4 2246.60   54.13
   2   4  -3  222.03   12.22
   2   4  -2  892.12   26.01
   2  -4   2 3172.44   63.95
   2  -4   3  660.20   19.17
   2  -4   4 3582.81   70.49
   2  -4   5 1002.26   25.84
   2  -4   6 2441.67   52.22
   2  -4   6 2403.28   61.83
   2  -4   7   73.71    9.08
   2  -4   7   80.30    6.70
   2  -4   8  763.92   31.06
   2  -4   9   34.39    8.10
   2   4  10  619.02   18.06
   2  -4  10  591.17   29.02
   2   4  11  550.22   17.65
   2  -4  11  541.28   28.67
   2  -4  12 1071.43   42.65
   2  -4  13   62.45   11.28
   2  -4  14  718.67   36.08
   2  -4  15   94.67   14.57
   2  -4  16  706.44   37.55
   2  -6 -11  677.74   26.89
   2   6 -10 1446.77   33.32
   2  -6 -10 1466.11   41.88
   2   6  -9  618.11   16.63
   2  -6  -9  598.10   22.98
   2   6  -8  778.02   18.29
   2  -6  -8  864.15   26.81
   2  -6  -7   69.23    6.92
   2  -6  -6  606.37   20.56
   2  -6  -5 1020.38   28.28
   2  -6   2 2530.28   56.07
   2  -6   3  995.92   27.91
   2  -6   4 2605.00   56.26
   2  -6   5  686.65   20.87
   2  -6   5  629.91   28.51
   2  -6   6  897.20   25.28
   2  -6   6  897.73   35.02
   2  -6   7  207.86   10.88
   2  -6   7  209.61   16.68
   2  -6   8  903.91   26.10
   2  -6   8  868.16   36.56
   2  -6   9  119.01   14.07
   2  -6  10  371.40   24.49
   2  -6  11  277.71   22.29
   2  -6  12  863.68   41.69
   2  -6  13  159.68   18.30
   2  -6  14  603.54   36.22
   2  -6  15  157.87   19.42
   2  -8  -9  437.86   19.99
   2  -8  -8  957.46   30.58
   2  -8  -7 1182.61   34.60
   2  -8  -6  311.87   15.23
   2  -8   2 1752.70   45.41
   2  -8   3 1528.14   40.62
   2  -8   4 1312.89   45.69
   2  -8   4 1251.06   34.90
   2  -8   5  266.17   19.50
   2  -8   5  263.20   13.12
   2  -8   6  667.51   21.47
   2  -8   6  574.02   30.02
   2  -8   7  215.36   18.69
   2  -8   7  235.26   11.70
   2  -8   8  899.84   26.02
   2  -8   8  766.76   37.33
   2  -8   9  373.95   26.23
   2  -8  10  267.20   22.79
   2  -8  11  167.29   18.82
   2  -8  12  260.21   24.25
   2  -8  13  332.41   27.89
   2 -10  -7  336.68   17.48
   2 -10  -6  225.22   13.86
   2 -10   2  798.84   29.16
   2 -10   3  791.80   36.71
   2 -10   3  826.59   28.95
   2 -10   4  482.69   28.32
   2 -10   4  472.85   20.71
   2 -10   5  328.48   23.83
   2 -10   5  356.01   16.77
   2 -10   6  417.78   17.22
   2 -10   6  376.98   26.29
   2 -10   7  316.32   13.90
   2 -10   7  300.44   23.99
   2 -10   8  243.36   22.25
   2 -10   9  432.21   30.24
   2 -10  10  106.15   16.93
   2 -10  11  315.18   27.81
   2 -12   2  505.88   23.56
   2 -12   2  482.50   29.54
   2 -12   3  478.87   29.90
   2 -12   3  475.80   22.65
   2 -12   4   80.05   13.48
   2 -12   4   62.63    8.66
   2 -12   5  464.31   30.86
   2 -12   6  131.85   18.25
   2 -12   7  314.16   26.60
   2 -12   8  115.36   17.88
   2 -14  -1  223.24   20.28
   2 -14   0   35.61    9.86
   2 -14   1  253.94   22.34
   2 -14   2   51.26   11.96
   2 -14   3  460.74   31.27
   2 -14   4   48.31   12.35
   2 -14   5  275.87   25.39
   3   1 -12   98.09    9.05
   3  -1 -10   66.60    8.74
   3   1  -9  238.62   15.42
   3  -1  -9  206.21   13.75
   3   1  -8   -2.94    3.88
   3  -1  -8   -0.68    3.52
   3   1  -7 2387.17   57.75
   3  -1  -7 2373.38   55.37
   3   1  -6    8.10    3.72
   3  -1  -6   10.97    3.52
   3   1  -5 7663.18  143.59
   3  -1  -5 7556.90  141.09
   3   1  -4 1151.02   29.48
   3  -1  -4 1098.74   27.59
   3  -1  -3 2508.73   50.62
   3   1  -3 2501.74   52.00
   3  -1  -2  103.66    5.63
   3   1  -2  114.98    6.17
   3   1  -1 6939.94  121.37
   3   1  -1 6723.29  122.01
   3   1   0  183.29    6.18
   3   1   1 4286.06   75.90
   3  -1   3 1506.34   33.94
   3   1   4 1732.48   35.33
   3  -1   4 1696.24   38.75
   3   1   5 2012.38   42.07
   3  -1   5 2113.35   46.06
   3  -1   5 2030.06   47.94
   3  -1   6   66.95    7.09
   3   1   6   65.12    5.45
   3  -1   6   56.03    5.81
   3   1   7 1627.68   37.87
   3   1   8   17.54    3.97
   3  -1   9 3165.42   74.97
   3   1   9 3350.66   69.89
   3  -1  10  110.62   10.52
   3  -1  11 3011.41   75.06
   3   1  11 3271.76   71.03
   3  -1  12   47.87    8.14
   3   1  12   41.85    6.83
   3  -1  13  736.77   31.36
   3   1  13  760.65   27.95
   3  -1  14   85.88   10.88
   3   1  14  115.58   11.01
   3  -1  15  587.08   28.67
   3   3 -12  143.50   10.09
   3   3 -11  840.70   25.77
   3  -3 -11  912.70   33.55
   3   3 -10  143.02    8.78
   3  -3 -10  162.83   12.52
   3   3  -9  776.23   21.95
   3  -3  -9  758.22   27.56
   3   3  -8   29.22    3.48
   3   3  -8   22.22    6.08
   3  -3  -8   27.28    5.27
   3   3  -7 2169.40   43.30
   3   3  -7 2205.00   56.82
   3  -3  -7 2137.74   50.61
   3   3  -6  759.34   27.37
   3  -3  -6  736.70   22.87
   3  -3  -5 2262.62   49.73
   3   3  -5 2303.34   54.93
   3   3  -4   41.12    5.67
   3  -3  -4   25.29    3.76
   3  -3  -3 4558.82   88.20
   3   3  -3 4740.95   92.00
   3   3  -2 1384.84   25.73
   3   3  -2 1408.03   33.55
   3   3  -1 3383.13   59.47
   3   3  -1 3271.97   64.83
   3   3   0  565.15   15.44
   3  -3   1 1167.71   29.45
   3   3   1 1147.94   24.04
   3  -3   2  502.91   16.49
   3  -3   3 3730.44   74.25
   3  -3   4  169.69    9.01
   3  -3   5  754.60   22.46
   3   3   6  193.37    6.00
   3  -3   6  215.39   11.01
   3   3   7 3130.85   58.88
   3  -3   7 3223.45   68.03
   3  -3   7 3181.91   75.39
   3   3   8   63.74    4.47
   3  -3   8   63.55    9.29
   3  -3   8   69.68    7.10
   3   3   9 2581.11   51.76
   3  -3   9 2404.99   65.49
   3   3  10  181.85    9.21
   3  -3  10  181.52   15.25
   3   3  11 1898.88   42.61
   3  -3  11 1665.03   54.66
   3  -3  12  118.39   13.91
   3  -3  13 1128.56   43.68
   3  -3  14   64.65   11.61
   3  -3  15  413.73   26.71
   3  -3  16   27.21    9.10
   3  -5 -11  878.99   32.86
   3  -5 -10  108.09   10.47
   3   5 -10  117.55    6.98
   3   5  -9  760.64   19.34
   3  -5  -9  730.48   26.88
   3   5  -8  113.18    5.29
   3  -5  -8  125.64    9.90
   3  -5  -7 1089.13   29.79
   3   5  -7 1093.02   37.55
   3  -5  -6   71.85    6.91
   3   5  -6   74.18    9.05
   3  -5  -5 1977.99   46.39
   3   5  -5 2068.37   54.07
   3   5  -4 1255.96   37.60
   3   5  -3 3666.06   79.56
   3   5  -2  910.76   28.18
   3  -5   2  477.70   18.01
   3  -5   3  740.03   23.34
   3  -5   4   18.47    3.98
   3  -5   5 1212.86   32.16
   3  -5   6  306.48   19.40
   3  -5   6  336.43   14.49
   3  -5   7 1741.94   43.02
   3  -5   7 1750.47   53.18
   3  -5   8  865.94   36.00
   3  -5   8  986.53   29.34
   3  -5   9 1129.40   32.66
   3  -5   9 1061.37   41.52
   3  -5  10  326.49   22.53
   3  -5  11 1241.98   47.79
   3  -5  12  404.48   26.76
   3  -5  13  740.85   37.82
   3  -5  14   64.34   12.67
   3  -5  15  353.95   27.37
   3  -7 -10  248.30   15.63
   3  -7  -9  206.60   13.78
   3  -7  -8  294.77   15.96
   3  -7  -7  294.80   15.35
   3  -7  -6  743.96   25.37
   3  -7   2  637.80   23.65
   3  -7   3  488.73   20.10
   3  -7   4  981.32   30.01
   3  -7   5  916.93   28.41
   3  -7   5  928.85   37.62
   3  -7   6  179.09   11.21
   3  -7   6  178.69   16.35
   3  -7   7 1149.37   32.54
   3  -7   7 1055.25   42.65
   3  -7   8  336.80   15.79
   3  -7   8  339.48   23.52
   3  -7   9 1022.84   30.67
   3  -7   9  965.33   42.39
   3  -7  10  557.13   32.56
   3  -7  11  916.30   43.33
   3  -7  12  191.93   21.07
   3  -7  13  372.74   29.00
   3  -7  14  252.90   24.52
   3  -9  -8   85.05    9.40
   3  -9  -7  621.27   25.08
   3  -9  -6 1285.69   38.21
   3  -9   2  284.59   16.40
   3  -9   3  511.79   22.49
   3  -9   4  455.93   20.81
   3  -9   5  439.39   26.87
   3  -9   5  426.43   19.47
   3  -9   6  279.14   14.88
   3  -9   6  273.52   21.73
   3  -9   7  506.45   20.23
   3  -9   7  515.69   31.17
   3  -9   8  414.11   17.71
   3  -9   8  385.14   27.85
   3  -9   9  237.81   13.12
   3  -9   9  225.04   21.48
   3  -9  10  706.30   39.70
   3  -9  11  326.68   27.28
   3  -9  12  334.48   29.08
   3 -11   2  794.71   30.85
   3 -11   3  403.39   21.26
   3 -11   4  119.54   16.02
   3 -11   4  125.95   11.70
   3 -11   5   85.10   14.06
   3 -11   5   81.78    9.54
   3 -11   6  423.17   19.40
   3 -11   6  406.43   28.86
   3 -11   7  282.08   25.01
   3 -11   8  502.25   33.78
   3 -11   9  119.78   17.86
   3 -13   1  111.26   12.34
   3 -13   2  473.10   30.92
   3 -13   2  481.07   24.43
   3 -13   3   18.10    9.95
   3 -13   4  310.61   26.03
   3 -13   5   68.97   14.27
   3 -13   6  260.88   25.49
   3 -15  -1   14.32    8.32
   3 -15   0  207.77   21.12
   3 -15   1   49.59   13.20
   3 -15   2  231.89   23.51
   4   0  -9    1.01    4.72
   4   0  -8 2783.98   66.42
   4   0  -7    1.97    3.09
   4   0  -6 4667.34   95.31
   4   0  -5    3.95    3.15
   4   0  -4 1895.34   42.85
   4   0  -3   -0.21    1.96
   4   0  -2 1304.13   29.65
   4   0  -1    0.77    1.80
   4   0   0 1882.34   38.01
   4   0   5    0.46    2.67
   4   0   5    3.89    3.16
   4   0   6 8005.23  151.10
   4   0   6 8171.47  152.46
   4   0   7    0.05    2.97
   4   0   8 2051.36   49.90
   4   0  10 1678.48   45.10
   4   0  11   -1.72    3.81
   4   0  12  836.73   30.79
   4   0  13   -5.25    5.11
   4   0  14  176.43   14.17
   4   2 -12 1454.94   38.97
   4   2 -11  150.45    9.79
   4  -2 -10 1101.38   37.32
   4  -2  -9  491.87   21.89
   4   2  -8 2882.73   70.30
   4  -2  -8 2818.66   66.08
   4   2  -7    3.40    3.93
   4  -2  -7    2.15    3.10
   4   2  -6 3702.83   82.22
   4  -2  -6 3860.41   79.00
   4   2  -5    1.74    2.92
   4  -2  -5    1.20    2.68
   4  -2  -4 1247.32   31.11
   4   2  -4 1221.45   33.00
   4  -2  -3  170.58    8.80
   4   2  -3  179.55    7.04
   4   2  -3  176.64    9.57
   4   2  -2 1129.88   24.47
   4   2  -2 1149.44   28.35
   4   2  -1  137.26    6.95
   4   2  -1  157.39    6.52
   4   2   0  965.80   22.55
   4   2   0  974.29   22.11
   4   2   1  919.11   22.56
   4   2   1  909.34   19.68
   4   2   2 3711.83   65.64
   4  -2   2 3666.81   73.98
   4  -2   3  112.52    7.64
   4  -2   4 5259.92  101.44
   4   2   4 5067.56   93.11
   4  -2   5  133.20    8.95
   4   2   5  131.72    5.61
   4  -2   6 2868.81   62.35
   4   2   6 2802.74   54.40
   4  -2   7  444.74   18.38
   4   2   7  418.46   13.27
   4  -2   8 2531.19   64.65
   4  -2   8 2651.88   61.11
   4   2   8 2664.14   54.23
   4  -2   9    6.20    5.18
   4   2   9    8.00    2.91
   4  -2  10 1654.05   50.07
   4   2  10 1742.01   40.85
   4  -2  11    3.60    5.00
   4  -2  12  320.96   20.32
   4  -2  13   21.55    8.02
   4  -2  14  756.87   34.12
   4  -2  15   51.41   10.15
   4   4 -11   32.20    4.56
   4   4 -10  695.51   20.02
   4  -4 -10  698.53   28.28
   4   4  -9   25.30    3.28
   4  -4  -9   28.81    5.83
   4   4  -8 2564.33   50.05
   4  -4  -8 2612.00   61.59
   4   4  -7  722.40   16.63
   4  -4  -7  727.46   25.10
   4   4  -7  757.33   29.76
   4  -4  -6 3204.45   68.36
   4   4  -6 3085.00   56.18
   4   4  -6 3314.00   75.20
   4   4  -5   19.57    5.23
   4  -4  -5   22.26    4.16
   4  -4  -4  106.11    7.67
   4   4  -4  103.69    8.98
   4   4  -3  574.18   20.87
   4   4  -2 3690.66   75.93
   4   4  -1 1855.19   42.16
   4   4   0 1968.59   42.18
   4   4   1    7.40    2.00
   4  -4   1    6.72    3.43
   4  -4   2 2606.52   58.26
   4  -4   3   96.03    7.84
   4  -4   4 5660.94  110.82
   4  -4   5  901.81   27.21
   4  -4   6 2572.93   58.49
   4  -4   6 2519.72   67.12
   4  -4   7  448.70   18.70
   4  -4   7  439.55   23.23
   4  -4   8 2386.26   56.13
   4  -4   8 2079.88   61.99
   4  -4   9  667.42   24.68
   4  -4   9  613.02   29.82
   4  -4  10 1101.36   42.36
   4  -4  11   53.75    9.96
   4  -4  12  236.91   19.99
   4  -4  13   40.62   11.05
   4  -4  14  577.11   32.75
   4  -4  15   60.16   12.67
   4  -4  16  519.80   32.51
   4  -6 -10  971.71   34.55
   4  -6  -9   97.25   10.07
   4  -6  -8 1618.43   44.98
   4  -6  -7  961.47   31.08
   4  -6  -6 1101.50   33.38
   4   6  -6 1178.19   40.31
   4  -6  -5  110.65    8.89
   4   6  -5  112.12   11.26
   4   6  -4 1452.69   43.41
   4   6  -3   43.66    6.94
   4   6  -2  853.32   28.87
   4  -6   1   49.26    7.00
   4  -6   2 1382.04   38.97
   4  -6   3 1217.46   35.63
   4  -6   4 1113.68   33.32
   4  -6   5  556.22   21.56
   4  -6   6 3339.83   73.17
   4  -6   6 3294.85   86.46
   4  -6   7  417.62   25.69
   4  -6   7  489.72   20.18
   4  -6   8 1150.89   34.39
   4  -6   8 1076.01   43.55
   4  -6   9  565.08   22.83
   4  -6   9  517.78   29.78
   4  -6  10  695.89   25.91
   4  -6  10  599.10   33.18
   4  -6  11   66.67   12.49
   4  -6  12  374.07   27.16
   4  -6  13   44.42   12.07
   4  -6  14  224.60   23.46
   4  -8  -8  756.19   28.98
   4  -8  -7  605.71   24.75
   4  -8  -6  521.66   22.30
   4  -8   1 1244.49   38.96
   4  -8   2 1061.18   35.08
   4  -8   3  916.57   31.86
   4  -8   4  397.84   19.52
   4  -8   5 1135.72   35.97
   4  -8   6 1155.61   35.45
   4  -8   6 1133.01   46.10
   4  -8   7  542.75   22.17
   4  -8   7  527.45   30.69
   4  -8   8  606.81   23.98
   4  -8   8  613.95   34.66
   4  -8   9  303.50   16.45
   4  -8   9  246.47   22.42
   4  -8  10  351.00   17.63
   4  -8  10  322.02   26.00
   4  -8  11  321.68   27.06
   4  -8  12  314.02   27.28
   4 -10   1  522.28   24.75
   4 -10   2  481.60   23.57
   4 -10   3  458.18   23.02
   4 -10   4  860.13   32.49
   4 -10   5  336.33   25.67
   4 -10   5  342.92   19.25
   4 -10   6  200.54   20.59
   4 -10   6  225.49   14.90
   4 -10   7  750.56   27.79
   4 -10   7  659.66   38.23
   4 -10   8  268.73   15.68
   4 -10   8  267.10   24.14
   4 -10   9  390.39   30.36
   4 -10  10  217.45   23.57
   4 -12   1  387.14   22.20
   4 -12   2  130.14   13.39
   4 -12   3  651.04   29.15
   4 -12   4  116.46   16.29
   4 -12   4  118.80   12.44
   4 -12   5  431.96   31.93
   4 -12   5  500.52   24.72
   4 -12   6  111.11   16.86
   4 -12   7  477.20   33.93
   4 -14   0   68.11   11.30
   4 -14   1  359.92   22.39
   4 -14   2   51.16   13.51
   4 -14   3  215.56   23.03
   5  -1  -9  962.11   33.84
   5   1  -8  501.70   22.93
   5  -1  -8  525.56   22.48
   5   1  -7 1206.85   37.45
   5  -1  -7 1280.00   36.58
   5   1  -6   49.31    6.20
   5  -1  -6   46.15    6.03
   5   1  -5  665.96   23.05
   5  -1  -5  675.86   22.50
   5  -1  -4   53.44    5.62
   5   1  -4   54.85    5.80
   5  -1  -3 6232.32  118.65
   5   1  -3 6387.68  119.37
   5  -1  -2  345.74   13.13
   5   1  -2  383.89   13.14
   5   1  -2  368.56   13.23
   5   1  -1 3713.77   72.33
   5  -1  -1 3778.02   73.44
   5   1  -1 3822.55   73.59
   5   1   0    9.33    2.11
   5   1   0    5.20    2.49
   5   1   1 5897.48  106.47
   5  -1   4  319.49   14.19
   5  -1   5 2244.89   52.31
   5  -1   6  158.15   11.48
   5  -1   6  143.38   10.25
   5   1   6  168.84   11.02
   5   1   6  149.13    8.63
   5  -1   7 1552.85   41.86
   5   1   7 1570.72   37.61
   5  -1   8   86.78    8.81
   5   1   8   68.23    6.67
   5  -1   9 1451.55   42.65
   5   1   9 1436.22   37.48
   5  -1  10   21.51    6.02
   5  -1  11  813.74   31.67
   5  -1  12   21.89    6.48
   5   1  12   23.13    5.15
   5  -1  13 1371.67   45.05
   5  -1  14   78.18   10.42
   5   3 -11 1731.00   41.06
   5  -3  -9  706.44   27.76
   5  -3  -8  236.69   14.49
   5   3  -7  751.80   29.53
   5  -3  -7  753.10   26.53
   5   3  -6   -2.35    3.88
   5  -3  -6    6.23    3.07
   5  -3  -5  983.03   28.92
   5   3  -5  965.51   23.08
   5   3  -5 1030.95   32.10
   5  -3  -4  173.61   10.12
   5   3  -4  162.29    6.74
   5   3  -4  164.96   10.85
   5  -3  -3 2699.62   57.97
   5   3  -3 2705.29   59.73
   5   3  -3 2692.60   51.65
   5   3  -2 1418.24   30.02
   5   3  -2 1419.41   35.12
   5   3  -1 9974.86  176.31
   5   3  -1 9882.96  179.65
   5   3   0  423.36   15.59
   5   3   0  624.01   16.89
   5   3   1 7287.58  131.00
   5  -3   1 7068.26  136.74
   5   3   1 7135.98  127.83
   5   3   2  312.43   12.44
   5  -3   2  309.57   14.62
   5   3   2  305.37    8.96
   5   3   3 3137.87   56.77
   5  -3   3 3374.41   69.54
   5  -3   4  183.13   11.21
   5  -3   5 1883.80   46.50
   5  -3   6   78.98    7.83
   5  -3   7  407.82   18.21
   5  -3   7  402.99   21.72
   5   3   7  386.35    9.79
   5  -3   8  253.67   15.16
   5  -3   8  230.83   16.80
   5   3   8  235.33    7.88
   5  -3   9 1225.51   37.86
   5  -3   9 1148.21   41.85
   5   3   9 1249.78   27.21
   5  -3  10   68.82   10.65
   5   3  10   68.83    4.93
   5   3  11 1186.68   28.09
   5  -3  11 1045.02   41.43
   5  -3  12   16.83    6.87
   5  -3  13  816.74   37.15
   5  -3  14  114.52   14.20
   5  -3  15  981.06   42.51
   5   5 -10  166.70    7.23
   5   5  -9  966.92   21.45
   5  -5  -9 1132.95   36.30
   5  -5  -8   14.89    5.24
   5   5  -8    9.58    1.40
   5   5  -8   10.25    1.21
   5  -5  -7  711.32   26.14
   5  -5  -6  335.04   16.52
   5   5  -6  352.56   19.53
   5   5  -5  650.00   26.47
   5  -5  -5  666.08   23.42
   5  -5  -4  479.59   19.04
   5   5  -4  511.31   21.91
   5   5  -3 1334.28   38.07
   5   5  -2  325.13   15.59
   5   5  -1 2567.33   56.78
   5   5   0 2187.36   48.43
   5  -5   1 3980.06   86.01
   5   5   1 3936.93   76.93
   5  -5   2  222.63   13.49
   5  -5   3 1127.35   34.10
   5  -5   4  138.49   10.64
   5  -5   5 1965.39   49.91
   5  -5   6  539.26   21.78
   5  -5   7 1474.93   41.28
   5  -5   7 1385.66   49.29
   5  -5   8   91.14   12.14
   5  -5   8  111.44   10.18
   5  -5   9  956.70   32.68
   5  -5   9  831.76   38.29
   5  -5  10  230.35   15.17
   5  -5  10  235.28   20.13
   5  -5  11  644.52   34.55
   5  -5  12   51.01   11.03
   5  -5  13  687.80   37.56
   5  -5  14  131.25   17.42
   5  -5  15  509.33   33.06
   5  -7  -7  724.02   27.91
   5  -7  -6  131.71   11.20
   5  -7  -5  469.08   20.54
   5   7  -5  483.87   24.77
   5   7  -4  136.42   12.40
   5   7  -3 2588.02   65.76
   5  -7   1 2103.54   55.68
   5  -7   2 1178.07   37.72
   5  -7   3 1302.70   40.09
   5  -7   4 1118.89   36.26
   5  -7   5  191.64   13.92
   5  -7   6  349.97   18.42
   5  -7   7 1390.74   41.20
   5  -7   7 1298.84   51.35
   5  -7   8  157.98   17.40
   5  -7   8  137.66   11.77
   5  -7   9  565.92   24.65
   5  -7   9  590.07   34.17
   5  -7  10  147.67   18.13
   5  -7  10  200.35   14.42
   5  -7  11  253.31   24.02
   5  -7  12  135.84   18.10
   5  -7  13  566.00   36.61
   5  -9   1  724.58   30.10
   5  -9   2  986.26   35.87
   5  -9   3  473.21   23.70
   5  -9   4  488.13   23.97
   5  -9   5  568.89   25.95
   5  -9   6  235.01   22.10
   5  -9   6  218.03   15.44
   5  -9   7  160.25   13.34
   5  -9   7  139.11   17.80
   5  -9   8  299.79   17.76
   5  -9   8  267.90   24.71
   5  -9   9  433.86   21.60
   5  -9   9  439.35   31.70
   5  -9  10  241.33   15.91
   5  -9  10  258.44   25.77
   5  -9  11  394.26   31.54
   5 -11   1  373.39   22.05
   5 -11   2  505.41   25.93
   5 -11   3  129.88   13.14
   5 -11   4  361.49   21.63
   5 -11   5  286.10   19.11
   5 -11   5  236.04   23.56
   5 -11   6  497.48   34.12
   5 -11   6  481.59   24.31
   5 -11   7  198.04   15.13
   5 -11   7  163.07   20.70
   5 -11   8  258.99   25.64
   5 -13   0  509.79   27.43
   5 -13   1   71.56   11.01
   5 -13   2  331.22   21.74
   5 -13   3  119.43   13.79
   5 -13   4  292.28   26.72
   5 -13   5  -12.01   10.53
   6   0  -8 2470.61   63.08
   6   0  -7   -2.10    3.97
   6   0  -6 5658.92  114.56
   6   0  -5    3.09    3.30
   6   0  -4 4220.48   86.05
   6   0  -3    0.24    2.55
   6   0  -2 6612.86  124.63
   6   0  -2 6704.13  126.63
   6   0  -1   -0.18    2.00
   6   0  -1    0.20    2.65
   6   0   0  166.46    8.27
   6   0   5    1.45    3.33
   6   0   6 2743.63   64.13
   6   0   7    5.98    4.06
   6   0   7    2.51    4.76
   6   0   8 1888.65   50.42
   6   0  10 1657.74   46.05
   6   0  11   -0.54    4.50
   6   0  12  623.88   25.85
   6  -2  -8 1131.84   36.44
   6   2  -7  540.38   23.62
   6  -2  -7  532.22   22.00
   6   2  -6 2358.66   58.62
   6  -2  -6 2330.56   55.98
   6   2  -5   33.09    5.67
   6  -2  -5   24.72    4.70
   6  -2  -4 6332.03  123.63
   6   2  -4 6456.83  119.53
   6   2  -4 6392.26  125.26
   6  -2  -3  120.97    8.40
   6   2  -3  130.53    7.51
   6   2  -3  140.85    9.17
   6  -2  -2 3797.36   77.29
   6   2  -2 3778.91   74.56
   6   2  -2 3904.54   77.18
   6   2  -1 1413.77   33.04
   6   2  -1 1403.91   33.30
   6   2   0 5032.92   95.16
   6   2   0 4925.21   93.38
   6   2   1   76.20    4.91
   6   2   1   77.65    6.17
   6   2   2 1964.12   39.42
   6   2   3  121.73    5.42
   6  -2   3  125.98    9.58
   6  -2   4 2582.22   59.33
   6  -2   5  148.85   10.58
   6   2   5  161.44   10.72
   6  -2   6 2418.92   58.13
   6   2   6 2375.10   48.87
   6  -2   7   10.28    5.18
   6  -2   7   -0.03    5.02
   6   2   7    1.52    2.10
   6  -2   8 2014.40   53.15
   6  -2   8 1875.08   55.06
   6   2   8 2024.22   43.47
   6  -2   9  235.08   16.91
   6  -2   9  258.00   16.06
   6   2   9  253.19   11.19
   6  -2  10 1182.03   42.33
   6   2  10 1331.82   32.83
   6  -2  11    0.37    5.32
   6   2  11    5.70    3.29
   6  -2  12  931.85   37.99
   6  -2  13    5.13    5.91
   6  -2  14  677.65   32.23
   6   4 -10  678.87   18.95
   6  -4  -8 1901.31   52.11
   6  -4  -7  245.56   14.74
   6   4  -7  250.55    9.43
   6   4  -6 1455.75   31.07
   6  -4  -6 1476.39   41.26
   6   4  -6 1602.96   45.85
   6  -4  -5  231.04   13.34
   6   4  -5  202.78   14.18
   6   4  -5  196.02    7.32
   6  -4  -4 3354.52   72.64
   6   4  -4 3477.41   76.23
   6   4  -4 3286.41   62.30
   6   4  -3 1067.90   24.12
   6   4  -3 1100.15   32.73
   6   4  -2 2249.97   45.01
   6   4  -2 2159.45   51.84
   6   4  -1  361.40   12.40
   6   4  -1  371.48   14.95
   6   4   0 2256.64   47.29
   6  -4   0 2200.48   55.40
   6   4   0 2155.86   47.90
   6   4   1  128.43    7.96
   6  -4   1  122.67   10.40
   6   4   1  125.68    7.02
   6  -4   2 1636.87   45.14
   6   4   2 1697.72   35.04
   6   4   3   37.50    2.51
   6  -4   3   34.88    5.97
   6  -4   4  705.58   25.77
   6  -4   5   44.86    6.71
   6  -4   6 2010.85   52.01
   6  -4   7  159.53   12.30
   6  -4   8 1446.22   43.28
   6  -4   8 1479.00   50.55
   6  -4   9  228.63   15.84
   6  -4   9  216.22   18.27
   6  -4  10  972.69   34.86
   6  -4  10  904.19   39.49
   6  -4  11   59.78   11.13
   6  -4  12  855.91   39.71
   6  -4  13   73.46   12.85
   6  -4  14  373.74   26.78
   6  -4  15    6.74    8.15
   6  -6  -6 2256.96   57.68
   6  -6  -5  467.54   20.69
   6   6  -5  503.82   24.08
   6   6  -4 1612.42   47.18
   6   6  -3 1389.24   41.02
   6   6  -2 1354.41   38.96
   6   6  -1  151.95   10.52
   6  -6   0  985.65   34.20
   6   6   0  939.60   28.14
   6  -6   1  637.43   26.20
   6  -6   2  575.18   24.75
   6  -6   3  519.22   23.28
   6  -6   4 1392.19   42.32
   6  -6   5  295.92   17.29
   6  -6   6 1632.34   46.75
   6  -6   7  749.26   28.88
   6  -6   8 1517.14   45.45
   6  -6   8 1487.91   55.52
   6  -6   9  157.70   18.09
   6  -6   9  220.72   15.60
   6  -6  10  687.59   37.65
   6  -6  10  800.79   31.36
   6  -6  11   92.60   14.64
   6  -6  11  119.90   12.60
   6  -6  12  273.72   24.47
   6  -6  13  148.38   18.95
   6  -6  14  247.10   24.43
   6  -8   0 1530.60   47.51
   6  -8   1   71.63   10.03
   6  -8   2  308.26   19.19
   6  -8   3  356.41   20.62
   6  -8   4  525.69   25.30
   6  -8   5  751.98   31.00
   6  -8   6  795.35   31.48
   6  -8   7   53.33    9.25
   6  -8   7   35.65   10.64
   6  -8   8  463.52   23.45
   6  -8   8  462.92   31.47
   6  -8   9  440.04   22.88
   6  -8   9  399.34   30.38
   6  -8  10  671.41   29.37
   6  -8  10  560.60   37.03
   6  -8  11  213.65   16.03
   6  -8  11  205.49   22.80
   6  -8  12  331.63   29.14
   6 -10   0  218.41   17.19
   6 -10   1  390.28   22.70
   6 -10   2  347.55   21.50
   6 -10   3  301.89   20.18
   6 -10   4  150.29   14.26
   6 -10   5  605.87   28.94
   6 -10   6  695.83   40.22
   6 -10   6  606.51   28.73
   6 -10   7  320.14   20.10
   6 -10   7  341.06   28.41
   6 -10   8  197.57   15.96
   6 -10   8  162.90   20.64
   6 -10   9  333.69   29.77
   6 -12   0   57.44   11.07
   6 -12   1  421.86   24.86
   6 -12   2  119.74   13.81
   6 -12   3  233.15   18.53
   6 -12   4  172.68   16.18
   6 -12   5  402.03   31.68
   6 -12   5  412.75   24.99
   6 -12   6  192.35   23.01
   6 -14  -1  369.70   24.71
   6 -14   0   49.01   11.05
   6 -14   1  257.44   20.73
   7   1  -7 1445.10   43.04
   7  -1  -7 1409.47   41.61
   7   1  -6   17.10    4.91
   7  -1  -6   21.95    5.43
   7   1  -5 2610.91   61.43
   7  -1  -5 2608.89   60.59
   7   1  -4   24.93    4.66
   7  -1  -4   19.57    4.26
   7   1  -4   31.56    5.33
   7  -1  -3 2063.09   48.86
   7   1  -3 2105.00   48.45
   7   1  -3 2112.51   49.03
   7  -1  -2  352.12   14.66
   7   1  -2  358.68   14.83
   7   1  -2  339.39   14.16
   7   1  -1 2156.56   48.10
   7  -1  -1 2207.46   49.05
   7   1  -1 2246.00   50.05
   7   1   0  192.13    9.37
   7   1   0  201.97   10.90
   7   1   1 2198.53   46.38
   7   1   2    4.64    2.27
   7  -1   4    0.44    3.29
   7  -1   5 3804.61   83.62
   7   1   5 3899.99   83.47
   7  -1   6   -3.95    4.71
   7   1   6    7.07    4.71
   7  -1   7 1099.00   35.15
   7   1   7 1091.93   34.75
   7   1   7 1014.48   30.04
   7  -1   8   31.22    6.82
   7  -1   8   18.34    6.06
   7   1   8   30.60    5.30
   7  -1   9  681.46   28.31
   7  -1   9  663.59   27.72
   7   1   9  697.37   23.76
   7  -1  10   35.96    7.59
   7  -1  11  802.10   31.72
   7  -1  12    6.33    6.65
   7  -3  -7 1907.98   51.26
   7  -3  -6  151.00   11.28
   7   3  -6  154.13    8.74
   7   3  -6  139.70   11.91
   7  -3  -5  194.85   12.51
   7   3  -5  190.21    9.44
   7   3  -5  182.82   13.07
   7  -3  -4  162.07   11.01
   7   3  -4  151.63    8.30
   7   3  -4  149.40   11.02
   7  -3  -3 2257.58   52.91
   7   3  -3 2305.52   53.47
   7   3  -3 2135.74   46.98
   7   3  -2  185.91   10.92
   7   3  -2  193.10    9.48
   7   3  -1 3574.06   70.27
   7   3  -1 3400.99   71.70
   7   3   0  371.67   14.37
   7   3   0  342.79   13.35
   7   3   1 1960.03   42.22
   7  -3   2  374.30   18.63
   7   3   2  416.33   12.83
   7   3   3 5495.13  107.05
   7  -3   3 5151.10  109.68
   7   3   3 5298.35   96.63
   7   3   4   70.56    7.37
   7  -3   4   72.69    8.43
   7   3   4   66.94    3.85
   7   3   5 1055.11   21.95
   7  -3   5 1104.57   34.64
   7   3   5 1091.82   33.11
   7  -3   6   15.34    5.31
   7   3   6   18.77    1.76
   7   3   6   11.97    1.82
   7   3   7  401.28    9.64
   7  -3   7  415.45   20.25
   7   3   7  375.64   10.09
   7  -3   8   26.23    6.69
   7  -3   8   14.53    6.34
   7   3   8   18.17    2.09
   7  -3   9 1414.47   43.60
   7  -3   9 1251.68   46.02
   7   3   9 1291.16   26.86
   7  -3  10   91.46   12.38
   7  -3  10   95.93   11.01
   7  -3  11  604.54   31.28
   7  -3  12   35.53    9.08
   7  -3  13 1004.16   42.88
   7  -3  14   44.83   12.13
   7   5 -10   32.15    3.55
   7   5  -9 1335.79   27.10
   7   5  -9 1310.34   28.16
   7   5  -8  556.68   13.63
   7   5  -7 1326.70   26.49
   7   5  -6  245.28    7.39
   7  -5  -5 1383.06   40.53
   7   5  -5 1397.17   28.46
   7   5  -5 1426.06   43.45
   7  -5  -4   80.51    8.43
   7   5  -4   80.52    9.12
   7   5  -4   72.67    4.34
   7   5  -3  695.09   18.00
   7   5  -3  710.05   26.42
   7   5  -2  564.82   16.63
   7   5  -2  547.57   21.60
   7  -5  -1 2104.95   57.03
   7   5  -1 2105.25   44.95
   7   5  -1 2069.40   49.76
   7   5   0   34.42    4.81
   7   5   0   30.03    4.17
   7  -5   0   45.36    8.47
   7  -5   1 1297.55   40.81
   7   5   1 1263.22   31.55
   7   5   2  673.68   18.53
   7  -5   2  678.74   27.43
   7  -5   3 2595.34   61.33
   7   5   3 2179.61   43.13
   7  -5   4  546.04   24.54
   7  -5   5 2024.16   54.69
   7  -5   6   15.10    5.25
   7  -5   7  558.11   25.13
   7  -5   8  476.14   23.89
   7  -5   8  457.90   28.62
   7  -5   9  980.10   36.13
   7  -5   9  914.09   42.16
   7  -5  10   21.91    7.12
   7  -5  10   23.31    8.47
   7  -5  11  512.46   31.74
   7  -5  11  514.38   26.36
   7  -5  12   78.02   13.58
   7  -5  13  329.15   26.72
   7  -5  14  188.19   21.13
   7   7  -4  430.76   22.70
   7   7  -3  275.14   17.26
   7   7  -2  518.93   22.97
   7   7  -1  437.98   19.90
   7  -7   0  387.87   21.79
   7   7   0  386.70   17.52
   7  -7   1 2186.62   60.97
   7  -7   2  220.23   16.60
   7  -7   3  632.68   28.49
   7  -7   4  865.96   34.09
   7  -7   5 1167.42   40.55
   7  -7   6  115.17   12.15
   7  -7   7  757.60   31.42
   7  -7   8  163.18   14.41
   7  -7   8  201.10   21.10
   7  -7   9  353.01   21.00
   7  -7   9  292.09   26.18
   7  -7  10  248.14   18.37
   7  -7  10  199.01   22.01
   7  -7  11  607.85   29.15
   7  -7  11  538.91   36.35
   7  -7  12  119.29   17.83
   7  -9   0  624.85   30.12
   7  -9   1  533.22   27.48
   7  -9   2  418.73   23.97
   7  -9   3  704.73   31.83
   7  -9   4  537.70   27.76
   7  -9   5  424.60   24.56
   7  -9   6  450.08   24.91
   7  -9   7  142.48   14.41
   7  -9   7  173.38   20.87
   7  -9   8   58.93    9.81
   7  -9   8   62.17   14.69
   7  -9   9  245.37   18.42
   7  -9   9  235.37   25.49
   7  -9  10  288.08   19.96
   7  -9  10  249.92   26.09
   7 -11  -1  172.90   16.72
   7 -11   0  245.59   19.00
   7 -11   1   77.05   11.76
   7 -11   2  453.46   26.20
   7 -11   3  287.69   20.94
   7 -11   4  562.50   29.73
   7 -11   5  395.00   24.96
   7 -11   6  255.33   20.02
   7 -11   7  206.06   17.52
   7 -11   7  172.80   22.21
   7 -13  -1   68.51   11.80
   7 -13   0  298.02   22.01
   7 -13   1  111.03   13.94
   7 -13   2  267.98   20.92
   7 -13   3   47.48   10.49
   8   0  -6  346.59   18.17
   8   0  -5   -0.50    3.30
   8   0  -4 5478.65  110.72
   8   0  -3    0.03    2.97
   8   0  -2 5104.79  101.57
   8   0  -1    1.46    2.37
   8   0   0  133.40    8.52
   8   0   1    0.72    2.65
   8   0   1    1.26    3.20
   8   0   3    0.17    3.29
   8   0   4 1189.97   35.74
   8   0   5   -1.96    4.24
   8   0   6 1230.04   38.17
   8   0   7    2.73    4.54
   8   0   8 3791.32   88.13
   8   0   9   -2.97    4.23
   8   0   9   -7.48    5.96
   8   0  10 1100.45   35.80
   8   0  11   -1.47    4.69
   8   2  -6 2011.53   48.53
   8   2  -6 2038.21   54.48
   8  -2  -6 1953.49   52.23
   8   2  -5   55.95    7.32
   8  -2  -5   55.59    7.09
   8   2  -5   49.17    5.97
   8  -2  -4 2506.44   59.51
   8   2  -4 2523.32   56.34
   8   2  -4 2513.95   59.97
   8  -2  -3  373.27   17.13
   8  -2  -3  351.21   18.84
   8   2  -3  394.80   15.99
   8   2  -3  395.89   17.34
   8  -2  -2 3657.99   77.98
   8  -2  -2 3691.06   82.64
   8   2  -2 3735.62   76.29
   8   2  -2 3624.11   76.90
   8   2  -1    8.70    3.09
   8   2   0 2571.28   55.07
   8   2   1  154.01    8.35
   8   2   2 1064.76   26.61
   8   2   2 1127.38   32.20
   8  -2   2 1069.98   34.15
   8   2   3    6.23    3.94
   8   2   3   10.81    2.67
   8  -2   3   13.02    5.20
   8  -2   4  898.88   31.07
   8   2   4  912.70   22.59
   8   2   4  916.70   29.93
   8  -2   5  116.54   10.73
   8   2   5  148.42   11.69
   8  -2   6  432.78   21.17
   8   2   6  408.03   19.93
   8  -2   7  132.75   12.08
   8   2   7  125.03   11.64
   8   2   7  124.66    8.09
   8  -2   8 2213.44   59.77
   8  -2   8 2153.06   63.35
   8   2   8 2193.16   48.23
   8  -2   9   96.04   12.03
   8  -2   9  125.47   12.57
   8   2   9  106.32    7.42
   8  -2  10 1356.86   45.26
   8  -2  10 1231.53   45.07
   8  -2  11   48.50    8.92
   8  -2  12 1171.50   43.98
   8   4  -9  111.97    7.90
   8   4  -8  326.37   13.10
   8   4  -7  156.85    8.49
   8   4  -6 1970.65   42.79
   8   4  -5  187.51   13.89
   8   4  -5  167.12    8.54
   8  -4  -4 1721.03   46.42
   8   4  -4 1685.62   47.27
   8   4  -4 1726.89   38.61
   8   4  -3  117.86    7.36
   8  -4  -3  107.29    9.48
   8   4  -3  102.87    9.37
   8   4  -2 2268.96   49.15
   8  -4  -2 2271.11   60.57
   8   4  -2 2270.18   54.82
   8   4  -1  279.96   12.36
   8  -4  -1  268.76   17.32
   8   4  -1  264.97   13.50
   8  -4   0 2945.58   72.42
   8   4   0 2920.98   62.94
   8  -4   1   78.68    9.85
   8   4   1   88.31    6.77
   8   4   2 1006.45   30.05
   8  -4   2  939.91   33.90
   8   4   2  968.81   24.98
   8   4   3  920.25   29.06
   8   4   3  932.30   22.47
   8  -4   3  925.83   33.31
   8   4   4 1366.34   38.45
   8   4   4 1311.81   27.35
   8  -4   4 1348.90   41.80
   8  -4   5   10.16    5.43
   8  -4   6  601.70   26.24
   8  -4   7   66.65    9.25
   8  -4   8 1288.64   42.87
   8  -4   8 1257.56   49.88
   8  -4   9  423.23   23.52
   8  -4   9  394.07   26.37
   8  -4  10 1992.49   58.57
   8  -4  10 1848.47   63.84
   8  -4  11   86.72   13.47
   8  -4  11   87.35   11.96
   8  -4  12  649.36   35.52
   8  -4  13  122.88   16.06
   8   6  -4 2020.65   56.31
   8   6  -3  272.54   16.45
   8   6  -2  907.83   31.26
   8  -6  -1  300.59   19.84
   8   6  -1  312.53   16.00
   8  -6   0  383.98   22.02
   8   6   0  423.31   17.74
   8   6   1  197.00   11.03
   8  -6   1  233.45   16.95
   8   6   2 1783.88   40.11
   8  -6   2 1795.31   53.38
   8  -6   3   54.08    8.95
   8  -6   4  476.59   24.52
   8  -6   5  113.86   12.30
   8  -6   6  554.91   26.63
   8  -6   7  182.09   15.61
   8  -6   8 1494.24   48.92
   8  -6   8 1522.02   60.33
   8  -6   9  385.11   23.17
   8  -6   9  373.62   28.76
   8  -6  10  648.01   30.85
   8  -6  10  572.90   36.16
   8  -6  11  268.32   19.88
   8  -6  11  200.63   22.12
   8  -6  12  512.79   35.14
   8  -6  13  146.99   19.55
   8   8  -3  889.75   34.97
   8   8  -2  849.10   32.61
   8  -8  -1  631.26   30.30
   8   8  -1  650.07   26.65
   8  -8   0  856.00   36.01
   8  -8   1  236.16   18.56
   8  -8   2  818.79   34.92
   8  -8   3  342.66   22.03
   8  -8   4  432.16   24.97
   8  -8   5  106.45   13.20
   8  -8   6  172.83   15.74
   8  -8   7  474.42   25.95
   8  -8   8  621.43   30.78
   8  -8   8  627.66   40.63
   8  -8   9  400.72   24.32
   8  -8   9  381.80   32.03
   8  -8  10  410.39   32.90
   8  -8  10  368.82   23.89
   8  -8  11  337.85   23.02
   8  -8  11  319.44   30.09
   8 -10  -1  323.05   22.86
   8 -10   0  501.28   27.95
   8 -10   1  261.23   20.04
   8 -10   2   76.94   11.54
   8 -10   3  481.21   27.54
   8 -10   4  371.15   24.38
   8 -10   5  101.54   13.47
   8 -10   6  286.65   21.18
   8 -10   7  309.09   22.01
   8 -10   7  348.95   31.48
   8 -10   8  138.83   15.24
   8 -10   8  134.50   21.07
   8 -12  -2  120.91   16.26
   8 -12  -1  375.98   25.51
   8 -12   0   98.40   13.84
   8 -12   1  271.00   20.84
   8 -12   2  113.31   14.33
   8 -12   3  226.76   19.59
   8 -12   4   99.30   14.31
   8 -12   5  320.30   23.79
   8 -14  -2   60.35   13.33
   8 -14  -1  273.48   22.84
   8 -14   0   31.97    9.93
   8 -14   1  266.74   21.72
   9   1  -5 1003.84   33.20
   9  -1  -5 1004.69   33.05
   9   1  -4    8.84    4.24
   9  -1  -4    1.78    3.27
   9  -1  -4    8.61    5.37
   9  -1  -3  826.11   27.55
   9  -1  -3  780.09   29.25
   9   1  -3  807.68   27.21
   9  -1  -2  259.69   13.86
   9  -1  -2  248.95   15.54
   9   1  -2  241.76   13.06
   9   1  -1 1370.27   35.59
   9  -1  -1 1320.12   36.25
   9  -1  -1 1332.51   39.72
   9   1  -1 1259.70   36.81
   9   1   0    1.73    2.74
   9  -1   0    2.03    3.17
   9  -1   0    0.24    3.89
   9   1   0    0.77    3.37
   9   1   1  629.43   23.43
   9   1   1  657.85   20.91
   9  -1   1  636.54   25.43
   9   1   2    1.24    3.70
   9   1   2    1.58    2.53
   9  -1   2    4.30    4.47
   9  -1   3 2788.43   67.34
   9   1   3 2790.44   66.10
   9   1   3 2860.42   59.41
   9  -1   4   22.54    5.71
   9   1   4   21.16    5.30
   9  -1   5 2197.20   57.85
   9   1   5 2172.73   56.84
   9  -1   6   14.55    5.80
   9   1   6   12.22    5.93
   9  -1   7 3555.02   84.49
   9   1   7 3504.92   83.55
   9  -1   8  135.73   13.20
   9   1   8  170.91   14.32
   9  -1   8  122.54   12.70
   9  -1   9 1300.03   44.27
   9  -1   9 1283.17   43.49
   9  -1  10   14.91    7.13
   9  -1  10   13.14    6.60
   9  -1  11  383.19   22.07
   9   3  -7  843.96   26.35
   9   3  -6  100.37    8.05
   9   3  -5 2245.82   51.93
   9   3  -5 2286.84   59.43
   9   3  -4    6.66    4.44
   9   3  -4   12.35    3.61
   9  -3  -3 1050.83   33.24
   9  -3  -3 1067.89   37.55
   9   3  -3 1031.44   32.86
   9   3  -2   12.32    4.11
   9  -3  -2   23.57    5.07
   9  -3  -2   10.25    6.16
   9  -3  -1  593.12   26.09
   9   3  -1  583.32   21.29
   9   3   0    2.82    2.81
   9   3   0    1.42    2.97
   9   3   1 3525.28   76.46
   9  -3   1 3521.89   83.23
   9   3   1 3552.00   72.32
   9   3   2  159.12   11.35
   9  -3   2  153.44   13.05
   9   3   2  172.91    9.03
   9   3   3 1203.22   36.83
   9  -3   3 1276.52   41.00
   9   3   3 1264.31   30.04
   9   3   4  313.75   17.10
   9   3   4  311.40   11.14
   9  -3   4  290.76   17.98
   9   3   5 1860.59   38.26
   9  -3   5 1764.45   51.77
   9   3   5 1804.89   49.89
   9   3   6   41.71    3.42
   9  -3   6   52.97    8.32
   9   3   6   41.68    4.25
   9   3   6   44.85    7.93
   9   3   7 2760.25   51.18
   9  -3   7 2757.75   70.75
   9   3   7 2568.72   52.40
   9  -3   8  174.08   14.78
   9   3   8  146.75    6.17
   9  -3   9  708.83   31.47
   9  -3   9  627.19   33.27
   9  -3  10  122.00   15.26
   9  -3  10  159.01   15.51
   9  -3  11  755.18   34.23
   9  -3  11  717.83   35.63
   9  -3  12   16.85    8.32
   9   5  -9  737.98   19.70
   9   5  -8  360.96   12.27
   9   5  -7 1352.52   30.62
   9   5  -6  177.93    8.30
   9   5  -5 1303.93   30.68
   9   5  -4  265.64   11.16
   9   5  -4  267.17   17.40
   9   5  -3  503.60   16.76
   9   5  -3  464.99   22.09
   9   5  -2    7.56    3.95
   9  -5  -2   19.60    7.13
   9  -5  -1  422.11   23.53
   9   5  -1  441.88   19.35
   9   5   0   90.20    7.73
   9  -5   0  101.10   11.54
   9   5   0  102.46    8.71
   9   5   1  624.20   22.23
   9  -5   1  575.79   27.86
   9   5   1  617.43   21.05
   9   5   2  876.65   28.06
   9   5   2  844.54   23.98
   9  -5   2  808.01   33.23
   9   5   3 1845.23   39.39
   9  -5   3 1823.26   54.52
   9   5   4   90.00    4.09
   9  -5   4  118.94   12.23
   9  -5   5 1119.58   40.30
   9  -5   6  545.78   26.89
   9  -5   7 1777.31   54.73
   9  -5   8  286.41   20.07
   9  -5   9  735.64   33.14
   9  -5   9  658.52   38.01
   9  -5  10   21.22    8.55
   9  -5  10   17.28    8.78
   9  -5  11  583.49   30.44
   9  -5  11  511.60   34.02
   9  -5  12  138.25   18.24
   9  -5  13  382.36   29.49
   9   7  -3  291.02   18.39
   9  -7  -2  392.73   24.02
   9   7  -2  397.50   20.75
   9  -7  -1  817.28   35.26
   9   7  -1  808.45   29.19
   9   7   0   97.72    9.35
   9  -7   0  103.40   12.98
   9   7   1  722.10   24.51
   9  -7   1  768.25   33.82
   9  -7   2  249.05   19.03
   9  -7   3 1151.06   43.08
   9  -7   4  185.79   16.51
   9  -7   5  852.98   36.47
   9  -7   6  435.58   25.33
   9  -7   7  636.50   31.15
   9  -7   8  856.49   37.37
   9  -7   9  533.24   28.85
   9  -7   9  463.30   35.21
   9  -7  10  122.27   14.65
   9  -7  10  126.37   19.22
   9  -7  11  175.26   21.95
   9  -7  11  189.45   18.03
   9  -7  12  209.91   19.29
   9  -9  -2  412.36   26.33
   9  -9  -1  423.92   25.96
   9  -9   0  278.13   20.85
   9  -9   1  441.08   26.56
   9  -9   2  212.35   18.76
   9  -9   3  227.74   19.46
   9  -9   4  558.55   30.39
   9  -9   5  489.13   28.65
   9  -9   6  324.62   22.85
   9  -9   7  310.48   22.41
   9  -9   8  403.75   26.12
   9  -9   8  439.87   35.85
   9  -9   9  209.69   19.12
   9  -9  10  242.63   20.44
   9 -11  -2  162.17   17.74
   9 -11  -1  145.15   16.42
   9 -11   0  288.94   22.29
   9 -11   1  246.70   20.71
   9 -11   2  345.62   24.61
   9 -11   3   64.81   12.21
   9 -11   4  282.35   22.36
   9 -11   5  187.94   18.76
   9 -11   6  507.53   30.35
   9 -11   7  248.64   21.19
   9 -13  -3   39.57   11.10
   9 -13  -2  169.53   18.59
   9 -13  -1   80.51   13.23
   9 -13   0  186.76   18.82
   9 -13   1   64.82   12.72
   9 -13   2  211.78   20.16
   9 -13   3   74.89   11.97
   9 -13   4  201.99   19.71
  10   0  -6  392.53   20.72
  10   0  -5    4.42    4.38
  10   0  -4  982.31   33.72
  10   0  -4  997.63   32.95
  10   0  -3    3.05    3.96
  10   0  -3   -2.45    4.84
  10   0  -2 2100.79   52.37
  10   0  -2 2124.70   55.34
  10   0  -1    5.80    3.67
  10   0  -1   -1.69    4.64
  10   0   0 3659.38   78.04
  10   0   0 3644.79   82.89
  10   0   1    0.70    3.12
  10   0   1    0.43    4.11
  10   0   2 2043.87   54.60
  10   0   2 2162.58   50.25
  10   0   3    0.98    4.22
  10   0   4 1352.09   41.91
  10   0   5    2.75    5.33
  10   0   6 1496.86   46.67
  10   0   7    2.27    5.53
  10   0   8  740.93   31.80
  10   0   8  668.63   28.95
  10   0   9    3.66    4.33
  10   0   9    6.84    6.17
  10   2  -9    9.87    5.03
  10   2  -8  600.28   24.16
  10   2  -7   16.23    4.93
  10   2  -6  473.20   20.42
  10  -2  -5  410.07   22.07
  10   2  -5  321.59   16.47
  10  -2  -4  395.65   21.75
  10   2  -4  395.18   18.02
  10   2  -4  426.14   20.42
  10   2  -3   -1.95    3.94
  10  -2  -3   -4.05    5.27
  10   2  -3   -4.62    4.25
  10  -2  -2 3274.00   73.41
  10  -2  -2 3169.97   78.00
  10   2  -2 3148.78   71.65
  10   2  -2 3172.33   71.67
  10  -2  -1  142.44   10.96
  10  -2  -1  145.33   13.11
  10   2  -1  136.06   10.58
  10   2  -1  139.08   10.20
  10   2   0 2849.70   65.68
  10  -2   0 2917.40   71.77
  10   2   0 2804.64   62.79
  10   2   1  148.91    9.50
  10   2   1  153.84   11.37
  10  -2   1  142.83   13.02
  10   2   2 3045.66   64.50
  10   2   2 3096.57   71.23
  10  -2   2 2994.58   74.41
  10   2   3   41.25    6.84
  10   2   3   41.30    4.95
  10  -2   3   50.21    8.30
  10  -2   4 1264.96   41.62
  10   2   4 1340.01   32.90
  10   2   4 1339.15   40.72
  10   2   5  274.33   11.77
  10  -2   5  270.45   17.74
  10   2   5  271.74   17.00
  10   2   6 1810.63   40.41
  10  -2   6 1778.87   53.61
  10   2   6 1776.48   52.26
  10  -2   7    8.31    5.99
  10   2   7   19.58    4.76
  10   2   7   14.02    6.62
  10  -2   8  866.44   35.65
  10   2   8  922.44   35.82
  10   2   8  873.53   26.32
  10  -2   9   14.74    6.53
  10  -2   9   23.32    7.91
  10  -2  10  604.00   30.09
  10  -2  10  589.33   30.69
  10  -2  11  140.72   15.26
  10  -2  11  179.10   17.33
  10   4  -8  847.07   25.69
  10   4  -7   84.98    7.34
  10   4  -6  379.32   15.61
  10  -4  -4  741.34   32.79
  10   4  -4  755.76   29.88
  10  -4  -3  376.74   23.06
  10   4  -3  368.36   19.42
  10  -4  -2 2666.17   71.07
  10   4  -2 2646.98   64.06
  10   4  -1   14.81    4.80
  10   4  -1    5.66    3.74
  10  -4  -1   24.77    7.36
  10   4   0 1182.00   34.31
  10  -4   0 1183.77   41.66
  10   4   0 1175.14   33.82
  10   4   1  323.67   16.39
  10  -4   1  310.38   19.92
  10   4   1  320.47   14.68
  10   4   2 2015.78   50.63
  10  -4   2 1795.64   55.73
  10   4   2 1931.24   44.88
  10   4   3 1223.56   37.43
  10   4   3 1115.08   28.96
  10  -4   3 1119.50   40.74
  10   4   4 1378.32   41.16
  10   4   4 1356.95   31.33
  10  -4   4 1300.51   44.79
  10   4   5   17.55    6.08
  10   4   5   11.81    2.24
  10  -4   5    5.68    5.91
  10  -4   6  718.60   31.65
  10  -4   7  152.04   14.96
  10  -4   8  661.86   31.59
  10  -4   9    0.85    6.13
  10  -4   9   -9.99    9.73
  10  -4  10  703.21   34.22
  10  -4  10  560.81   34.30
  10  -4  11   61.97   12.80
  10  -4  11   58.08   11.63
  10  -4  12  762.43   40.18
  10   6  -7  154.37    6.57
  10   6  -6  608.07   16.75
  10   6  -5   18.47    3.24
  10   6  -4  579.51   18.24
  10  -6  -3  432.70   25.61
  10   6  -3  432.99   22.34
  10  -6  -2 1013.21   40.58
  10   6  -2  995.49   34.45
  10   6  -1  372.16   15.67
  10  -6  -1  325.80   22.24
  10   6  -1  337.47   17.79
  10   6   0 1504.84   39.05
  10  -6   0 1373.69   48.89
  10   6   0 1402.09   40.05
  10   6   1  424.23   17.81
  10  -6   1  415.31   24.61
  10   6   2 1003.63   28.32
  10  -6   2 1053.49   40.43
  10   6   3  451.06   14.70
  10  -6   3  500.21   27.04
  10  -6   4 1058.86   41.83
  10  -6   5  178.07   16.30
  10  -6   6  613.32   30.65
  10  -6   7  361.36   23.47
  10  -6   8  297.51   21.41
  10  -6   9  134.56   18.92
  10  -6   9  179.09   17.24
  10  -6  10  633.24   33.27
  10  -6  10  544.37   37.58
  10  -6  11  117.61   15.31
  10  -6  11  100.59   17.37
  10  -6  12  461.38   29.11
  10  -6  12  411.55   32.80
  10  -8  -3  213.57   19.69
  10  -8  -2  528.45   29.75
  10   8  -2  504.65   25.10
  10  -8  -1  754.09   35.84
  10   8  -1  776.95   30.13
  10  -8   0  884.67   39.01
  10  -8   1  359.05   24.04
  10  -8   2  495.26   28.83
  10  -8   3  126.81   15.10
  10  -8   4  453.44   27.67
  10  -8   5  374.84   25.24
  10  -8   6  461.90   27.77
  10  -8   7  247.90   20.66
  10  -8   8  127.67   15.58
  10  -8   9  115.73   15.02
  10  -8   9  119.44   20.09
  10  -8  10  375.69   26.00
  10  -8  11  326.40   25.54
  10 -10  -3  201.48   19.99
  10 -10  -2  461.03   29.12
  10 -10  -1  416.75   27.50
  10 -10   0  236.32   21.17
  10 -10   1  613.35   33.27
  10 -10   2  152.69   16.97
  10 -10   3  390.44   26.41
  10 -10   4  203.47   19.54
  10 -10   5  370.05   26.18
  10 -10   6  121.48   15.64
  10 -10   7  364.26   25.83
  10 -10   8  157.94   17.79
  10 -10   9   39.64   10.49
  10 -12  -3  329.77   25.91
  10 -12  -2  128.89   16.87
  10 -12  -1  313.64   24.63
  10 -12   0  158.02   18.12
  10 -12   1  189.77   19.26
  10 -12   2   74.87   13.26
  10 -12   3  285.46   23.72
  10 -12   4   89.61   14.77
  10 -12   5  190.79   19.93
  11   1  -9 1050.58   37.14
  11   1  -8    1.44    4.50
  11  -1  -7 1024.78   38.32
  11   1  -7 1039.00   35.58
  11  -1  -6   13.90    6.50
  11   1  -6    0.14    4.69
  11  -1  -5 1012.54   37.35
  11   1  -5 1095.66   35.87
  11  -1  -4  290.39   18.46
  11   1  -4  306.99   17.42
  11  -1  -3 3483.29   84.39
  11   1  -3 3579.10   81.62
  11   1  -2    2.55    3.63
  11  -1  -2    0.47    6.02
  11   1  -2   -0.36    4.30
  11   1  -1  903.02   29.80
  11  -1  -1  954.42   31.40
  11  -1  -1  927.89   34.26
  11   1  -1  927.16   32.42
  11   1   0   10.06    3.97
  11  -1   0   16.58    5.53
  11  -1   0   14.20    5.09
  11   1   0   24.10    6.31
  11   1   1 1621.83   46.78
  11   1   1 1634.57   42.78
  11  -1   1 1741.83   45.05
  11  -1   1 1615.50   49.14
  11   1   2   35.21    7.14
  11   1   2   28.30    5.01
  11  -1   2   30.73    7.26
  11  -1   3 1314.37   42.85
  11   1   3 1373.52   36.22
  11   1   3 1294.20   41.44
  11  -1   4  181.38   14.83
  11   1   4  183.55   10.88
  11   1   4  188.80   14.48
  11   1   5  936.36   27.60
  11  -1   5  903.01   35.53
  11   1   5  929.98   35.08
  11  -1   6  138.07   13.69
  11   1   6  159.98   14.19
  11  -1   7 1917.03   58.94
  11   1   7 2081.51   60.34
  11  -1   8   11.20    7.22
  11   1   8   16.83    6.92
  11  -1   9 1026.78   40.87
  11  -1   9  969.25   39.19
  11   1   9  993.59   40.04
  11  -1  10   10.57    7.33
  11   3 -10   37.95    6.85
  11   3  -9  308.65   16.64
  11   3  -8   53.52    7.35
  11   3  -7 1159.88   34.98
  11   3  -6    2.78    3.64
  11  -3  -5 1843.41   57.32
  11   3  -5 1865.20   47.82
  11  -3  -4  576.03   28.67
  11   3  -4  597.62   22.97
  11  -3  -3 1539.64   50.09
  11   3  -3 1529.65   44.92
  11   3  -3 1534.44   41.97
  11   3  -2  123.18   10.31
  11  -3  -2  116.27   13.06
  11   3  -2  128.19   10.89
  11   3  -1 1207.31   35.88
  11  -3  -1 1200.74   42.64
  11   3  -1 1175.53   35.54
  11   3   0    8.26    4.74
  11   3   0   11.52    3.93
  11  -3   0    3.96    5.76
  11   3   1  669.37   25.82
  11  -3   1  686.99   30.25
  11   3   1  648.12   22.79
  11   3   2  272.70   16.36
  11  -3   2  293.11   19.52
  11   3   2  268.23   13.28
  11   3   3  851.48   31.27
  11  -3   3  865.92   34.87
  11   3   3  875.00   25.63
  11  -3   4  123.61   13.24
  11   3   4  141.01   12.57
  11   3   4  124.90    8.20
  11  -3   5 1606.61   52.23
  11   3   5 1738.51   50.88
  11   3   5 1670.19   38.32
  11  -3   6   79.28   11.04
  11   3   6   89.52   10.86
  11  -3   7 1149.56   43.65
  11   3   7 1215.82   42.16
  11  -3   8   38.96    9.62
  11  -3   9 1098.23   43.47
  11  -3   9  978.82   45.58
  11  -3  10    9.61    7.69
  11  -3  10   41.30   11.14
  11  -3  11  638.45   33.84
  11  -3  11  564.00   33.15
  11   5  -8  103.93    7.37
  11   5  -7  786.66   23.21
  11  -5  -4   48.75   10.42
  11   5  -3 2267.82   52.69
  11  -5  -3 2217.88   67.07
  11   5  -2  420.74   17.91
  11  -5  -2  409.78   25.34
  11   5  -2  406.69   20.80
  11   5  -1  838.82   27.74
  11  -5  -1  828.94   36.14
  11   5  -1  819.51   29.69
  11   5   0  124.38   10.36
  11  -5   0  109.31   13.17
  11   5   0  126.06   10.36
  11   5   1  581.74   23.62
  11  -5   1  573.88   29.16
  11   5   1  544.75   21.22
  11   5   2  177.35   12.92
  11   5   2  165.05   10.41
  11  -5   2  175.28   16.15
  11   5   3 1128.23   36.85
  11   5   3 1110.56   29.42
  11  -5   3 1106.51   42.91
  11   5   4  503.67   23.48
  11  -5   4  460.29   26.73
  11  -5   5  939.46   39.12
  11  -5   6  129.96   14.69
  11  -5   7  685.54   33.34
  11  -5   8   95.19   13.15
  11  -5   9  802.91   37.56
  11  -5   9  706.22   42.50
  11  -5  10  149.55   17.40
  11  -5  10  112.10   17.51
  11  -5  11  719.03   36.95
  11  -5  11  611.63   39.11
  11  -5  12   68.25   14.54
  11  -7  -4  653.43   34.69
  11  -7  -3  877.79   39.82
  11  -7  -2  351.22   24.41
  11   7  -2  342.98   20.04
  11  -7  -1  202.37   18.65
  11   7  -1  247.48   15.97
  11   7   0  259.48   15.54
  11  -7   0  249.33   20.87
  11  -7   1  491.34   28.78
  11  -7   2  219.97   19.44
  11  -7   3  598.21   31.99
  11  -7   4   44.61   10.34
  11  -7   5  482.54   29.07
  11  -7   6  472.33   28.44
  11  -7   7  570.17   31.67
  11  -7   8  179.66   18.36
  11  -7   9  360.47   26.13
  11  -7   9  336.70   31.67
  11  -7  10  201.23   25.26
  11  -7  10  227.15   21.11
  11  -9  -4  493.03   31.47
  11  -9  -3  444.37   29.53
  11  -9  -2  305.52   23.90
  11  -9  -1  255.81   22.08
  11  -9   0  212.99   19.91
  11  -9   1  125.81   15.51
  11  -9   2  477.55   30.17
  11  -9   3  355.14   26.23
  11  -9   4  204.30   19.63
  11  -9   5  319.10   24.92
  11  -9   6  376.97   26.57
  11  -9   7  230.82   20.99
  11  -9   8  235.63   21.48
  11  -9   9  375.11   27.34
  11 -11  -4  119.94   17.71
  11 -11  -3   69.84   13.08
  11 -11  -2  457.79   30.65
  11 -11  -1  251.06   22.90
  11 -11   0  134.32   17.02
  11 -11   1   64.89   13.47
  11 -11   2  233.62   21.52
  11 -11   3   74.24   13.60
  11 -11   4  261.47   23.35
  11 -11   5  161.04   18.68
  11 -11   6  234.05   21.95
  12   0  -9   -5.09    5.98
  12   0  -8 1155.99   41.31
  12   0  -7    1.30    5.41
  12   0  -6  437.73   23.21
  12   0  -5    2.13    4.95
  12   0  -4  698.70   29.63
  12   0  -3    5.49    5.70
  12   0  -2 1186.63   40.35
  12   0  -1   -6.80    5.87
  12   0   0 1617.82   44.48
  12   0   0 1545.94   48.15
  12   0   1    2.41    4.24
  12   0   1    2.66    5.70
  12   0   2 3154.34   78.61
  12   0   2 3256.49   73.10
  12   0   3   -7.81    5.97
  12   0   3    1.30    4.15
  12   0   4 1488.62   48.23
  12   0   4 1566.44   42.38
  12   0   5   -9.17    6.45
  12   0   6  438.22   24.65
  12   0   7    0.90    5.62
  12   0   8 1091.53   43.17
  12   0   9   18.24    8.26
  12   0  10  557.05   30.87
  12   2 -11    6.17    5.77
  12   2 -10  818.74   32.04
  12   2  -9   -3.28    4.68
  12   2  -8  912.49   33.09
  12  -2  -7   58.87   10.36
  12   2  -7   90.39    9.96
  12  -2  -6  915.86   37.73
  12   2  -6  911.28   32.54
  12  -2  -5   17.21    7.34
  12   2  -5   15.83    5.63
  12  -2  -4 1076.15   40.18
  12   2  -4 1052.56   35.19
  12  -2  -3  180.76   15.92
  12   2  -3  221.41   14.74
  12  -2  -2  433.09   24.38
  12   2  -2  436.39   21.03
  12   2  -1   47.60    7.17
  12  -2  -1   58.43    9.57
  12   2  -1   58.20    8.21
  12   2   0 1606.56   46.61
  12  -2   0 1615.48   51.59
  12   2   0 1641.30   44.30
  12   2   1    6.41    5.39
  12   2   1    6.14    3.93
  12  -2   1    2.46    5.56
  12   2   2 2024.03   49.78
  12   2   2 2050.38   56.10
  12  -2   2 2008.79   59.67
  12   2   3   80.65    7.51
  12   2   3   69.61    9.47
  12  -2   3   69.67   10.59
  12   2   4  944.38   28.26
  12  -2   4  944.34   37.58
  12   2   4  932.36   35.29
  12  -2   5   24.04    7.28
  12   2   5   18.82    6.78
  12  -2   6 1513.66   51.37
  12   2   6 1545.81   50.97
  12  -2   7    3.80    6.34
  12   2   7   36.79    9.64
  12  -2   8  401.44   25.07
  12   2   8  433.93   25.12
  12  -2   9  -10.97    9.12
  12  -2   9   15.11    8.43
  12  -2  10  480.50   28.65
  12   4  -8  394.84   17.92
  12   4  -7    3.92    3.60
  12  -4  -6  488.90   28.79
  12   4  -6  483.81   20.16
  12  -4  -5  113.91   14.37
  12   4  -5   97.62    9.07
  12   4  -4 1487.06   40.46
  12  -4  -4 1358.29   50.07
  12   4  -3  121.19   10.13
  12  -4  -3  152.40   15.75
  12   4  -2  235.15   14.28
  12  -4  -2  267.79   20.11
  12   4  -2  232.56   15.82
  12   4  -1    5.01    4.18
  12   4  -1   13.31    5.01
  12  -4  -1    7.20    6.29
  12   4   0 1319.29   40.04
  12  -4   0 1339.82   48.35
  12   4   0 1304.61   38.93
  12   4   1  392.22   19.95
  12  -4   1  363.45   23.42
  12   4   1  369.56   17.59
  12   4   2 1521.43   45.44
  12  -4   2 1559.69   52.49
  12   4   2 1496.61   40.23
  12   4   3  239.55   16.52
  12  -4   3  235.79   18.91
  12   4   4  966.41   35.84
  12  -4   4  922.31   39.16
  12  -4   5  233.03   18.94
  12   4   5  237.98   17.14
  12  -4   6 1334.89   48.83
  12   4   6 1355.82   45.97
  12  -4   7   45.55   10.02
  12  -4   8  354.33   24.77
  12  -4   9    8.87    8.04
  12  -4   9  -11.89   10.55
  12  -4  10  483.23   30.14
  12  -4  10  407.08   31.30
  12  -6  -5  368.18   26.63
  12   6  -4  433.83   17.25
  12  -6  -4  425.34   27.89
  12   6  -3  156.69   10.54
  12  -6  -3  150.29   16.66
  12   6  -2  857.32   27.96
  12  -6  -2  755.48   37.07
  12   6  -1  120.14   10.20
  12   6  -1  135.45   12.39
  12  -6  -1  111.04   14.68
  12   6   0  552.65   23.02
  12  -6   0  517.50   29.93
  12   6   1  622.29   25.21
  12  -6   1  611.20   32.74
  12   6   2 1188.36   38.12
  12  -6   2 1111.64   45.78
  12  -6   3   86.27   13.29
  12  -6   4  818.08   38.53
  12  -6   5  168.26   17.84
  12  -6   6  299.45   23.02
  12  -6   7  134.87   15.86
  12  -6   8  406.75   27.68
  12  -6   9   24.94    9.10
  12  -6   9   29.25   12.90
  12  -6  10  244.05   26.73
  12  -8  -5   89.32   14.93
  12  -8  -4  176.35   19.75
  12  -8  -3  369.95   27.18
  12  -8  -2  317.39   24.46
  12  -8  -1  104.45   15.06
  12  -8   0  298.79   23.68
  12  -8   1  402.75   27.60
  12  -8   2  496.56   30.31
  12  -8   3  438.98   28.72
  12  -8   4  636.17   34.90
  12  -8   5  178.26   18.54
  12  -8   6  339.74   25.75
  12  -8   7  170.62   18.35
  12  -8   8  239.59   22.28
  12 -10  -5  172.27   21.14
  12 -10  -4  222.05   22.42
  12 -10  -3  122.59   16.72
  12 -10  -2   52.45   12.08
  12 -10  -1  229.21   22.01
  12 -10   0  317.57   25.20
  12 -10   1  345.54   25.89
  12 -10   2  172.04   18.99
  12 -10   3  330.51   26.09
  12 -10   4  205.51   20.76
  12 -10   5  236.87   22.04
  12 -10   6  196.76   20.40
  13   1 -11  367.26   22.96
  13  -1 -10    4.80    6.36
  13   1 -10    2.83    5.62
  13  -1  -9  194.09   17.36
  13   1  -9  192.99   15.91
  13  -1  -8   18.29    7.51
  13   1  -8    0.12    5.36
  13  -1  -7  614.73   30.51
  13   1  -7  636.51   28.47
  13  -1  -6   78.56   11.15
  13   1  -6   97.94   11.24
  13  -1  -5 1341.38   46.86
  13   1  -5 1369.48   44.67
  13  -1  -4   29.02    8.25
  13   1  -4   13.60    5.92
  13  -1  -3  970.78   38.24
  13   1  -3  984.18   36.06
  13  -1  -2    9.21    6.28
  13   1  -2   10.34    6.91
  13  -1  -1 1827.85   56.74
  13   1  -1 1907.03   54.69
  13  -1   0  166.20   15.28
  13   1   0  174.98   14.39
  13   1   1 1547.26   47.81
  13  -1   1 1462.40   49.28
  13   1   2   21.16    6.99
  13   1   2   15.11    5.07
  13  -1   2   17.03    6.97
  13  -1   3  349.39   22.40
  13   1   3  347.57   17.20
  13   1   3  353.18   21.32
  13  -1   4   -0.67    5.21
  13   1   4   -0.77    5.97
  13  -1   5  582.57   29.82
  13   1   5  620.48   29.95
  13  -1   6   67.04   11.13
  13   1   6   78.52   11.30
  13  -1   7  419.77   26.22
  13   1   7  475.75   27.51
  13  -1   8    9.10    6.83
  13   1   8    7.85    7.64
  13  -1   9 1171.72   47.79
  13   1   9 1150.05   46.20
  13   3  -9  525.73   23.65
  13  -3  -8   -2.99    7.03
  13   3  -8   -4.47    5.33
  13  -3  -7  502.68   29.87
  13   3  -7  553.09   23.91
  13  -3  -6   38.30    9.47
  13   3  -6   47.33    7.89
  13  -3  -5 1205.05   46.44
  13   3  -5 1281.75   39.72
  13  -3  -4  140.40   15.50
  13   3  -4  135.31   11.70
  13  -3  -3 1395.02   50.44
  13   3  -3 1461.36   43.25
  13  -3  -2   27.83    8.98
  13   3  -2   26.20    6.32
  13   3  -1  726.09   28.84
  13  -3  -1  735.79   34.45
  13   3   0   73.35    9.28
  13   3   0   84.26    9.08
  13  -3   0  107.90   13.83
  13   3   1 1313.30   41.77
  13  -3   1 1289.59   47.45
  13   3   1 1239.02   37.43
  13   3   2    1.99    5.41
  13   3   2    9.47    4.60
  13  -3   2   11.20    6.45
  13   3   3  453.85   23.63
  13  -3   3  441.68   26.32
  13   3   4   33.47    8.35
  13  -3   4   28.99    8.80
  13  -3   5  640.80   32.41
  13   3   5  623.34   30.11
  13  -3   6   51.41   10.66
  13   3   6   54.83   10.20
  13  -3   7 1211.33   47.50
  13   3   7 1210.69   44.94
  13  -3   8   24.50    9.07
  13  -3   9  597.41   33.40
  13  -5  -7  323.45   25.47
  13   5  -6    7.96    3.94
  13  -5  -6   20.28    8.98
  13   5  -5  433.80   18.81
  13  -5  -5  412.69   27.55
  13   5  -4  358.93   17.27
  13  -5  -4  319.44   24.03
  13   5  -3 1325.71   38.52
  13  -5  -3 1226.59   49.57
  13   5  -2  281.26   16.08
  13  -5  -2  249.66   21.16
  13   5  -1  995.05   33.34
  13  -5  -1  926.41   41.64
  13   5   0  115.79   11.24
  13  -5   0  118.23   15.55
  13   5   1  651.31   27.25
  13  -5   1  596.95   32.95
  13   5   2  247.89   17.08
  13  -5   2  221.44   19.76
  13   5   3  433.82   22.66
  13  -5   3  417.86   26.98
  13   5   4   35.31    8.37
  13  -5   4   24.72    9.42
  13  -5   5  343.87   24.71
  13  -5   6   59.08   11.93
  13  -5   7  364.46   25.98
  13  -5   8   97.40   14.06
  13  -5  10   95.39   17.77
  13  -7  -6  210.15   21.78
  13  -7  -5  497.66   32.33
  13  -7  -4  302.28   24.90
  13   7  -3  286.37   14.67
  13  -7  -3  300.27   24.32
  13   7  -2  178.83   12.13
  13  -7  -2  175.75   18.90
  13  -7  -1 1217.47   50.28
  13  -7   0  358.93   26.49
  13  -7   1  344.30   25.77
  13  -7   2  177.83   19.22
  13  -7   3  290.18   24.07
  13  -7   4   45.45   11.10
  13  -7   5  659.01   36.00
  13  -7   6  114.27   15.99
  13  -7   7  220.54   21.13
  13  -9  -5  268.69   25.23
  13  -9  -4  214.84   22.31
  13  -9  -3  259.56   24.13
  13  -9  -2   86.73   14.93
  13  -9  -1   87.53   14.75
  13  -9   0  396.74   28.85
  13  -9   1  259.06   23.86
  13  -9   2  120.43   16.42
  13  -9   3  149.80   18.71
  13  -9   4  199.58   20.96
  14   0 -12  113.85   14.19
  14   0 -11    3.91    6.68
  14   0 -10  826.00   36.72
  14   0  -9    3.97    6.89
  14   0  -8  631.34   31.13
  14   0  -7   -5.76    6.63
  14   0  -6  780.75   34.11
  14   0  -5   -0.84    5.73
  14   0  -4 1127.92   41.90
  14   0  -3    2.12    5.75
  14   0  -2  222.47   17.88
  14   0  -1   -2.89    6.31
  14   0   0 1025.99   39.26
  14   0   1    0.27    5.53
  14   0   2 1038.84   40.44
  14   0   3    3.12    6.45
  14   0   4  738.25   34.16
  14   0   5   -0.78    5.98
  14   0   6  896.06   39.34
  14   0   7    3.46    7.14
  14  -2 -11    2.47    7.29
  14  -2 -10  325.62   24.83
  14  -2  -9  194.61   18.75
  14   2  -9  195.86   15.71
  14  -2  -8 1080.02   44.75
  14   2  -8 1160.35   40.39
  14  -2  -7   -0.75    7.25
  14   2  -7   13.24    6.17
  14  -2  -6  793.98   36.89
  14   2  -6  845.96   33.07
  14  -2  -5   72.12   11.92
  14   2  -5   70.88   10.02
  14  -2  -4  584.10   30.57
  14   2  -4  573.89   26.93
  14  -2  -3   18.45    7.25
  14   2  -3   19.24    6.39
  14  -2  -2  329.61   22.96
  14   2  -2  346.50   20.38
  14  -2  -1   -5.43    6.56
  14   2  -1   11.20    6.14
  14   2   0  496.92   25.03
  14  -2   0  480.37   27.94
  14   2   1   84.53   11.20
  14  -2   1   81.19   11.93
  14   2   2  659.05   30.42
  14  -2   2  676.95   33.34
  14   2   3    2.55    5.74
  14  -2   3    8.91    6.65
  14  -2   4 1251.59   47.94
  14   2   4 1280.43   45.80
  14  -2   5   57.22   11.11
  14   2   5   61.74   10.34
  14  -2   6 1366.10   51.43
  14   2   6 1393.67   50.68
  14  -2   7  124.06   16.05
  14   2   7  150.63   16.02
  14  -4  -9   70.03   13.28
  14  -4  -8  755.09   38.73
  14  -4  -7  108.77   15.55
  14   4  -7  120.61   10.89
  14  -4  -6  764.10   38.44
  14   4  -6  826.35   29.68
  14  -4  -5   62.56   11.90
  14   4  -5   64.33    8.71
  14   4  -4  396.16   20.26
  14  -4  -4  390.42   26.79
  14   4  -3   85.74    9.93
  14  -4  -3   91.21   13.85
  14   4  -2  593.02   25.50
  14  -4  -2  567.13   31.94
  14   4  -1   59.70    8.57
  14  -4  -1   53.22   11.83
  14   4   0  358.58   20.37
  14  -4   0  335.30   24.48
  14   4   1   20.61    6.91
  14  -4   1   16.32    8.26
  14   4   2  443.40   23.84
  14  -4   2  412.95   27.14
  14   4   3   41.88    8.99
  14  -4   3   42.45   10.71
  14  -4   4 1160.89   47.79
  14   4   4 1220.85   44.04
  14  -4   5  152.04   17.10
  14   4   5  133.27   14.24
  14  -4   6  696.01   36.46
  14   4   6  733.09   34.54
  14  -4   7  102.83   15.19
  14  -6  -8  307.39   26.62
  14  -6  -7  195.33   21.64
  14  -6  -6  256.74   23.45
  14  -6  -5   92.29   15.17
  14   6  -4  459.60   20.09
  14  -6  -4  429.31   29.45
  14   6  -3   21.48    6.09
  14  -6  -3   16.02    8.93
  14   6  -2  402.74   20.02
  14  -6  -2  377.36   27.61
  14   6  -1  319.80   18.59
  14  -6  -1  281.51   24.09
  14   6   0  681.97   28.37
  14  -6   0  649.02   36.19
  14   6   1   26.79    7.21
  14  -6   1   35.18   11.07
  14   6   2  364.33   21.15
  14  -6   2  345.45   26.21
  14  -6   3  142.57   17.31
  14  -6   4  553.96   33.18
  14  -6   5  272.65   22.95
  14  -6   6  579.14   34.87
  14  -8  -4  281.41   25.62
  14  -8  -3   94.92   15.22
  14  -8  -2  169.83   19.94
  14  -8  -1   27.85   10.81
  14  -8   0   95.30   16.03
  14  -8   1  285.04   24.55
  14  -8   2  293.53   25.36
  14  -8   3  105.74   16.11
  15  -1 -12   -0.57    6.77
  15  -1 -11  327.27   24.50
  15  -1 -10   -3.24    7.15
  15   1 -10    0.28    6.27
  15  -1  -9  310.58   23.07
  15   1  -9  304.37   21.24
  15  -1  -8   86.15   12.68
  15   1  -8   66.50   10.23
  15  -1  -7  171.70   17.04
  15   1  -7  179.10   16.35
  15  -1  -6   25.97    8.55
  15   1  -6   12.82    5.94
  15  -1  -5  313.74   22.75
  15   1  -5  338.86   21.98
  15  -1  -4   -8.22    7.86
  15   1  -4    1.36    6.20
  15  -1  -3  716.37   34.25
  15   1  -3  692.31   32.07
  15  -1  -2    6.82    6.99
  15   1  -2   38.06    8.35
  15  -1  -1 1032.58   42.58
  15   1  -1 1062.61   40.42
  15  -1   0    1.94    7.24
  15   1   0   10.77    6.99
  15   1   1 1134.29   43.44
  15  -1   1 1183.03   45.64
  15   1   2   11.18    6.56
  15  -1   2   23.17    8.30
  15  -1   3 1256.93   48.05
  15   1   3 1258.52   46.78
  15  -1   4   -1.17    7.43
  15   1   4   -0.31    6.47
  15  -1   5  572.78   31.96
  15   1   5  579.20   31.02
  15  -1   6    0.76    8.48
  15   1   6    6.68    8.27
  15  -3 -11  497.51   32.61
  15  -3 -10   49.44   11.68
  15  -3  -9  340.35   25.84
  15  -3  -8   10.40    7.88
  15  -3  -7  152.09   17.05
  15   3  -7  162.14   14.13
  15  -3  -6    0.40    7.21
  15   3  -6   11.31    5.79
  15  -3  -5  682.70   36.02
  15   3  -5  679.30   29.30
  15  -3  -4   -4.72    8.04
  15   3  -4   12.96    5.62
  15   3  -3  205.73   15.77
  15  -3  -3  201.80   19.68
  15   3  -2  128.41   12.94
  15  -3  -2  107.41   14.92
  15   3  -1  911.70   35.61
  15  -3  -1  946.70   42.19
  15   3   0   64.48    9.98
  15  -3   0   60.28   11.96
  15   3   1  941.58   37.35
  15  -3   1  912.04   41.89
  15   3   2   51.19    9.24
  15  -3   2   74.41   13.01
  15  -3   3  570.91   32.36
  15   3   3  564.20   29.08
  15  -3   4   56.65   11.84
  15   3   4   59.96   10.71
  15  -3   5  883.71   41.54
  15   3   5  915.56   40.05
  15   3   6   58.85   11.27
  15  -5  -8    5.40    7.88
  15  -5  -7   63.28   12.58
  15  -5  -6   59.99   12.95
  15  -5  -5  282.62   24.35
  15   5  -4   39.74    7.41
  15  -5  -4   41.31   11.79
  15   5  -3  544.30   24.54
  15  -5  -3  537.63   33.22
  15   5  -2   48.06    8.05
  15  -5  -2   77.56   13.31
  15   5  -1  725.38   30.30
  15  -5  -1  770.23   39.54
  15   5   0  354.35   20.96
  15  -5   0  359.31   26.73
  15   5   1 1109.39   40.19
  15  -5   1 1047.80   47.08
  15   5   2    7.80    6.05
  15  -5   2   -6.00    8.12
  15   5   3  530.22   27.44
  15  -5   3  521.25   32.50
  15   5   4  146.13   15.04
  15  -5   4  119.14   16.37
  15  -7  -4  116.41   17.39
  15  -7  -3  362.06   28.31
  15  -7  -2   79.43   14.66
  15   7  -1  614.07   26.02
  15  -7  -1  502.31   33.81
  15  -7   0  195.40   20.86
  15  -7   1  219.64   21.71
  16   0 -10  137.61   16.17
  16   0  -9    6.27    7.38
  16   0  -8   56.53   11.08
  16   0  -7    2.42    6.77
  16   0  -6 1187.51   46.68
  16   0  -5  -11.15    8.72
  16   0  -4  399.09   25.28
  16   0  -3   -1.87    6.55
  16   0  -2  938.24   40.36
  16   0  -1    0.63    6.08
  16   0   0  666.59   33.08
  16   0   1    8.80    7.57
  16   0   2  336.60   24.07
  16   0   3   -6.82    7.73
  16   0   4 1071.30   45.16
  16  -2 -10  178.72   19.43
  16  -2  -9  -23.55    9.69
  16  -2  -8  295.32   23.82
  16   2  -8  321.08   21.24
  16  -2  -7   61.07   12.37
  16   2  -7   57.52   10.66
  16  -2  -6  639.34   34.86
  16   2  -6  611.76   30.03
  16  -2  -5   -1.59    7.50
  16   2  -5    7.90    6.51
  16  -2  -4  929.36   42.12
  16   2  -4  883.50   36.69
  16  -2  -3    0.51    7.06
  16   2  -3   11.32    6.55
  16   2  -2  566.66   28.62
  16  -2  -2  603.48   33.30
  16   2  -1  126.03   13.99
  16  -2  -1  104.94   14.92
  16   2   0  524.37   28.15
  16  -2   0  520.67   30.92
  16   2   1    4.71    6.46
  16  -2   1   11.71    8.14
  16  -2   2  396.38   27.13
  16   2   2  410.42   25.41
  16  -2   3   54.11   12.07
  16   2   3   35.02    9.74
  16  -2   4  712.01   36.96
  16   2   4  718.46   34.92
  16  -4  -8  251.01   23.20
  16  -4  -7   -0.95    8.20
  16  -4  -6  299.42   25.48
  16   4  -5  168.28   14.32
  16  -4  -5  168.29   18.83
  16   4  -4  712.28   30.49
  16  -4  -4  739.38   39.25
  16   4  -3   53.21    9.16
  16  -4  -3   61.74   12.39
  16   4  -2  500.64   25.66
  16  -4  -2  498.95   31.64
  16   4  -1   80.62   10.92
  16  -4  -1   63.01   13.24
  16   4   0  294.98   20.41
  16  -4   0  327.69   25.97
  16   4   1   84.81   11.73
  16  -4   1   74.91   14.68
  16   4   2  716.08   33.38
  16  -4   2  679.93   37.59
  16   4   3    4.55    6.97
  16   4   4  366.40   24.69
  16   6  -2  654.38   28.56
  16   6  -1  130.29   13.16
  16   6   0  403.66   22.90
  16   6   1  113.19   12.90
  16   6   2  164.99   15.93
  17  -1 -10   19.75   10.33
  17  -1  -9  282.43   23.21
  17  -1  -8    2.80    7.13
  17   1  -8   12.53    7.61
  17  -1  -7  232.46   21.09
  17   1  -7  222.83   19.17
  17  -1  -6    1.20    7.24
  17   1  -6    0.16    6.83
  17  -1  -5  491.67   30.22
  17   1  -5  520.33   29.49
  17  -1  -4   -4.40    7.37
  17   1  -4    4.02    6.67
  17  -1  -3  346.35   25.61
  17   1  -3  339.40   23.33
  17  -1  -2    3.60    7.79
  17   1  -2   10.78    7.15
  17   1  -1  431.84   26.77
  17  -1  -1  457.55   29.30
  17   1   0   74.42   11.82
  17  -1   0   79.67   13.17
  17  -1   1  849.71   40.53
  17   1   1  817.56   38.20
  17  -1   2   -3.12    7.09
  17   1   2   -3.47    8.04
  17   1   3  850.96   39.75
  17  -3  -6   21.36   11.03
  17  -3  -5   55.31   12.39
  17   3  -5   89.32   11.51
  17   3  -4   38.43    8.74
  17  -3  -4   10.00    8.90
  17   3  -3  469.42   26.12
  17  -3  -3  459.72   30.82
  17   3  -2    1.79    5.87
  17  -3  -2    1.00    7.54
  17   3  -1  458.64   26.32
  17  -3  -1  445.69   30.69
  17   3   0   48.35   10.29
  17  -3   0   54.69   12.84
  17   3   1  530.50   29.74
  17   3   2   73.91   11.95
  17   3   3 1142.98   45.86
  17   5  -2  196.33   16.36
  17   5  -1  387.36   23.10
  17   5   0   59.89   10.22
  17   5   1  508.40   28.36
  17   5   2   99.05   13.47
  18   0  -8  207.35   19.88
  18   0  -7  -17.80   10.69
  18   0  -6  239.84   21.44
  18   0  -5    3.34    7.33
  18   0  -4  725.78   37.13
  18   0  -3   -3.68    7.92
  18   0  -2  683.94   35.93
  18   0  -1   -4.15    7.77
  18   2  -6  319.66   22.83
  18   2  -5    8.35    6.58
  18   2  -4  440.40   27.14
  18   2  -3   60.12   11.15
  18   2  -2  623.91   32.68
  18   2  -1   -5.63    7.00
  18   2   0  575.89   31.95
  18   4  -3   12.15    7.49
  18   4  -2  347.27   22.87
  18   4  -1  198.43   18.01
  18   4   0  583.17   30.96
  18   4   1   37.76    9.46
   0   0   0    0.00    0.00


TITL exp_1123_U in Cc
REM Cc (#9 in standard setting)
CELL 0.71073  13.859844  11.496043  12.609970  90.0000  96.4146  90.0000
ZERR   10.00   0.000734   0.000575   0.000649   0.0000   0.0050   0.0000
LATT -7
SYMM  x,-y, z+1/2
SFAC C H O Cl U
UNIT 60.00 60.00 20.00 20.00 10.00
TREF
HKLF 4
END
_computing_structure_solution     'SHELXT 2018/2 (Sheldrick, 2018)'
;
_shelx_hkl_checksum              12558
_olex2_submission_special_instructions 'No special instructions were received'
_oxdiff_exptl_absorpt_empirical_details
;
Empirical correction (ABSPACK) includes:
- Absorption correction using spherical harmonics
- Frame scaling
;
_oxdiff_exptl_absorpt_empirical_full_max 1.639
_oxdiff_exptl_absorpt_empirical_full_min 0.765
loop_
_space_group_symop_operation_xyz
'x, y, z'
'-x, y, -z+1/2'
'x+1/2, y+1/2, z'
'-x+1/2, y+1/2, -z+1/2'
'-x, -y, -z'
'x, -y, z-1/2'
'-x+1/2, -y+1/2, -z'
'x+1/2, -y+1/2, z-1/2'
loop_
_atom_site_label
_atom_site_type_symbol
_atom_site_fract_x
_atom_site_fract_y
_atom_site_fract_z
_atom_site_U_iso_or_equiv
_atom_site_adp_type
_atom_site_occupancy
_atom_site_site_symmetry_order
_atom_site_calc_flag
_atom_site_refinement_flags_posn
_atom_site_refinement_flags_adp
_atom_site_refinement_flags_occupancy
U1 U 0.500000 0.23650(2) 0.750000 0.01826(6) Uani 1 2 d S T P
Cl1 Cl 0.30020(6) 0.39562(9) 1.05923(6) 0.0419(2) Uani 1 1 d . . .
Cl2 Cl 0.39804(7) 0.26515(9) 0.32523(8) 0.0461(2) Uani 1 1 d . . .
O1 O 0.40997(14) 0.33430(18) 0.87511(15) 0.0258(4) Uani 1 1 d . . .
O4 O 0.17963(16) 0.2836(2) 0.29620(16) 0.0296(5) Uani 1 1 d . . .
O2 O 0.42355(14) 0.58455(18) 1.16916(15) 0.0258(4) Uani 1 1 d . . .
O3 O 0.43768(15) 0.2019(2) 0.56062(16) 0.0313(5) Uani 1 1 d . . .
O5 O 0.42948(16) 0.0660(2) 0.82631(18) 0.0387(6) Uani 1 1 d . . .
H5A H 0.473904 0.013269 0.842816 0.058 Uiso 1 1 d GR . .
H5B H 0.389102 0.031672 0.778310 0.058 Uiso 1 1 d GR . .
O6 O 0.2313(2) 0.4655(3) 0.7807(3) 0.0576(7) Uani 1 1 d . . .
H6A H 0.216326 0.393728 0.780209 0.086 Uiso 1 1 d G . .
H6B H 0.287029 0.473446 0.759493 0.086 Uiso 1 1 d G . .
C3 C 0.3512(2) 0.2277(2) 0.5252(2) 0.0241(6) Uani 1 1 d . . .
C4 C 0.2188(2) 0.2715(2) 0.3902(2) 0.0234(6) Uani 1 1 d . . .
C6 C 0.3179(2) 0.2557(3) 0.4203(3) 0.0276(7) Uani 1 1 d . . .
C2 C 0.4552(2) 0.5390(3) 1.0897(2) 0.0224(6) Uani 1 1 d . . .
O7 O 0.4315(2) 0.0790(3) 1.0782(3) 0.0757(10) Uani 1 1 d . . .
H7A H 0.369783 0.078896 1.072594 0.114 Uiso 1 1 d G . .
H7B H 0.451341 0.143536 1.055828 0.114 Uiso 1 1 d G . .
C1 C 0.4478(2) 0.4116(3) 0.9382(2) 0.0232(6) Uani 1 1 d . . .
C5 C 0.4083(2) 0.4523(3) 1.0266(2) 0.0250(6) Uani 1 1 d . . .
loop_
_atom_site_aniso_label
_atom_site_aniso_U_11
_atom_site_aniso_U_22
_atom_site_aniso_U_33
_atom_site_aniso_U_23
_atom_site_aniso_U_13
_atom_site_aniso_U_12
U1 0.01550(8) 0.02347(9) 0.01454(8) 0.000 -0.00400(6) 0.000
Cl1 0.0307(4) 0.0585(6) 0.0382(4) -0.0142(4) 0.0119(4) -0.0189(4)
Cl2 0.0300(5) 0.0802(7) 0.0285(4) -0.0024(4) 0.0050(4) -0.0052(4)
O1 0.0217(10) 0.0319(11) 0.0230(10) -0.0081(9) -0.0011(8) -0.0046(9)
O4 0.0266(11) 0.0414(13) 0.0188(10) 0.0048(9) -0.0064(9) -0.0052(10)
O2 0.0248(11) 0.0327(11) 0.0202(10) -0.0067(9) 0.0039(9) -0.0028(9)
O3 0.0214(11) 0.0439(13) 0.0265(11) -0.0100(11) -0.0069(9) 0.0063(10)
O5 0.0295(13) 0.0339(13) 0.0489(14) 0.0084(11) -0.0129(11) -0.0075(10)
O6 0.0457(17) 0.0594(19) 0.0663(18) 0.0061(16) 0.0004(15) 0.0148(14)
C3 0.0190(14) 0.0278(15) 0.0236(15) -0.0055(12) -0.0058(12) 0.0005(12)
C4 0.0228(15) 0.0260(15) 0.0194(14) 0.0008(11) -0.0069(12) -0.0023(12)
C6 0.0217(16) 0.0387(18) 0.0216(15) -0.0044(12) -0.0007(13) -0.0026(12)
C2 0.0178(14) 0.0275(15) 0.0215(14) 0.0013(12) -0.0002(11) 0.0001(11)
O7 0.060(2) 0.087(3) 0.080(2) 0.023(2) 0.006(2) 0.0042(19)
C1 0.0200(15) 0.0282(15) 0.0203(13) -0.0006(12) -0.0023(12) -0.0005(12)
C5 0.0195(15) 0.0326(16) 0.0230(14) -0.0052(13) 0.0025(12) -0.0046(12)
loop_
_atom_type_symbol
_atom_type_description
_atom_type_scat_dispersion_real
_atom_type_scat_dispersion_imag
_atom_type_scat_source
C C 0.0033 0.0016 'International Tables Vol C Tables 4.2.6.8 and 6.1.1.4'
H H 0.0000 0.0000 'International Tables Vol C Tables 4.2.6.8 and 6.1.1.4'
Cl Cl 0.1484 0.1585 'International Tables Vol C Tables 4.2.6.8 and 6.1.1.4'
O O 0.0106 0.0060 'International Tables Vol C Tables 4.2.6.8 and 6.1.1.4'
U U -9.6767 9.6646 'International Tables Vol C Tables 4.2.6.8 and 6.1.1.4'
loop_
_geom_angle_atom_site_label_1
_geom_angle_atom_site_label_2
_geom_angle_atom_site_label_3
_geom_angle
_geom_angle_site_symmetry_1
_geom_angle_site_symmetry_3
O1 U1 O1 124.08(10) 2_656 .
O1 U1 O4 117.85(6) 2_656 7_556
O1 U1 O4 67.62(7) . 7_556
O1 U1 O4 67.62(7) 2_656 8_556
O1 U1 O4 117.85(7) . 8_556
O1 U1 O2 64.56(7) . 5_667
O1 U1 O2 64.56(6) 2_656 6_565
O1 U1 O2 69.62(7) . 6_565
O1 U1 O2 69.62(7) 2_656 5_667
O1 U1 O3 123.93(7) . .
O1 U1 O3 65.95(7) 2_656 .
O1 U1 O3 65.95(7) . 2_656
O1 U1 O3 123.93(7) 2_656 2_656
O1 U1 O5 81.73(7) . .
O1 U1 O5 153.95(8) . 2_656
O1 U1 O5 81.73(7) 2_656 2_656
O1 U1 O5 153.96(8) 2_656 .
O4 U1 O4 169.42(11) 7_556 8_556
O2 U1 O4 67.22(7) 5_667 8_556
O2 U1 O4 67.22(7) 6_565 7_556
O2 U1 O4 122.69(7) 6_565 8_556
O2 U1 O4 122.69(7) 5_667 7_556
O2 U1 O2 67.93(9) 5_667 6_565
O3 U1 O4 116.09(7) . 8_556
O3 U1 O4 62.01(7) . 7_556
O3 U1 O4 62.01(7) 2_656 8_556
O3 U1 O4 116.09(7) 2_656 7_556
O3 U1 O2 69.54(7) 2_656 5_667
O3 U1 O2 69.54(7) . 6_565
O3 U1 O2 128.02(7) 2_656 6_565
O3 U1 O2 128.02(7) . 5_667
O3 U1 O3 161.51(12) 2_656 .
O5 U1 O4 65.50(7) . 7_556
O5 U1 O4 105.45(8) . 8_556
O5 U1 O4 65.50(7) 2_656 8_556
O5 U1 O4 105.45(8) 2_656 7_556
O5 U1 O2 131.14(7) . 6_565
O5 U1 O2 131.14(7) 2_656 5_667
O5 U1 O2 132.60(7) . 5_667
O5 U1 O2 132.60(7) 2_656 6_565
O5 U1 O3 98.00(8) . .
O5 U1 O3 98.00(8) 2_656 2_656
O5 U1 O3 66.56(7) . 2_656
O5 U1 O3 66.56(7) 2_656 .
O5 U1 O5 72.83(12) . 2_656
C1 O1 U1 122.21(18) . .
C4 O4 U1 121.5(2) . 7_556
C2 O2 U1 120.29(18) . 5_667
C3 O3 U1 121.07(19) . .
O3 C3 C4 114.0(3) . 7_556
O3 C3 C6 126.2(3) . .
C6 C3 C4 119.8(3) . 7_556
O4 C4 C3 114.8(3) . 7_556
O4 C4 C6 125.4(3) . .
C6 C4 C3 119.8(3) . 7_556
C3 C6 Cl2 120.3(3) . .
C3 C6 C4 120.0(3) . .
C4 C6 Cl2 119.6(3) . .
O2 C2 C1 115.0(2) . 5_667
O2 C2 C5 125.1(3) . .
C5 C2 C1 119.9(3) . 5_667
O1 C1 C2 115.2(2) . 5_667
O1 C1 C5 124.9(3) . .
C5 C1 C2 119.8(3) . 5_667
C2 C5 Cl1 119.8(2) . .
C1 C5 Cl1 119.9(2) . .
C1 C5 C2 120.3(3) . .
loop_
_geom_bond_atom_site_label_1
_geom_bond_atom_site_label_2
_geom_bond_distance
_geom_bond_site_symmetry_2
U1 O1 2.398(2) 2_656
U1 O1 2.398(2) .
U1 O4 2.503(2) 7_556
U1 O4 2.503(2) 8_556
U1 O2 2.480(2) 5_667
U1 O2 2.480(2) 6_565
U1 O3 2.4793(19) .
U1 O3 2.4792(19) 2_656
U1 O5 2.436(2) .
U1 O5 2.436(2) 2_656
Cl1 C5 1.725(3) .
Cl2 C6 1.726(4) .
O1 C1 1.267(3) .
O4 C4 1.255(3) .
O2 C2 1.252(3) .
O3 C3 1.267(4) .
C3 C4 1.520(5) 7_556
C3 C6 1.390(4) .
C4 C6 1.396(4) .
C2 C1 1.537(4) 5_667
C2 C5 1.390(4) .
C1 C5 1.377(4) .
