#------------------------------------------------------------------------------
#$Date: 2020-02-14 00:18:46 +0200 (Fri, 14 Feb 2020) $
#$Revision: 248124 $
#$URL: file:///home/coder/svn-repositories/cod/cif/4/51/74/4517413.cif $
#------------------------------------------------------------------------------
#
# This file is available in the Crystallography Open Database (COD),
# http://www.crystallography.net/
#
# All data on this site have been placed in the public domain by the
# contributors.
#
data_4517413
loop_
_publ_author_name
'Chen, Wei'
'Liu, Haiyu'
'Fan, Ruiqing'
'Wang, Ping'
'Sun, Tiancheng'
'Yang, Yulin'
_publ_section_title
;
 Formation and Encapsulation of Lead Halide Perovskites in Lanthanide
 Metal-Organic Frameworks for Tunable Emission.
;
_journal_name_full               'ACS applied materials &amp; interfaces'
_journal_paper_doi               10.1021/acsami.9b23617
_journal_year                    2020
_chemical_formula_moiety         'C30 H24 Dy N O11'
_chemical_formula_sum            'C30 H24 Dy N O11'
_chemical_formula_weight         737.00
_space_group_crystal_system      triclinic
_space_group_IT_number           2
_space_group_name_Hall           '-P 1'
_space_group_name_H-M_alt        'P -1'
_atom_sites_solution_hydrogens   mixed
_atom_sites_solution_primary     direct
_audit_creation_date             2019-05-29
_audit_creation_method
;
Olex2 1.2
(compiled 2018.05.29 svn.r3508 for OlexSys, GUI svn.r5506)
;
_cell_angle_alpha                65.768(6)
_cell_angle_beta                 72.267(6)
_cell_angle_gamma                88.550(6)
_cell_formula_units_Z            2
_cell_length_a                   10.893(3)
_cell_length_b                   11.439(3)
_cell_length_c                   12.520(3)
_cell_measurement_reflns_used    9829
_cell_measurement_temperature    293(2)
_cell_measurement_theta_max      30.70
_cell_measurement_theta_min      2.25
_cell_volume                     1346.0(6)
_computing_cell_refinement       'SAINT V8.38A (?, 2016)'
_computing_data_reduction        'SAINT V8.38A (?, 2016)'
_computing_molecular_graphics    'Olex2 (Dolomanov et al., 2009)'
_computing_publication_material  'Olex2 (Dolomanov et al., 2009)'
_computing_structure_refinement  'XL (Sheldrick, 2008)'
_computing_structure_solution    'XS (Sheldrick, 2008)'
_diffrn_ambient_temperature      293.01
_diffrn_measured_fraction_theta_full 0.998
_diffrn_measured_fraction_theta_max 0.987
_diffrn_measurement_device_type  'CCD area detector'
_diffrn_measurement_method       'phi and omega scans'
_diffrn_radiation_monochromator  graphite
_diffrn_radiation_type           MoK\a
_diffrn_radiation_wavelength     0.71073
_diffrn_reflns_av_R_equivalents  0.0585
_diffrn_reflns_av_unetI/netI     0.0653
_diffrn_reflns_Laue_measured_fraction_full 0.998
_diffrn_reflns_Laue_measured_fraction_max 0.987
_diffrn_reflns_limit_h_max       15
_diffrn_reflns_limit_h_min       -15
_diffrn_reflns_limit_k_max       16
_diffrn_reflns_limit_k_min       -16
_diffrn_reflns_limit_l_max       17
_diffrn_reflns_limit_l_min       -17
_diffrn_reflns_number            22884
_diffrn_reflns_point_group_measured_fraction_full 0.998
_diffrn_reflns_point_group_measured_fraction_max 0.987
_diffrn_reflns_theta_full        25.242
_diffrn_reflns_theta_max         30.779
_diffrn_reflns_theta_min         2.248
_exptl_absorpt_coefficient_mu    2.843
_exptl_absorpt_correction_T_max  0.7461
_exptl_absorpt_correction_T_min  0.4659
_exptl_absorpt_correction_type   multi-scan
_exptl_absorpt_process_details
;
SADABS-2016/2 (Bruker,2016/2) was used for absorption correction.
wR2(int) was 0.1267 before and 0.0671 after correction.
The Ratio of minimum to maximum transmission is 0.6244.
The \l/2 correction factor is Not present.
;
_exptl_crystal_colour            colourless
_exptl_crystal_colour_primary    colourless
_exptl_crystal_density_diffrn    1.818
_exptl_crystal_description       block
_exptl_crystal_F_000             730
_exptl_crystal_size_max          0.36
_exptl_crystal_size_mid          0.32
_exptl_crystal_size_min          0.3
_refine_diff_density_max         4.631
_refine_diff_density_min         -3.484
_refine_diff_density_rms         0.199
_refine_ls_extinction_method     none
_refine_ls_goodness_of_fit_ref   1.061
_refine_ls_hydrogen_treatment    constr
_refine_ls_matrix_type           full
_refine_ls_number_parameters     391
_refine_ls_number_reflns         8294
_refine_ls_number_restraints     0
_refine_ls_restrained_S_all      1.061
_refine_ls_R_factor_all          0.0573
_refine_ls_R_factor_gt           0.0429
_refine_ls_shift/su_max          0.001
_refine_ls_shift/su_mean         0.000
_refine_ls_structure_factor_coef Fsqd
_refine_ls_weighting_details
'w=1/[\s^2^(Fo^2^)+8.3207P] where P=(Fo^2^+2Fc^2^)/3'
_refine_ls_weighting_scheme      calc
_refine_ls_wR_factor_gt          0.0936
_refine_ls_wR_factor_ref         0.1047
_reflns_Friedel_coverage         0.000
_reflns_number_gt                7064
_reflns_number_total             8294
_reflns_threshold_expression     'I > 2\s(I)'
_cod_data_source_file            am9b23617_si_002.cif
_cod_data_source_block           Dytpob
_cod_database_code               4517413
_shelx_shelxl_version_number     2018/3
_shelx_space_group_comment
;
The symmetry employed for this shelxl refinement is uniquely defined
by the following loop, which should always be used as a source of
symmetry information in preference to the above space-group names.
They are only intended as comments.
;
_shelx_estimated_absorpt_t_max   0.483
_shelx_estimated_absorpt_t_min   0.428
_olex2_refinement_description
;
1. Fixed Uiso
 At 1.2 times of:
  All C(H) groups
 At 1.5 times of:
  All C(H,H,H) groups, All O(H,H) groups
2.a Rotating group:
 O11(H11A,H11B)
2.b Aromatic/amide H refined with riding coordinates:
 C2(H2), C4(H4), C6(H6), C9(H9), C10(H10), C11(H11), C12(H12), C16(H16),
 C17(H17), C18(H18), C19(H19), C23(H23), C24(H24), C25(H25), C26(H26), C28(H28)
2.c Idealised Me refined as rotating group:
 C29(H29A,H29B,H29C), C30(H30A,H30B,H30C)
;
_shelx_res_file
;
TITL 1 in P1 #1 New: P-1 New: P-1
    1.res
    created by SHELXL-2018/3 at 14:01:58 on 29-May-2019
CELL 0.71073 10.893 11.439 12.52 65.768 72.267 88.55
ZERR 2 0.003 0.003 0.003 0.006 0.006 0.006
LATT 1
SFAC C H Dy N O
UNIT 60 48 2 2 22

L.S. 5
PLAN  -20
SIZE 0.3 0.32 0.36
CONF
bond $H
htab
fmap 2
acta
REM <olex2.extras>
REM <HklSrc "%.\\1.hkl">
REM </olex2.extras>

WGHT    0.000000    8.320701
FVAR       0.14971
DY1   3    0.321736   -0.045405    1.018830    11.00000    0.01364    0.01268 =
         0.01597   -0.00523   -0.00258    0.00093
O1    5    0.516973    0.148250    0.523829    11.00000    0.02567    0.02738 =
         0.02459   -0.01803   -0.01357    0.01227
O2    5    0.551974    0.441868    0.701088    11.00000    0.01653    0.02095 =
         0.02345   -0.01146   -0.00428   -0.00084
O3    5    0.154149    0.354543    0.646940    11.00000    0.01346    0.03794 =
         0.03184   -0.02087   -0.00594    0.00340
O4    5    0.545392    0.031296    0.868109    11.00000    0.01739    0.01713 =
         0.01560   -0.00609   -0.00334    0.00054
O5    5    0.395888   -0.017590    0.804336    11.00000    0.01433    0.02781 =
         0.01766   -0.00763   -0.00420    0.00012
O6    5    0.356240    0.173064    0.978651    11.00000    0.02071    0.01378 =
         0.03146   -0.00918   -0.00852    0.00207
O7    5    0.566026    0.224822    0.946331    11.00000    0.01829    0.01690 =
         0.02726   -0.01139   -0.00609    0.00409
O8    5   -0.171317    0.114094    0.793392    11.00000    0.02039    0.03634 =
         0.02271   -0.01347    0.00295   -0.00719
O9    5    0.033590    0.091914    0.787536    11.00000    0.03210    0.03552 =
         0.02971   -0.00625   -0.01212    0.01171
O10   5    0.181873   -0.199104    1.015036    11.00000    0.02481    0.02858 =
         0.03133   -0.01436   -0.00785   -0.00328
N1    4    0.029735   -0.260385    0.952199    11.00000    0.02125    0.02791 =
         0.02377   -0.01260   -0.00589   -0.00217
C1    1    0.467569    0.232566    0.575674    11.00000    0.02273    0.01611 =
         0.01503   -0.00668   -0.00482    0.00413
C2    1    0.339803    0.251149    0.581836    11.00000    0.02032    0.01797 =
         0.01971   -0.00696   -0.00558   -0.00011
AFIX  43
H2    2    0.293910    0.208346    0.554273    11.00000   -1.20000
AFIX   0
C3    1    0.283099    0.335731    0.630509    11.00000    0.01453    0.02044 =
         0.01838   -0.00698   -0.00240    0.00061
C4    1    0.349950    0.400806    0.671878    11.00000    0.01538    0.01874 =
         0.01939   -0.00851   -0.00232    0.00211
AFIX  43
H4    2    0.310116    0.457352    0.704258    11.00000   -1.20000
AFIX   0
C5    1    0.477778    0.379314    0.663677    11.00000    0.01603    0.01585 =
         0.01601   -0.00485   -0.00246   -0.00102
C6    1    0.539374    0.295655    0.614380    11.00000    0.01649    0.01871 =
         0.01784   -0.00675   -0.00518    0.00295
AFIX  43
H6    2    0.625521    0.282781    0.607785    11.00000   -1.20000
AFIX   0
C7    1    0.614160    0.075590    0.555255    11.00000    0.01641    0.01856 =
         0.02003   -0.01100   -0.00308    0.00176
C8    1    0.617143    0.010383    0.676435    11.00000    0.01623    0.01605 =
         0.01539   -0.00715   -0.00193    0.00054
C9    1    0.716749   -0.064663    0.697566    11.00000    0.01995    0.02229 =
         0.02484   -0.01174   -0.00615    0.00587
AFIX  43
H9    2    0.720778   -0.106248    0.777511    11.00000   -1.20000
AFIX   0
C10   1    0.810811   -0.078534    0.600580    11.00000    0.02271    0.02271 =
         0.03226   -0.01568   -0.00619    0.00812
AFIX  43
H10   2    0.875994   -0.130730    0.615890    11.00000   -1.20000
AFIX   0
C11   1    0.806377   -0.013561    0.480515    11.00000    0.02487    0.02618 =
         0.02887   -0.01668   -0.00147    0.00538
AFIX  43
H11   2    0.868968   -0.022148    0.415274    11.00000   -1.20000
AFIX   0
C12   1    0.708661    0.064053    0.457983    11.00000    0.02446    0.02533 =
         0.01990   -0.01232   -0.00178    0.00248
AFIX  43
H12   2    0.706651    0.108308    0.377568    11.00000   -1.20000
AFIX   0
C13   1    0.513333    0.010514    0.786625    11.00000    0.01566    0.01371 =
         0.01545   -0.00419   -0.00215    0.00162
C14   1    0.483294    0.482416    0.791758    11.00000    0.01914    0.01761 =
         0.02314   -0.01015   -0.00736    0.00102
C15   1    0.429693    0.390838    0.913657    11.00000    0.01831    0.01386 =
         0.02480   -0.00866   -0.00726    0.00283
C16   1    0.358035    0.430515    1.002322    11.00000    0.02098    0.01885 =
         0.02503   -0.01123   -0.00599    0.00106
AFIX  43
H16   2    0.319715    0.369893    1.083443    11.00000   -1.20000
AFIX   0
C17   1    0.342760    0.560988    0.970967    11.00000    0.02835    0.02082 =
         0.03190   -0.01594   -0.01090    0.00668
AFIX  43
H17   2    0.294823    0.587526    1.030719    11.00000   -1.20000
AFIX   0
C18   1    0.400334    0.650673    0.848997    11.00000    0.03345    0.01730 =
         0.03629   -0.01401   -0.01408    0.00835
AFIX  43
H18   2    0.391407    0.737673    0.827998    11.00000   -1.20000
AFIX   0
C19   1    0.470265    0.612959    0.758852    11.00000    0.02992    0.01514 =
         0.02619   -0.00463   -0.01061    0.00097
AFIX  43
H19   2    0.508029    0.673521    0.677608    11.00000   -1.20000
AFIX   0
C20   1    0.453378    0.250842    0.949027    11.00000    0.02177    0.01204 =
         0.01645   -0.00533   -0.00249    0.00316
C21   1    0.098403    0.342280    0.564956    11.00000    0.01491    0.02261 =
         0.02483   -0.01150   -0.00633    0.00420
C22   1   -0.008222    0.251096    0.611589    11.00000    0.01567    0.01914 =
         0.01926   -0.00747   -0.00318    0.00179
C23   1   -0.076238    0.254991    0.531923    11.00000    0.01752    0.02856 =
         0.02801   -0.01609   -0.00641    0.00248
AFIX  43
H23   2   -0.149740    0.196774    0.561693    11.00000   -1.20000
AFIX   0
C24   1   -0.035490    0.344553    0.409092    11.00000    0.02693    0.03510 =
         0.02686   -0.01309   -0.01198    0.01139
AFIX  43
H24   2   -0.081954    0.346379    0.357322    11.00000   -1.20000
AFIX   0
C25   1    0.074399    0.431323    0.363435    11.00000    0.03140    0.02914 =
         0.01995   -0.00310   -0.00671    0.01071
AFIX  43
H25   2    0.103456    0.489377    0.280433    11.00000   -1.20000
AFIX   0
C26   1    0.140939    0.431239    0.442103    11.00000    0.02207    0.01993 =
         0.03316   -0.00640   -0.00439    0.00010
AFIX  43
H26   2    0.213558    0.490488    0.412529    11.00000   -1.20000
AFIX   0
C27   1   -0.050842    0.145751    0.741409    11.00000    0.02377    0.02044 =
         0.01723   -0.00862   -0.00055   -0.00137
C28   1    0.133104   -0.186839    0.933927    11.00000    0.02372    0.02137 =
         0.02548   -0.00881   -0.00640    0.00204
AFIX  43
H28   2    0.171584   -0.121753    0.855082    11.00000   -1.20000
AFIX   0
C29   1   -0.028717   -0.235763    0.856124    11.00000    0.03789    0.04547 =
         0.04021   -0.01292   -0.01629   -0.00420
AFIX 137
H29A  2   -0.114268   -0.211762    0.881097    11.00000   -1.50000
H29B  2   -0.034023   -0.312338    0.843187    11.00000   -1.50000
H29C  2    0.023518   -0.166918    0.780609    11.00000   -1.50000
AFIX   0
C30   1   -0.038552   -0.359334    1.074024    11.00000    0.05453    0.05624 =
         0.03414   -0.00812   -0.00690   -0.03085
AFIX 137
H30A  2   -0.016182   -0.442354    1.077849    11.00000   -1.50000
H30B  2   -0.130376   -0.357484    1.089947    11.00000   -1.50000
H30C  2   -0.014387   -0.343789    1.135072    11.00000   -1.50000
AFIX   0
O11  5    0.152962    0.068396    0.954070    11.00000    0.09584    0.09095 =
         0.17381   -0.11062   -0.11492    0.07903
AFIX   7
H11A  2    0.172345    0.094406    0.876115    11.00000   -1.50000
H11B  2    0.150075    0.137504    0.964658    11.00000   -1.50000
AFIX   0
HKLF 4




REM  1 in P1 #1 New: P-1 New: P-1
REM wR2 = 0.1047, GooF = S = 1.061, Restrained GooF = 1.061 for all data
REM R1 = 0.0429 for 7064 Fo > 4sig(Fo) and 0.0573 for all 8294 data
REM 391 parameters refined using 0 restraints

END

WGHT      0.0000      8.3207

REM Instructions for potential hydrogen bonds
EQIV $3 -x+1, -y+1, -z+1
HTAB C19 O1_$3
HTAB C26 O2_$3
HTAB C28 O5
EQIV $1 -x, -y, -z+2
HTAB C30 O3_$1
HTAB O11 O9
HTAB O11 N1_$1

REM Highest difference peak  4.631,  deepest hole -3.484,  1-sigma level  0.199
Q1    1   0.0359  0.1359  0.9405  11.00000  0.05    4.63
Q2    1   0.3761 -0.0587  1.0420  11.00000  0.05    2.07
Q3    1   0.1936  0.0982  0.9018  11.00000  0.05    1.82
Q4    1   0.3580  0.0191  0.9820  11.00000  0.05    1.60
Q5    1   0.1412  0.0371  0.9808  11.00000  0.05    1.52
Q6    1   0.2638 -0.0257  0.9908  11.00000  0.05    1.51
Q7    1   0.0235 -0.0857  0.9750  11.00000  0.05    1.36
Q8    1   0.3967 -0.1238  0.9821  11.00000  0.05    1.28
Q9    1   0.2957 -0.1009  1.0477  11.00000  0.05    1.23
Q10   1   0.5567  0.0234  1.0230  11.00000  0.05    1.19
Q11   1   0.2621  0.0437  1.0437  11.00000  0.05    1.18
Q12   1   0.3182  0.0517  0.9256  11.00000  0.05    1.10
Q13   1  -0.0829 -0.1596  1.0114  11.00000  0.05    1.05
Q14   1   0.3357 -0.0039  0.8975  11.00000  0.05    0.99
Q15   1   0.0396 -0.1081  1.0661  11.00000  0.05    0.96
Q16   1   0.3205 -0.1384  1.1156  11.00000  0.05    0.95
Q17   1   0.4260 -0.0040  0.9265  11.00000  0.05    0.94
Q18   1   0.2040 -0.0763  1.0747  11.00000  0.05    0.93
Q19   1   0.2216 -0.1004  1.0411  11.00000  0.05    0.88
Q20   1   0.4791  0.0340  1.0521  11.00000  0.05    0.84
;
_shelx_res_checksum              5756
_shelx_hkl_file
;
  -2   0   0   42.45    2.87
  -2   0   0   48.51    2.95
  -2   0   0   45.34    3.00
   2   0   0   45.30    2.88
   2   0   0   49.59    3.04
   2   0   0   44.75    2.91
  -3   0   0  142.04    8.98
  -3   0   0  162.35    9.11
  -3   0   0  146.42    9.15
   3   0   0  144.60    9.02
   3   0   0  146.29    8.99
   3   0   0  149.78    9.18
  -4   0   0   27.86    2.01
  -4   0   0   22.69    1.97
   4   0   0   24.34    2.03
   4   0   0   25.02    1.83
  -5   0   0   86.85    6.05
  -5   0   0   95.85    6.03
   5   0   0   86.45    5.80
   5   0   0   95.52    6.14
  -6   0   0  368.53   21.68
   6   0   0  332.79   21.40
   6   0   0  365.52   21.81
  -7   0   0    0.60    0.53
   7   0   0    0.45    0.61
   7   0   0    0.79    0.39
  -8   0   0  120.23    8.36
   8   0   0  113.28    7.96
   8   0   0  135.27    8.54
  -9   0   0   36.74    3.54
   9   0   0   34.91    2.99
   9   0   0   38.39    3.51
 -10   0   0   -0.23    0.81
  10   0   0    0.49    0.58
  10   0   0    0.44    1.04
 -11   0   0   31.57    3.53
  11   0   0   32.67    2.98
  11   0   0   29.86    3.46
 -12   0   0    6.61    1.90
  12   0   0    8.27    2.16
  12   0   0    7.38    1.48
 -13   0   0    3.13    1.71
  13   0   0    6.32    1.53
  13   0   0    4.54    1.97
 -14   0   0   32.54    4.35
  14   0   0   38.09    3.58
  14  -1   0   53.09    4.48
 -14   1   0   52.89    5.44
  13  -1   0   -0.04    0.62
  13  -1   0   -1.12    1.38
 -13   1   0   -2.19    0.91
  12  -1   0   26.08    3.50
  12  -1   0   30.20    2.78
 -12   1   0   26.64    3.45
  11  -1   0   61.01    4.56
  11  -1   0   55.63    5.20
 -11   1   0   58.24    5.13
  10  -1   0    3.16    1.04
  10  -1   0    1.38    1.21
 -10   1   0    1.41    1.21
   9  -1   0   53.39    4.59
   9  -1   0   51.09    3.89
  -9   1   0   52.06    4.35
   8  -1   0   96.38    6.86
   8  -1   0   89.09    6.12
  -8   1   0   91.30    6.54
   7  -1   0   12.06    1.71
   7  -1   0   11.97    1.26
  -7   1   0   12.59    1.65
   6  -1   0  151.80   10.46
   6  -1   0  180.82   11.17
  -6   1   0  180.43   10.84
   5  -1   0   55.48    3.70
   5  -1   0   55.56    4.21
  -5   1   0   56.76    3.93
   4  -1   0    7.75    1.11
   4  -1   0    7.75    0.75
  -4   1   0    9.90    1.05
  -4   1   0    8.08    1.10
  -4   1   0    7.87    0.76
   3  -1   0  108.48    7.31
   3  -1   0  129.51    7.49
   3  -1   0  121.30    7.75
  -3   1   0  121.69    7.33
  -3   1   0  118.91    7.73
  -3   1   0  128.17    7.51
   2  -1   0  165.98   10.38
   2  -1   0  169.74   10.50
   2  -1   0  179.60   10.76
  -2   1   0  161.22   10.38
  -2   1   0  177.57   10.76
  -2   1   0  196.78   10.55
   1  -1   0   81.67    5.35
   1  -1   0   89.24    5.21
  -1   1   0   84.27    5.37
  -1   1   0   85.57    5.09
  -1   1   0   88.98    5.21
  -1  -1   0   19.02    1.35
  -1  -1   0   20.72    1.32
   1   1   0   19.85    1.32
   1   1   0   19.78    1.35
  -2  -1   0  351.66   19.69
  -2  -1   0  332.21   19.89
  -2  -1   0  322.40   19.82
   2   1   0  362.35   19.70
   2   1   0  298.50   19.88
  -3  -1   0  216.59   13.14
  -3  -1   0  220.06   13.11
  -3  -1   0  228.63   13.04
   3   1   0  196.82   13.08
   3   1   0  200.25   13.07
   3   1   0  243.10   13.08
  -4  -1   0   15.71    1.31
  -4  -1   0   13.38    1.36
   4   1   0   17.54    1.37
   4   1   0   15.68    1.33
  -5  -1   0   26.08    2.22
   5   1   0   23.42    1.89
   5   1   0   19.23    1.77
  -6  -1   0  135.91    8.89
  -6  -1   0  130.72    8.76
   6   1   0  139.48    8.75
   6   1   0  144.81    8.85
  -7  -1   0   19.69    2.16
   7   1   0   20.48    1.93
   7   1   0   23.21    2.10
  -8  -1   0   83.15    6.04
   8   1   0   77.06    5.69
   8   1   0   88.32    5.94
  -9  -1   0    1.34    0.87
 -10  -1   0   46.47    4.22
  10   1   0   44.11    3.89
  10   1   0   44.51    3.70
 -11  -1   0   52.60    4.91
  11   1   0   53.73    4.33
  11   1   0   51.63    4.44
 -12  -1   0   -0.65    1.03
  12   1   0    0.93    0.75
  12   1   0   -0.71    1.06
 -13  -1   0   12.09    2.38
  13   1   0   19.48    2.35
 -14  -1   0   39.81    4.83
  14   1   0   40.34    3.90
  14  -2   0   17.44    3.18
  14  -2   0   22.81    2.92
 -14   2   0   23.11    3.53
  13  -2   0   -0.67    0.67
  13  -2   0   -1.64    1.51
 -13   2   0   -1.21    1.06
  12  -2   0   52.21    5.27
  12  -2   0   55.29    4.34
 -12   2   0   57.68    5.11
  11  -2   0   27.01    2.48
  11  -2   0   24.79    3.44
 -11   2   0   25.80    3.17
  10  -2   0   -0.66    0.92
  10  -2   0    0.46    0.52
   9  -2   0   55.71    5.19
   9  -2   0   64.63    4.47
  -9   2   0   66.10    5.03
   8  -2   0   29.30    2.35
   8  -2   0   30.09    3.17
  -8   2   0   27.16    2.76
   7  -2   0   61.69    4.22
   7  -2   0   60.71    4.98
  -7   2   0   65.05    4.64
   6  -2   0  216.37   13.58
   6  -2   0  225.00   14.44
  -6   2   0  230.76   13.96
   5  -2   0    6.59    1.43
   5  -2   0    6.72    0.74
  -5   2   0    7.33    1.06
   4  -2   0  161.61    9.16
   4  -2   0  150.63    9.84
  -4   2   0  160.97    9.46
  -4   2   0  132.87    9.10
   3  -2   0   76.45    5.00
   3  -2   0   88.64    4.81
   3  -2   0   77.42    5.40
  -3   2   0   77.48    5.40
  -3   2   0   81.97    5.07
  -3   2   0   69.56    4.76
   2  -2   0  131.03    8.51
   2  -2   0  148.22    8.36
  -2   2   0  128.43    8.50
  -2   2   0  126.76    7.94
  -2   2   0  136.31    8.20
   0  -2   0  269.05   15.50
   0  -2   0  253.25   15.60
   0   2   0  255.99   15.61
   0   2   0  271.11   15.49
   0   2   0  265.84   15.51
   0   2   0  257.44   15.44
   0   2   0  248.64   15.38
  -1  -2   0    0.55    0.21
  -1  -2   0    1.47    0.38
   1   2   0    0.68    0.24
   1   2   0    0.18    0.27
   1   2   0    0.34    0.19
  -2  -2   0  299.67   17.46
  -2  -2   0  289.64   17.50
   2   2   0  285.53   17.49
   2   2   0  294.42   17.46
  -3  -2   0  121.27    7.60
   3   2   0  122.55    7.57
  -4  -2   0    0.05    0.30
  -4  -2   0    0.49    0.22
   4   2   0    0.61    0.39
  -5  -2   0  240.69   14.91
  -5  -2   0  253.73   14.60
   5   2   0  244.68   14.54
   5   2   0  230.02   14.82
  -6  -2   0   16.59    1.76
  -6  -2   0   15.93    1.41
   6   2   0   15.56    1.38
   6   2   0   15.49    1.55
  -7  -2   0   24.69    2.41
   7   2   0   23.34    2.00
   7   2   0   25.25    2.22
  -8  -2   0   63.33    4.98
  -8  -2   0   60.46    4.57
   8   2   0   65.86    4.77
   8   2   0   69.59    4.58
   9   2   0    1.07    0.73
   9   2   0    1.73    0.77
 -10  -2   0   34.75    3.57
  10   2   0   33.35    2.92
  10   2   0   37.97    3.27
 -11  -2   0   66.64    5.82
  11   2   0   75.86    5.42
  11   2   0   62.50    4.93
 -12  -2   0   -0.84    1.01
  12   2   0    1.52    0.86
 -13  -2   0   36.64    5.22
  13   2   0   30.94    3.33
 -14  -2   0   21.15    3.71
  14   2   0   22.65    2.87
  14  -3   0   18.76    2.28
  14  -3   0   19.42    3.52
 -14   3   0   15.29    2.77
  13  -3   0    4.87    1.21
  13  -3   0    2.78    1.81
 -13   3   0    2.60    1.49
  12  -3   0   49.85    5.42
  12  -3   0   59.61    4.44
 -12   3   0   62.07    5.35
  11  -3   0   17.08    1.89
  11  -3   0   14.55    2.80
 -11   3   0   17.58    2.62
  10  -3   0    8.48    1.18
  10  -3   0    6.47    2.14
 -10   3   0    6.48    1.58
   9  -3   0   63.99    4.56
   9  -3   0   64.48    5.70
  -9   3   0   69.38    5.24
   8  -3   0    0.11    0.94
   8  -3   0    0.02    0.33
  -8   3   0   -1.18    0.52
   7  -3   0   50.12    3.54
   7  -3   0   44.71    4.25
  -7   3   0   50.58    3.89
   6  -3   0  125.50    7.60
   6  -3   0  120.38    8.61
  -6   3   0  120.71    8.06
   5  -3   0   -0.38    0.49
   5  -3   0   -0.09    0.16
  -5   3   0    0.16    0.50
  -5   3   0   -0.05    0.13
   4  -3   0  148.76    8.36
  -4   3   0  121.95    8.31
  -4   3   0  146.03    8.80
   3  -3   0  288.08   15.00
   3  -3   0  230.06   15.74
  -3   3   0  230.39   14.95
  -3   3   0  262.31   15.38
   2  -3   0  240.16   14.23
   2  -3   0  253.26   14.53
   2  -3   0  229.33   14.92
  -2   3   0  246.12   14.19
  -2   3   0  234.51   14.54
   1  -3   0  205.47   12.94
   1  -3   0  226.20   12.64
  -1   3   0  210.83   12.59
  -1   3   0  199.89   12.37
  -1   3   0  204.21   12.96
  -1   3   0  218.42   12.67
  -1   3   0  200.48   12.41
   0  -3   0  300.43   18.12
   0  -3   0  292.96   17.77
   0  -3   0  310.56   17.95
   0   3   0  308.19   17.94
   0   3   0  298.23   17.87
   0   3   0  288.82   17.77
   0   3   0  308.09   17.97
   0   3   0  292.48   18.14
  -1  -3   0    0.65    0.32
  -1  -3   0    0.62    0.31
  -1  -3   0    0.29    0.18
   1   3   0    0.27    0.22
   1   3   0    0.64    0.27
   1   3   0    0.47    0.20
  -2  -3   0  471.52   28.89
   2   3   0  498.10   28.84
   2   3   0  485.46   28.65
  -3  -3   0   43.31    3.19
   3   3   0   47.20    3.15
  -4  -3   0   40.04    3.01
   4   3   0   41.02    2.94
  -5  -3   0  136.36    8.68
   5   3   0  133.19    8.59
  -6  -3   0    1.49    0.64
   6   3   0    2.11    0.61
  -7  -3   0   85.85    6.29
   7   3   0   94.42    6.23
  -8  -3   0   91.92    7.17
   8   3   0  113.40    7.21
  -9  -3   0    0.18    0.78
   9   3   0    0.19    0.58
 -10  -3   0   59.33    5.04
  10   3   0   53.62    4.46
 -11  -3   0   22.59    3.23
  11   3   0   30.91    3.00
  12   3   0    8.74    1.79
 -13  -3   0   44.34    5.04
  13   3   0   47.93    4.38
 -14  -3   0   14.49    3.40
  14   3   0   16.54    2.55
 -14   4   0    4.85    1.65
  13  -4   0   10.43    1.55
  13  -4   0    8.03    2.27
 -13   4   0    6.75    1.79
  12  -4   0   59.11    4.38
  12  -4   0   54.16    5.75
 -12   4   0   61.33    5.36
  11  -4   0    0.56    0.58
  11  -4   0   -0.77    1.25
 -11   4   0   -0.64    0.91
  10  -4   0   26.84    2.32
  10  -4   0   27.11    3.59
 -10   4   0   28.79    3.24
   9  -4   0   87.00    5.92
   9  -4   0   93.66    7.92
  -9   4   0   91.94    6.75
   8  -4   0    2.76    0.60
   8  -4   0    4.23    1.62
  -8   4   0    3.07    1.08
   7  -4   0   63.26    5.55
   7  -4   0   68.66    4.40
  -7   4   0   68.82    5.06
   6  -4   0   31.95    2.10
   6  -4   0   25.28    3.00
  -6   4   0   34.08    2.72
  -6   4   0   26.42    2.03
   5  -4   0   35.58    2.27
   5  -4   0   30.74    3.20
  -5   4   0   34.21    2.81
   4  -4   0  239.75   12.92
   4  -4   0  207.29   14.00
  -4   4   0  184.70   12.85
  -4   4   0  238.73   13.83
   3  -4   0   43.16    3.88
  -3   4   0   43.92    3.04
  -3   4   0   38.24    2.49
   2  -4   0  346.87   22.65
  -2   4   0  370.03   22.23
  -2   4   0  406.06   21.81
  -2   4   0  354.67   21.82
   1  -4   0  344.04   21.47
  -1   4   0  355.18   20.87
  -1   4   0  363.02   21.15
  -1   4   0  344.85   20.80
   0  -4   0   46.75    3.18
   0  -4   0   46.99    3.40
   0  -4   0   47.05    2.97
   0   4   0   42.22    3.35
   0   4   0   47.57    3.10
   0   4   0   45.67    3.17
   0   4   0   46.75    2.98
  -1  -4   0   14.29    1.34
  -1  -4   0   14.01    1.31
  -1  -4   0   15.14    1.18
   1   4   0   15.38    1.20
   1   4   0   13.61    1.29
  -2  -4   0  333.83   19.02
   2   4   0  314.73   19.10
   2   4   0  305.26   19.02
  -3  -4   0   47.04    3.46
   3   4   0   49.17    3.38
  -4  -4   0  182.52   11.85
   4   4   0  197.12   11.83
  -5  -4   0  102.47    7.00
   5   4   0  108.34    6.98
  -6  -4   0   -0.36    0.44
   6   4   0    0.92    0.53
  -7  -4   0   52.07    4.36
   7   4   0   59.13    4.26
  -8  -4   0   61.30    5.19
   8   4   0   73.79    5.16
  -9  -4   0    1.03    1.01
   9   4   0    1.90    0.87
 -10  -4   0   53.55    5.04
  10   4   0   61.52    4.78
 -11  -4   0    9.22    2.07
  11   4   0    9.60    1.81
  12   4   0   18.79    2.52
 -13  -4   0   38.19    4.87
  13   4   0   57.07    4.75
  14  -5   0    0.48    0.89
  14  -5   0   -0.20    1.86
 -14   5   0    0.12    1.11
  13  -5   0   17.50    4.47
  13  -5   0   25.60    2.37
 -13   5   0   24.79    3.48
  12  -5   0   24.21    2.30
  12  -5   0   25.84    3.69
 -12   5   0   22.24    3.30
  11  -5   0    0.75    0.61
  11  -5   0    2.16    1.58
 -11   5   0   -0.03    1.03
  10  -5   0   79.98    7.42
  10  -5   0   88.44    5.83
 -10   5   0   95.64    6.92
   9  -5   0   90.18    5.74
   9  -5   0   91.25    7.52
  -9   5   0   81.23    6.66
   8  -5   0   12.11    2.79
   8  -5   0   14.11    1.27
  -8   5   0   12.34    2.06
   7  -5   0  101.02    8.23
   7  -5   0  111.01    6.79
  -7   5   0  113.50    7.62
   6  -5   0   53.66    4.74
   6  -5   0   55.78    3.36
  -6   5   0   46.57    3.30
  -6   5   0   53.20    4.13
   5  -5   0   42.56    4.00
   5  -5   0   46.51    2.71
  -5   5   0   38.49    2.64
  -5   5   0   41.21    3.37
   4  -5   0  273.21   17.51
  -4   5   0  257.57   16.07
  -4   5   0  289.09   16.85
   3  -5   0    3.21    1.12
  -3   5   0    2.75    0.25
  -3   5   0    2.90    0.69
   2  -5   0  267.69   17.80
  -2   5   0  281.43   16.81
  -2   5   0  298.93   16.86
  -2   5   0  286.86   17.36
   1  -5   0  454.44   28.11
  -1   5   0  484.68   27.75
  -1   5   0  448.09   27.54
  -1   5   0  460.25   27.32
   0  -5   0   78.66    5.00
   0  -5   0   76.72    5.27
   0   5   0   74.28    4.87
   0   5   0   71.10    4.72
   0   5   0   74.47    4.98
  -1  -5   0   40.43    3.03
  -1  -5   0   40.13    2.93
   1   5   0   36.53    2.98
   1   5   0   41.74    2.78
  -2  -5   0  183.29   11.22
  -2  -5   0  174.99   11.33
   2   5   0  188.17   11.27
  -3  -5   0    0.14    0.24
  -3  -5   0    0.34    0.53
   3   5   0    0.44    0.28
   3   5   0    0.11    0.23
  -4  -5   0   69.77    4.98
   4   5   0   72.10    4.91
  -5  -5   0   39.76    3.33
   5   5   0   41.66    3.22
  -6  -5   0   12.89    1.75
   6   5   0   14.43    1.66
   7   5   0   63.72    4.77
  -8  -5   0   17.33    2.33
   8   5   0   19.72    2.18
  -9  -5   0    7.27    1.60
 -10  -5   0   37.56    4.03
  10   5   0   46.11    3.95
 -11  -5   0    3.08    1.40
  11   5   0    6.55    1.57
 -12  -5   0    7.76    2.32
  12   5   0    8.54    1.92
 -13  -5   0   22.56    3.47
  13   5   0   23.54    3.03
  14  -6   0   -3.17    1.59
 -14   6   0   -0.35    1.10
  13  -6   0   25.49    4.09
  12  -6   0   21.28    3.74
  12  -6   0   19.91    1.99
 -12   6   0   22.67    3.36
  11  -6   0    1.13    1.51
  11  -6   0   -0.82    0.41
 -11   6   0   -1.10    0.79
  10  -6   0   38.83    4.68
 -10   6   0   39.14    3.99
   9  -6   0    9.11    2.49
   9  -6   0    9.23    1.14
  -9   6   0    8.33    1.82
   8  -6   0   47.89    5.01
   8  -6   0   51.46    3.31
  -8   6   0   45.70    4.17
   7  -6   0   94.77    5.99
   7  -6   0  102.17   10.08
  -7   6   0   97.87    7.00
   6  -6   0    2.59    1.26
   6  -6   0    3.42    0.45
  -6   6   0    2.72    0.95
  -6   6   0    3.06    0.36
   5  -6   0   54.53    4.73
  -5   6   0   57.78    4.05
  -5   6   0   44.80    2.98
   4  -6   0  137.10    9.59
  -4   6   0  132.35    8.82
   3  -6   0    8.20    1.76
  -3   6   0    5.73    1.06
  -3   6   0    7.03    0.52
   2  -6   0  142.96   10.17
  -2   6   0  144.76    9.08
  -2   6   0  157.02    9.15
  -2   6   0  160.55    9.75
   1  -6   0  137.77    9.69
  -1   6   0  146.06    9.31
  -1   6   0  156.17    9.01
  -1   6   0  141.89    8.85
   0  -6   0   24.35    2.13
   0  -6   0   26.35    2.44
   0   6   0   26.05    1.88
   0   6   0   23.41    2.11
  -1  -6   0  102.25    6.91
  -1  -6   0  105.38    7.09
   1   6   0  110.74    6.95
   1   6   0  106.01    6.76
  -2  -6   0  119.01    7.49
  -2  -6   0  116.98    7.56
   2   6   0  123.08    7.44
   2   6   0  103.87    7.45
  -3  -6   0   43.24    3.34
  -3  -6   0   43.94    2.95
   3   6   0   38.19    2.99
   3   6   0   44.84    3.20
  -4  -6   0   93.55    6.55
   4   6   0   98.14    6.47
  -5  -6   0   43.25    3.61
   5   6   0   45.35    3.49
  -6  -6   0   28.82    3.10
   6   6   0   32.22    2.80
  -7  -6   0   30.67    3.13
   7   6   0   35.01    3.08
  -8  -6   0   -0.38    0.88
   8   6   0   -0.02    0.56
  -9  -6   0   65.01    5.79
   9   6   0   78.84    5.71
 -10  -6   0   50.56    4.83
 -11  -6   0   -0.67    1.24
  11   6   0    1.22    0.82
 -12  -6   0   14.93    2.83
  13  -7   0   26.27    4.25
 -13   7   0   25.69    3.55
  12  -7   0   11.53    2.99
 -12   7   0    7.48    2.02
  11  -7   0   19.50    3.57
 -11   7   0   20.94    2.95
  10  -7   0  105.15    8.46
 -10   7   0   84.18    7.07
   9  -7   0    2.69    1.65
   9  -7   0    2.10    0.47
  -9   7   0    0.48    0.97
   8  -7   0   65.32    4.17
   8  -7   0   70.58    6.38
  -8   7   0   65.55    5.35
   7  -7   0  192.30   13.74
  -7   7   0  193.31   12.74
  -6   7   0    0.49    0.78
   5  -7   0   60.77    5.40
  -5   7   0   57.63    4.62
   4  -7   0   50.79    4.78
  -4   7   0   52.96    4.16
   3  -7   0   19.12    2.50
  -3   7   0   16.99    1.15
  -3   7   0   16.65    1.14
  -3   7   0   16.89    1.92
   2  -7   0  276.47   17.70
  -2   7   0  265.72   17.07
  -2   7   0  281.71   16.40
   1  -7   0  126.38    8.78
  -1   7   0  129.44    7.80
  -1   7   0  119.91    8.12
  -1   7   0  128.88    8.31
   0  -7   0   36.78    3.34
   0  -7   0   40.01    3.07
   0   7   0   38.74    3.07
   0   7   0   38.60    2.75
  -1  -7   0  104.70    7.24
  -1  -7   0  105.31    7.02
   1   7   0  102.06    6.77
   1   7   0  110.40    7.06
  -2  -7   0   43.47    3.32
  -2  -7   0   42.88    3.35
   2   7   0   40.00    3.12
  -3  -7   0   12.76    1.34
  -3  -7   0   14.80    1.76
   3   7   0   11.72    1.38
   3   7   0   15.30    1.54
  -4  -7   0   53.82    4.14
   4   7   0   51.11    3.95
  -5  -7   0    2.26    0.97
   5   7   0    3.71    1.11
  -6  -7   0   56.29    4.69
   6   7   0   59.34    4.53
  -7  -7   0   47.71    4.14
   7   7   0   46.33    3.96
  -8  -7   0   -0.50    0.85
   8   7   0    0.08    0.60
  -9  -7   0   26.41    3.20
   9   7   0   22.73    2.69
 -10  -7   0   15.09    3.12
  10   7   0   19.26    2.40
 -11  -7   0   -1.76    1.18
  11   7   0    0.27    0.84
 -12  -7   0   12.37    2.61
  13  -8   0   34.41    5.14
 -13   8   0   31.37    4.04
  12  -8   0   17.39    3.95
  11  -8   0    7.17    2.70
 -11   8   0    4.15    1.45
  10  -8   0    9.17    2.96
 -10   8   0   11.68    2.29
   9  -8   0    5.09    2.23
  -9   8   0    4.18    1.53
   8  -8   0   65.52    6.22
  -8   8   0   54.96    5.06
   7  -8   0   81.40    7.02
  -7   8   0   71.87    5.89
   6  -8   0   -0.46    1.11
   5  -8   0   64.93    6.04
  -5   8   0   67.51    5.22
   4  -8   0   11.88    2.41
  -4   8   0   12.53    1.97
   3  -8   0   44.42    4.37
  -3   8   0   43.50    2.82
  -3   8   0   47.71    3.82
  -3   8   0   45.31    2.81
   2  -8   0  199.89   13.46
  -2   8   0  200.08   12.04
  -2   8   0  195.22   12.80
  -2   8   0  203.06   12.13
   1  -8   0   33.31    3.30
  -1   8   0   30.91    2.82
  -1   8   0   32.96    2.35
   0  -8   0   32.30    3.14
   0  -8   0   32.33    2.77
   0   8   0   32.45    2.41
   0   8   0   29.65    2.72
  -1  -8   0   94.93    6.91
  -1  -8   0   98.07    6.69
   1   8   0  102.15    6.45
   1   8   0   95.51    6.68
  -2  -8   0   16.18    1.87
  -2  -8   0   17.69    1.97
   2   8   0   16.64    1.70
   2   8   0   16.60    1.88
  -3  -8   0   68.34    4.87
  -3  -8   0   70.92    5.27
   3   8   0   72.12    5.04
  -4  -8   0  138.18    8.84
   4   8   0  111.54    8.17
   4   8   0  142.01    8.70
  -5  -8   0   14.36    2.13
   5   8   0   16.88    1.94
  -6  -8   0   68.78    5.35
   6   8   0   66.09    5.16
  -7  -8   0   44.82    4.01
   7   8   0   41.62    3.78
  -8  -8   0    2.88    1.20
   8   8   0    3.24    1.10
  -9  -8   0   39.48    4.16
   9   8   0   31.75    3.43
 -10  -8   0    6.80    1.93
  10   8   0    9.05    1.99
 -11  -8   0    7.72    2.49
  11   8   0   11.45    2.19
  12  -9   0    0.49    2.03
 -12   9   0   -1.31    1.02
  11  -9   0   36.83    5.14
 -11   9   0   32.88    4.14
  10  -9   0   12.42    3.10
 -10   9   0   15.24    2.56
   9  -9   0    5.64    2.13
  -9   9   0    4.36    1.52
   8  -9   0   31.76    4.32
  -8   9   0   25.06    3.19
   7  -9   0   16.10    3.23
  -7   9   0   10.35    2.15
   6  -9   0   63.13    6.01
  -6   9   0   58.37    5.09
   5  -9   0   88.11    7.56
  -5   9   0   91.34    6.82
   4  -9   0   27.63    3.58
  -4   9   0   27.03    2.92
   3  -9   0   89.78    6.97
  -3   9   0   75.11    4.99
  -3   9   0   80.85    6.19
  -3   9   0   86.92    5.24
   2  -9   0  103.76    7.90
  -2   9   0  103.85    6.37
  -2   9   0   95.81    8.41
   1  -9   0   -0.28    0.79
  -1   9   0    0.88    0.83
  -1   9   0    0.11    0.28
   0  -9   0   57.60    4.54
   0  -9   0   49.17    3.93
   0   9   0   46.96    3.92
   0   9   0   46.05    3.49
  -1  -9   0   91.05    6.86
  -1  -9   0   96.41    6.62
   1   9   0   95.53    6.63
   1   9   0   93.59    6.28
  -2  -9   0   -0.64    0.68
  -2  -9   0   -0.10    0.69
   2   9   0   -0.32    0.54
   2   9   0    0.30    0.45
  -3  -9   0   61.41    4.75
  -3  -9   0   70.44    5.17
   3   9   0   73.62    5.19
   3   9   0   63.72    4.86
  -4  -9   0   48.51    4.02
   4   9   0   44.26    3.75
  -5  -9   0   23.29    2.68
   5   9   0   25.23    2.55
  -6  -9   0   46.29    4.15
   6   9   0   46.13    4.01
  -7  -9   0   15.56    2.42
   7   9   0   13.26    1.89
  -8  -9   0   10.18    2.14
   8   9   0   12.85    1.93
  -9  -9   0   56.51    4.93
   9   9   0   44.09    4.34
 -10  -9   0    0.29    1.35
  10   9   0    4.96    1.54
  12 -10   0    6.58    2.98
 -12  10   0    4.06    1.60
  11 -10   0   34.80    5.35
 -11  10   0   33.28    4.01
  10 -10   0    7.71    2.64
   9 -10   0   17.51    3.65
  -9  10   0   15.24    2.78
   8 -10   0   56.47    5.97
  -8  10   0   48.26    4.74
   7 -10   0   15.84    3.46
  -7  10   0    9.65    2.15
   6 -10   0   32.13    4.04
  -6  10   0   24.50    3.15
   5 -10   0   79.43    7.21
  -5  10   0   82.92    6.44
   4 -10   0   -0.29    0.97
  -4  10   0    0.54    0.96
   3 -10   0  117.12    8.75
  -3  10   0  109.72    7.82
  -3  10   0  101.47    6.49
   2 -10   0   63.06    7.51
  -2  10   0   56.14    3.85
  -2  10   0   61.65    4.83
   1 -10   0   -0.53    0.95
  -1  10   0   -0.17    0.29
  -1  10   0    0.22    0.69
   0 -10   0  125.16    9.18
   0  10   0  126.21    8.14
   0  10   0  128.29    8.70
  -1 -10   0   29.02    3.20
  -1 -10   0   27.92    2.96
   1  10   0   31.35    3.04
   1  10   0   31.17    2.59
  -2 -10   0   -0.67    0.77
  -2 -10   0   -0.79    0.67
   2  10   0   -1.14    0.77
   2  10   0   -0.13    0.49
  -3 -10   0   96.45    7.06
   3  10   0   99.73    6.89
   3  10   0   97.76    7.08
  -4 -10   0    3.50    1.23
   4  10   0    3.46    1.05
   4  10   0    3.10    1.10
  -5 -10   0   41.65    3.83
   5  10   0   40.29    3.64
  -6 -10   0   38.89    4.46
   6  10   0   45.93    3.97
  -7 -10   0    4.17    1.35
  -8 -10   0   22.33    3.17
   8  10   0   19.76    2.65
  -9 -10   0   37.27    4.14
   9  10   0   40.10    3.98
  11 -11   0   31.09    4.87
 -11  11   0   24.80    3.94
  10 -11   0   -2.88    1.76
   9 -11   0   42.27    5.69
  -9  11   0   43.87    5.32
   8 -11   0   48.66    5.60
  -8  11   0   39.56    4.40
   7 -11   0   -0.70    2.31
  -7  11   0   -1.45    1.23
   6 -11   0   17.75    3.68
  -6  11   0   15.72    2.82
   5 -11   0   66.38    6.56
  -5  11   0   66.10    5.70
   4 -11   0    1.77    1.62
  -4  11   0    1.37    1.15
   3 -11   0   61.50    5.75
  -3  11   0   53.44    3.52
  -3  11   0   55.15    4.78
   2 -11   0   16.01    3.03
  -2  11   0   15.14    1.34
  -2  11   0   18.42    2.42
   1 -11   0    6.25    1.97
  -1  11   0    6.32    1.48
  -1  11   0    7.18    0.97
   0 -11   0   50.02    4.67
   0  11   0   49.03    4.14
   0  11   0   45.15    3.52
  -1 -11   0   43.03    3.68
  -1 -11   0   36.61    3.84
   1  11   0   39.25    3.18
   1  11   0   38.09    3.61
  -2 -11   0   22.85    2.78
  -2 -11   0   27.62    2.87
   2  11   0   22.61    2.68
  -3 -11   0   54.27    4.49
  -3 -11   0   47.75    4.21
   3  11   0   54.59    4.56
   3  11   0   53.89    4.26
  -4 -11   0   -0.28    0.88
   4  11   0   -0.94    0.78
   4  11   0   -0.82    0.72
  -5 -11   0   33.98    3.58
   5  11   0   31.13    3.43
   5  11   0   30.79    3.13
  -6 -11   0   49.37    4.43
   6  11   0   37.23    4.28
   6  11   0   44.43    4.25
   7  11   0    0.68    0.85
  -8 -11   0   33.42    3.75
   8  11   0   29.92    3.46
  10 -12   0    3.02    2.19
 -10  12   0    0.15    1.35
   9 -12   0   45.85    6.08
  -9  12   0   34.22    4.42
   8 -12   0   26.85    4.38
  -8  12   0   19.55    3.39
   7 -12   0    0.98    1.81
  -7  12   0    0.22    1.17
   6 -12   0   40.88    6.08
   5 -12   0   21.34    4.05
  -5  12   0   10.83    2.35
   4 -12   0   11.58    2.95
  -4  12   0    9.03    1.96
   3 -12   0   38.24    4.67
  -3  12   0   34.41    3.73
   2 -12   0   13.63    2.86
  -2  12   0   13.99    2.23
   1 -12   0   27.20    3.65
  -1  12   0   27.20    3.03
  -1  12   0   25.23    2.12
   0 -12   0   20.70    3.17
   0  12   0   19.94    2.55
   0  12   0   20.76    1.97
  -1 -12   0    6.52    1.82
   1  12   0    5.75    1.40
   1  12   0    4.25    1.02
  -2 -12   0   17.60    2.74
   2  12   0   19.35    2.19
  -3 -12   0    9.80    1.91
   3  12   0    9.22    1.77
   3  12   0   11.87    2.14
  -4 -12   0    6.30    1.70
   4  12   0    5.34    1.66
   4  12   0    3.21    1.12
  -5 -12   0   45.45    4.30
   5  12   0   44.34    4.46
   5  12   0   43.13    4.03
  -6 -12   0   23.99    3.25
   6  12   0   21.19    2.72
   6  12   0   23.67    3.28
  -7 -12   0    1.77    1.45
   7  12   0    1.10    1.38
   7  12   0    4.71    1.65
   8 -13   0    2.13    2.09
  -8  13   0    2.46    1.54
   7 -13   0   15.62    3.55
  -7  13   0    8.80    2.25
   6 -13   0   38.94    5.26
  -6  13   0   32.16    4.12
   5 -13   0    2.58    2.11
  -5  13   0    2.14    1.50
   4 -13   0   35.26    5.96
  -4  13   0   35.34    4.04
   3 -13   0   48.77    5.52
  -3  13   0   47.35    4.58
   2 -13   0   -1.91    1.31
  -2  13   0   -0.50    0.79
   1 -13   0   13.17    3.04
  -1  13   0   20.25    2.65
   0 -13   0   25.56    3.65
   0  13   0   25.03    2.29
   0  13   0   25.55    3.05
  -1 -13   0   14.09    2.66
   1  13   0   15.31    2.39
   1  13   0   14.70    1.81
  -2 -13   0   78.43    7.21
   2  13   0   83.13    6.42
   2  13   0   75.54    5.75
  -3 -13   0   23.54    2.91
   3  13   0   19.40    2.41
   3  13   0   19.06    2.93
   4  13   0    0.69    1.00
   4  13   0   -0.34    0.85
  -5 -13   0   29.79    3.55
   5  13   0   30.42    3.34
   5  13   0   31.75    3.70
   6 -14   0   10.42    3.01
  -6  14   0   13.40    2.83
  -5  14   0   -2.10    1.30
   4 -14   0   18.41    3.78
  -4  14   0   19.96    3.08
   3 -14   0   25.37    4.22
  -3  14   0   28.27    3.43
   2 -14   0   -1.80    1.42
  -2  14   0   -0.48    0.89
   1 -14   0   30.71    4.25
  -1  14   0   29.04    3.48
   0 -14   0    6.36    2.17
   0  14   0    8.76    1.78
  -1 -14   0   -0.13    1.94
   1  14   0    2.63    1.46
   2  14   0   10.43    2.06
   2  14   0   14.00    1.84
   3  14   0    3.64    1.37
   3  14   0    1.42    0.91
   2  14  -1    8.03    1.90
   1  14  -1    1.60    1.34
   0  14  -1   22.36    2.94
   0 -14   1   15.57    3.27
  -1  14  -1   36.15    4.06
   1 -14   1   34.10    4.69
  -2  14  -1    3.96    1.67
  -3  14  -1    6.95    1.96
   3 -14   1    3.88    2.21
  -4  14  -1   28.46    3.80
   4 -14   1   24.18    4.25
  -5  14  -1    0.26    1.64
   5 -14   1   -0.75    1.61
   4  13  -1    4.54    1.57
   4  13  -1    2.89    1.25
  -4 -13   1    1.92    1.36
   3  13  -1   17.52    2.88
   3  13  -1   17.63    2.22
   2  13  -1   42.39    4.23
   1  13  -1   -0.42    0.85
   1  13  -1   -0.51    0.55
  -1 -13   1   -2.27    1.38
   0  13  -1   49.22    4.43
   0  13  -1   36.72    3.53
   0 -13   1   52.53    5.16
  -1  13  -1   44.66    4.31
   1 -13   1   37.23    4.71
  -2  13  -1   -0.43    1.04
   2 -13   1   -1.89    1.56
   3 -13   1   17.56    3.51
  -4  13  -1    9.26    2.14
  -5  13  -1    0.90    1.36
   5 -13   1    2.97    2.10
  -6  13  -1   59.45    5.79
   6 -13   1   57.99    6.72
  -7  13  -1   21.59    3.84
   7 -13   1   27.80    4.91
  -8  13  -1   -1.62    1.11
   8 -13   1   -2.13    2.10
   6  12  -1   19.75    2.71
   6  12  -1   20.77    3.04
  -6 -12   1   19.18    2.87
   5  12  -1   29.01    3.10
   5  12  -1   33.36    3.68
  -5 -12   1   27.78    3.57
   4  12  -1    1.16    1.09
   4  12  -1    2.38    0.97
  -4 -12   1    1.94    1.27
   3  12  -1   20.43    2.82
   3  12  -1   19.09    2.35
  -3 -12   1   22.35    2.86
   2  12  -1   66.24    4.90
   2  12  -1   61.47    5.36
  -2 -12   1   62.59    5.40
   1  12  -1   -0.48    0.65
  -1 -12   1   -0.11    1.37
   0  12  -1   63.55    5.72
   0  12  -1   54.40    4.37
   0 -12   1   75.35    6.08
  -1  12  -1   14.49    1.35
  -1  12  -1    9.25    2.71
   1 -12   1    9.22    2.46
  -2  12  -1    0.88    1.49
   2 -12   1    2.53    1.61
  -3  12  -1   50.84    6.19
   3 -12   1   45.34    5.15
   4 -12   1   13.32    3.02
  -5  12  -1    9.61    2.36
   5 -12   1   10.51    2.80
  -6  12  -1   35.15    4.07
   6 -12   1   37.94    5.08
  -7  12  -1    1.98    1.59
   7 -12   1    1.79    1.94
  -8  12  -1   10.20    2.59
   8 -12   1   13.98    3.59
  -9  12  -1   14.73    3.14
   9 -12   1   27.50    4.54
  -8 -11   1   26.97    3.48
   7  11  -1   -1.16    0.59
  -7 -11   1   -2.33    1.16
   6  11  -1   21.90    3.06
   6  11  -1   23.95    2.82
  -6 -11   1   25.61    3.13
   5  11  -1   28.24    3.26
   5  11  -1   24.50    2.81
  -5 -11   1   28.58    3.20
   4  11  -1   -0.60    0.60
   4  11  -1    0.26    0.86
  -4 -11   1    0.19    0.84
   3  11  -1   31.25    3.02
   3  11  -1   35.61    4.43
  -3 -11   1   31.01    3.58
  -3 -11   1   29.27    4.15
   2  11  -1   13.11    2.12
   2  11  -1   17.62    1.95
  -2 -11   1   15.26    2.21
  -2 -11   1   12.00    2.11
   1  11  -1   13.21    2.02
   1  11  -1   12.02    1.49
  -1 -11   1    8.13    2.06
   0  11  -1   68.26    5.42
   0  11  -1   69.52    4.76
   0 -11   1   64.39    5.84
  -1  11  -1   18.84    2.45
  -1  11  -1   20.71    1.77
   1 -11   1   20.88    3.12
  -2  11  -1   23.08    1.78
  -2  11  -1   26.48    2.89
   2 -11   1   24.38    3.45
  -3  11  -1   41.08    4.06
   3 -11   1   40.20    4.69
  -4  11  -1    7.49    1.77
   4 -11   1   14.42    3.12
  -5  11  -1   20.36    3.10
   5 -11   1   28.80    4.06
  -6  11  -1   30.74    3.84
   6 -11   1   34.18    5.16
  -7  11  -1   -1.80    0.93
   7 -11   1   -0.10    2.67
  -8  11  -1   44.88    6.62
   8 -11   1   61.91    6.69
  -9  11  -1   24.15    3.67
   9 -11   1   28.08    4.40
 -10  11  -1   -1.50    1.19
  10 -11   1   -1.67    1.69
 -11  11  -1   22.14    3.67
  11 -11   1   20.82    4.78
   9  10  -1   30.95    3.75
  -9 -10   1   37.12    4.14
   8  10  -1   25.88    3.18
  -8 -10   1   31.87    3.58
   7  10  -1   -0.72    0.66
  -7 -10   1   -2.23    1.06
   6  10  -1   54.43    4.65
  -6 -10   1   53.87    4.91
   5  10  -1   16.15    2.55
   5  10  -1   15.04    2.04
  -5 -10   1   15.62    2.47
   4  10  -1    3.26    1.38
   4  10  -1    3.56    1.14
  -4 -10   1    4.88    1.52
   3  10  -1   58.56    4.72
   3  10  -1   63.73    5.08
  -3 -10   1   65.19    5.07
   2  10  -1   12.68    1.91
   2  10  -1   10.44    1.45
  -2 -10   1   11.93    1.90
  -2 -10   1    9.52    1.89
   1  10  -1   65.84    4.82
   1  10  -1   68.01    5.28
  -1 -10   1   65.13    5.47
  -1 -10   1   72.87    5.32
   0  10  -1   60.13    4.23
   0  10  -1   58.59    4.77
   0 -10   1   59.82    5.25
  -1  10  -1    4.33    0.76
  -1  10  -1    4.22    1.19
   1 -10   1    5.71    1.79
  -2  10  -1   65.86    4.42
  -2  10  -1   71.78    5.57
   2 -10   1   73.94    6.61
  -3  10  -1   51.32    3.06
  -4  10  -1    1.52    1.10
   4 -10   1    3.26    1.63
  -5  10  -1   51.24    4.68
   5 -10   1   50.64    5.39
  -6  10  -1   26.80    3.47
   6 -10   1   29.55    4.20
  -7  10  -1    0.25    1.20
   7 -10   1    1.60    1.63
  -8  10  -1   45.94    4.67
   8 -10   1   52.62    8.10
  -9  10  -1   14.80    2.81
   9 -10   1   24.51    4.00
 -10  10  -1   -1.45    1.12
  10 -10   1   -0.66    1.68
 -11  10  -1   20.00    3.22
  11 -10   1   21.52    4.52
 -12  10  -1    0.27    1.33
  12 -10   1   -1.47    2.00
  10   9  -1    0.72    0.96
 -10  -9   1    1.08    1.72
   9   9  -1   24.84    3.16
  -9  -9   1   32.73    3.75
   8   9  -1    4.43    1.35
  -8  -9   1    4.55    1.54
   7   9  -1   14.31    2.10
   6   9  -1   73.96    5.84
  -6  -9   1   78.79    6.10
   5   9  -1   26.18    2.63
  -5  -9   1   21.00    2.79
   4   9  -1   11.15    1.63
   4   9  -1   12.83    1.97
  -4  -9   1   11.53    1.95
   3   9  -1   25.64    2.80
   3   9  -1   26.62    2.88
  -3  -9   1   25.06    2.45
  -3  -9   1   30.81    3.00
   2   9  -1    1.28    0.85
   2   9  -1    0.90    0.58
  -2  -9   1    1.09    0.90
  -2  -9   1    1.39    0.84
   1   9  -1   44.66    3.44
   1   9  -1   45.94    3.87
  -1  -9   1   50.12    3.93
  -1  -9   1   43.14    3.98
   0   9  -1  111.56    7.26
   0   9  -1  111.63    7.78
   0  -9   1  114.35    8.24
  -1   9  -1    2.59    0.95
   1  -9   1    3.92    1.38
  -2   9  -1  114.84    7.87
  -2   9  -1  117.14    8.13
  -2   9  -1  110.35    7.13
   2  -9   1  124.90    8.94
  -3   9  -1   43.91    3.80
  -3   9  -1   35.38    2.56
  -3   9  -1   41.71    2.48
   3  -9   1   53.11    6.58
  -4   9  -1   -0.95    0.73
   4  -9   1    0.55    1.16
  -5   9  -1  120.88    8.88
   5  -9   1  128.59    9.89
  -6   9  -1   25.20    3.15
   6  -9   1   34.63    4.19
  -7   9  -1   15.40    2.68
   7  -9   1   22.55    3.49
  -8   9  -1   69.14    5.97
   8  -9   1   76.07    7.23
  -9   9  -1   19.71    2.85
   9  -9   1   15.85    3.43
 -10   9  -1    9.32    2.27
  10  -9   1    7.06    2.44
 -11   9  -1   26.17    3.72
  11  -9   1   37.74    5.05
 -12   9  -1    0.75    1.27
  12  -9   1    2.29    1.99
 -11  -8   1    3.00    1.78
  10   8  -1   21.57    2.84
 -10  -8   1   23.03    3.38
   9   8  -1   56.64    4.94
  -9  -8   1   56.20    5.07
   8   8  -1   10.46    2.25
  -8  -8   1    6.24    1.62
   7   8  -1   56.46    4.81
  -7  -8   1   61.94    5.03
   6   8  -1   50.39    4.23
  -6  -8   1   50.94    4.45
   5   8  -1    0.10    0.62
  -5  -8   1    0.40    0.84
   4   8  -1  139.34    9.28
  -4  -8   1  138.13    9.38
   3   8  -1  132.38    8.61
   3   8  -1  123.02    8.37
  -3  -8   1  129.41    8.61
  -3  -8   1  122.92    8.19
   2   8  -1    6.32    1.31
   2   8  -1    5.22    1.04
  -2  -8   1    4.13    1.34
  -2  -8   1    4.87    1.21
   1   8  -1   63.62    4.49
  -1  -8   1   65.78    5.02
   0   8  -1   65.59    4.50
   0   8  -1   67.71    4.96
   0  -8   1   65.13    5.29
   0  -8   1   69.47    4.95
  -1   8  -1    0.15    0.27
  -1   8  -1    0.47    0.62
   1  -8   1    0.08    0.86
  -2   8  -1   75.98    4.90
  -2   8  -1   76.92    5.74
  -2   8  -1   82.27    5.03
   2  -8   1   78.20    6.36
  -3   8  -1   21.81    1.42
  -3   8  -1   23.80    2.54
   3  -8   1   25.97    3.21
  -4   8  -1   41.69    4.01
   4  -8   1   35.73    4.11
  -5   8  -1  127.58    9.31
   5  -8   1  126.25    9.80
  -6   8  -1   73.41    5.90
   6  -8   1   78.72    6.88
  -7   8  -1    5.28    1.55
   7  -8   1    4.63    2.04
  -8   8  -1   19.65    2.74
   8  -8   1   21.91    3.57
  -9   8  -1    7.06    1.85
   9  -8   1    6.18    2.34
 -10   8  -1   28.42    3.53
  10  -8   1   42.54    5.19
 -11   8  -1   21.56    3.29
  11  -8   1   27.44    4.44
 -12   8  -1   -0.65    1.03
  12  -8   1   -2.66    1.46
 -13   8  -1   13.80    2.55
  13  -8   1    9.98    2.83
  11   7  -1    3.65    1.42
 -11  -7   1    1.46    1.61
  10   7  -1   15.26    2.26
 -10  -7   1    8.91    2.24
   9   7  -1   45.35    4.27
  -9  -7   1   49.48    4.55
   8   7  -1    2.98    1.13
  -8  -7   1    1.61    1.10
   7   7  -1   59.50    4.72
  -7  -7   1   56.73    4.80
   6   7  -1   73.49    5.48
  -6  -7   1   72.11    5.64
   5   7  -1    3.45    1.01
  -5  -7   1    3.88    1.20
   4   7  -1   42.73    3.48
  -4  -7   1   44.05    3.70
   3   7  -1    1.64    0.66
   3   7  -1    1.48    0.50
  -3  -7   1    1.20    0.53
  -3  -7   1    1.53    0.79
   2   7  -1   10.55    1.49
   2   7  -1   11.90    1.31
  -2  -7   1   11.19    1.45
  -2  -7   1    9.95    1.50
   1   7  -1  201.57   12.39
   1   7  -1  196.03   12.63
  -1  -7   1  202.86   12.65
   0   7  -1   31.49    2.77
   0   7  -1   32.97    2.61
   0  -7   1   32.75    3.09
   0  -7   1   35.55    2.84
  -1   7  -1   49.61    3.79
  -1   7  -1   48.76    3.25
   1  -7   1   47.51    4.19
  -2   7  -1   38.65    3.16
  -2   7  -1   34.63    2.39
   2  -7   1   39.08    3.67
  -3   7  -1    3.53    1.01
   3  -7   1    5.52    1.64
  -4   7  -1   64.72    4.92
   4  -7   1   63.36    5.56
  -5   7  -1   69.23    5.32
   5  -7   1   68.98    6.09
  -6   7  -1    0.46    0.86
   6  -7   1    2.27    1.38
  -7   7  -1   90.70    6.98
   7  -7   1   94.43    7.89
  -8   7  -1   55.97    4.95
   8  -7   1   61.32    5.97
  -9   7  -1   -0.58    0.84
   9  -7   1   -0.85    1.09
 -10   7  -1   29.79    3.61
  10  -7   1   36.23    4.60
 -11   7  -1   19.93    3.04
  11  -7   1   22.58    3.89
 -12   7  -1    6.67    1.95
  12  -7   1    8.50    2.64
 -13   7  -1   45.01    4.83
  13  -7   1   39.43    5.37
 -12  -6   1    9.36    2.19
  11   6  -1   -0.69    0.70
 -11  -6   1   -1.77    1.13
  10   6  -1   25.91    2.83
 -10  -6   1   23.92    3.29
   9   6  -1   32.23    3.20
  -9  -6   1   34.26    3.64
   8   6  -1   20.52    2.28
  -8  -6   1   18.92    2.50
   7   6  -1   94.87    7.00
  -7  -6   1  104.49    7.27
   6   6  -1   49.86    3.96
  -6  -6   1   48.31    4.12
   5   6  -1    7.62    1.24
  -5  -6   1    6.57    1.46
   4   6  -1   51.30    3.87
  -4  -6   1   50.86    4.00
   3   6  -1    8.93    1.14
  -3  -6   1    8.32    0.99
  -3  -6   1    8.54    1.39
   2   6  -1  102.70    6.41
   2   6  -1   92.09    6.50
  -2  -6   1   97.52    6.55
  -2  -6   1   97.80    6.46
   1   6  -1  136.88    8.32
   1   6  -1  132.75    8.52
  -1  -6   1  128.93    8.50
  -1  -6   1  128.99    8.66
   0   6  -1    3.50    0.57
   0   6  -1    3.40    0.75
   0  -6   1    3.56    0.79
   0  -6   1    4.36    1.28
  -1   6  -1   93.26    5.87
  -1   6  -1   93.73    5.99
  -1   6  -1   94.47    6.36
   1  -6   1   97.30    6.82
  -2   6  -1  164.83   10.47
  -2   6  -1  170.40    9.87
  -2   6  -1  157.66    9.76
   2  -6   1  159.63   10.96
  -3   6  -1   -0.16    0.43
   3  -6   1   -0.46    0.54
  -4   6  -1   69.24    5.08
   4  -6   1   70.12    5.77
  -5   6  -1   56.32    4.42
   5  -6   1   58.17    5.15
  -6   6  -1    7.92    1.55
   6  -6   1    7.02    1.88
  -7   6  -1  179.53   12.50
   7  -6   1  211.32   16.37
  -8   6  -1   93.22    9.00
   8  -6   1  100.96    8.43
   8  -6   1  119.80    7.03
   8  -6   1   99.17    6.33
  -9   6  -1    0.86    0.98
   9  -6   1    0.32    0.29
   9  -6   1   -0.39    0.56
   9  -6   1    0.43    1.14
 -10   6  -1   31.90    3.78
  10  -6   1   37.83    2.62
  10  -6   1   37.20    4.69
 -11   6  -1   10.25    1.99
  11  -6   1    6.15    0.97
  11  -6   1   10.72    2.88
 -12   6  -1   12.49    2.51
  12  -6   1    8.88    2.46
  12  -6   1    7.96    1.24
 -13   6  -1   26.17    3.60
  13  -6   1   29.85    4.31
 -14   6  -1    1.52    1.52
  14  -6   1   -0.61    2.06
  12   5  -1   16.64    2.40
 -12  -5   1    9.08    2.35
  11   5  -1    1.73    0.94
  10   5  -1   66.99    5.34
 -10  -5   1   59.30    5.36
   9   5  -1   26.51    2.73
  -9  -5   1   22.22    2.83
   8   5  -1   26.60    2.72
  -8  -5   1   28.06    3.03
   7   5  -1  150.03    9.82
  -7  -5   1  144.40    9.87
  -6  -5   1    5.32    1.17
   5   5  -1   25.33    2.24
  -5  -5   1   22.58    2.32
   4   5  -1  128.65    8.23
  -4  -5   1  124.13    8.30
   3   5  -1    0.09    0.30
   3   5  -1    0.07    0.23
  -3  -5   1    0.12    0.45
  -3  -5   1    0.02    0.26
   2   5  -1  227.10   13.31
   2   5  -1  217.19   13.45
  -2  -5   1  211.30   13.26
  -2  -5   1  209.51   13.38
   1   5  -1  129.51    9.40
   1   5  -1  154.41    9.17
   1   5  -1  152.50    9.34
  -1  -5   1  155.25    9.36
  -1  -5   1  147.77    9.44
   0   5  -1   23.69    1.75
   0   5  -1   23.54    1.89
   0   5  -1   24.40    2.02
   0  -5   1   24.39    2.02
   0  -5   1   22.72    1.82
   0  -5   1   23.52    2.23
  -1   5  -1  107.12    6.26
  -1   5  -1   92.46    6.33
  -1   5  -1   95.94    5.92
   1  -5   1   93.05    6.69
   1  -5   1   93.76    5.91
  -2   5  -1   69.99    4.86
  -2   5  -1   66.06    4.24
  -2   5  -1   74.88    4.32
   2  -5   1   69.07    5.27
  -3   5  -1   16.31    1.70
   3  -5   1   16.38    2.13
  -4   5  -1  280.91   17.26
   4  -5   1  277.11   17.95
  -5   5  -1   16.03    1.88
   5  -5   1   16.93    2.34
  -6   5  -1    4.45    1.22
   6  -5   1    7.12    0.64
   6  -5   1    6.04    1.67
  -7   5  -1  176.21   12.16
   7  -5   1  195.30   11.23
   7  -5   1  186.90   13.05
  -8   5  -1   16.06    2.32
   8  -5   1   21.06    1.55
  -9   5  -1    7.18    1.68
   9  -5   1    7.35    2.15
   9  -5   1    8.94    0.98
 -10   5  -1   95.75    7.20
  10  -5   1   88.37    7.75
 -11   5  -1    4.82    1.55
  11  -5   1    3.94    0.81
  11  -5   1    1.83    1.76
 -12   5  -1   22.25    3.24
  12  -5   1   23.31    3.68
 -13   5  -1   37.51    4.95
  13  -5   1   45.68    3.49
 -14   5  -1   -0.96    1.02
  14  -5   1    1.40    1.89
  13   4  -1   22.40    2.91
 -13  -4   1   15.49    3.08
  12   4  -1    7.13    1.80
 -12  -4   1    2.83    1.64
  11   4  -1    9.00    1.84
 -11  -4   1    5.92    1.70
  10   4  -1   50.49    4.36
 -10  -4   1   54.33    4.83
   9   4  -1    1.98    0.88
  -9  -4   1    4.08    1.36
   8   4  -1   65.19    4.98
  -8  -4   1   64.51    5.08
   7   4  -1  114.14    7.39
  -7  -4   1   99.03    7.36
   6   4  -1    5.86    1.10
  -6  -4   1    3.44    0.93
   5   4  -1   65.09    4.69
  -5  -4   1   68.12    4.80
   4   4  -1  164.34   10.00
  -4  -4   1  150.90   10.01
   3   4  -1    2.12    0.36
   3   4  -1    2.31    0.58
  -3  -4   1    2.42    0.68
   2   4  -1  225.09   13.46
   2   4  -1  205.27   13.21
  -2  -4   1  225.46   13.18
  -2  -4   1  212.09   13.32
   1   4  -1   18.86    1.80
   1   4  -1   23.48    1.68
  -1  -4   1   20.22    1.81
  -1  -4   1   24.51    1.91
   0   4  -1   39.63    3.25
   0   4  -1   45.29    2.88
   0   4  -1   45.60    3.14
   0  -4   1   41.65    3.26
   0  -4   1   48.84    3.17
   0  -4   1   42.19    2.85
  -1   4  -1  421.90   24.85
  -1   4  -1  403.28   24.45
  -1   4  -1  411.43   24.54
   1  -4   1  415.27   25.19
   1  -4   1  417.60   24.45
  -2   4  -1  244.42   13.76
  -2   4  -1  227.52   14.49
   2  -4   1  224.61   14.69
  -3   4  -1   13.47    1.41
   3  -4   1   12.10    1.70
  -4   4  -1  115.83    7.38
   4  -4   1  107.99    7.88
  -5   4  -1    0.62    0.60
   5  -4   1    0.95    0.20
   5  -4   1    1.16    0.28
   5  -4   1    0.59    0.73
  -6   4  -1   55.20    4.45
   6  -4   1   57.07    5.03
   6  -4   1   65.88    3.80
   6  -4   1   58.57    4.40
  -7   4  -1   89.78    6.40
  -7   4  -1  103.77    7.15
   7  -4   1  112.05    6.36
   7  -4   1  102.13    7.83
  -8   4  -1    8.90    1.70
   8  -4   1    7.16    1.84
   8  -4   1    8.21    0.90
  -9   4  -1   32.57    3.49
   9  -4   1   35.44    2.58
 -10   4  -1   51.20    4.46
  10  -4   1   47.55    3.51
  10  -4   1   49.92    5.06
 -11   4  -1    2.52    1.37
  11  -4   1    3.43    0.81
  11  -4   1    3.36    1.69
 -12   4  -1   21.14    3.00
  12  -4   1   14.60    1.71
  12  -4   1   15.07    2.96
 -13   4  -1   33.93    3.88
  13  -4   1   28.81    4.07
 -14   4  -1    3.42    1.31
  14  -4   1    4.45    1.15
  13   3  -1   53.90    4.64
 -13  -3   1   40.13    4.95
  12   3  -1    5.06    1.46
 -12  -3   1    1.11    1.43
  11   3  -1   39.07    3.58
 -11  -3   1   32.96    3.88
  10   3  -1   56.83    4.55
 -10  -3   1   51.72    4.83
   9   3  -1    0.32    0.56
  -9  -3   1   -0.43    0.63
   8   3  -1  112.93    7.95
  -8  -3   1  122.15    8.18
   7   3  -1   66.69    5.07
  -7  -3   1   75.99    5.29
   6   3  -1    6.85    0.99
  -6  -3   1    4.40    0.98
   5   3  -1  214.84   13.02
  -5  -3   1  202.44   13.01
   4   3  -1  160.16    9.79
  -4  -3   1  151.04    9.80
   3   3  -1    6.71    0.85
  -3  -3   1    8.44    1.16
   2   3  -1  160.35    9.15
   2   3  -1  144.30    9.01
  -2  -3   1  139.21    9.15
  -2  -3   1  147.74    8.97
   1   3  -1    2.52    0.41
   1   3  -1    2.43    0.56
  -1  -3   1    2.98    0.59
  -1  -3   1    2.60    0.39
  -1  -3   1    2.68    0.55
   0   3  -1    0.61    0.35
   0   3  -1    0.81    0.21
   0   3  -1    0.49    0.29
   0  -3   1    0.97    0.33
   0  -3   1    0.48    0.18
   0  -3   1    0.61    0.40
  -1   3  -1  229.05   13.95
  -1   3  -1  228.69   14.57
  -1   3  -1  249.51   14.30
   1  -3   1  237.35   13.96
   1  -3   1  234.74   14.57
  -2   3  -1   28.90    2.16
   2  -3   1   27.99    2.46
  -3   3  -1  234.55   14.22
   3  -3   1  230.08   14.67
  -4   3  -1  140.62    8.65
  -4   3  -1  120.70    7.69
   4  -3   1  128.83    8.76
   4  -3   1  141.47    7.71
   4  -3   1  116.31    7.75
  -5   3  -1    2.16    0.34
  -5   3  -1    2.58    0.80
   5  -3   1    2.79    0.36
   5  -3   1    3.23    1.08
  -6   3  -1   75.84    5.02
  -6   3  -1   84.70    5.68
   6  -3   1   75.04    6.07
   6  -3   1   84.02    5.04
  -7   3  -1   74.59    5.82
   7  -3   1   82.66    6.45
   7  -3   1   89.63    5.33
  -8   3  -1    9.49    1.74
   8  -3   1   12.14    1.18
   8  -3   1   12.67    2.19
  -9   3  -1   89.40    6.50
   9  -3   1   84.25    6.98
   9  -3   1   85.03    5.69
 -10   3  -1    9.08    1.77
  10  -3   1    8.56    1.14
 -11   3  -1   11.03    2.11
  11  -3   1    9.34    2.26
  11  -3   1   13.68    1.50
 -12   3  -1   73.97    6.00
  12  -3   1   70.15    4.98
  12  -3   1   60.15    6.12
 -13   3  -1    1.62    1.27
  13  -3   1    3.26    1.00
  13  -3   1    3.39    1.63
 -14   3  -1    3.80    1.68
  14  -3   1    7.89    1.39
  14  -3   1    5.26    2.29
 -15   3  -1   47.06    5.05
  15  -3   1   38.58    5.07
  15  -3   1   39.76    4.04
  14   2  -1    6.83    1.82
 -14  -2   1    5.68    2.18
  13   2  -1   24.04    2.89
 -13  -2   1   25.77    3.80
  12   2  -1    4.32    1.27
 -12  -2   1    1.55    1.30
  11   2  -1   43.34    3.81
 -11  -2   1   40.07    4.16
  10   2  -1   43.06    3.64
 -10  -2   1   43.01    3.41
 -10  -2   1   34.23    3.90
   9   2  -1    8.82    1.41
  -9  -2   1    6.12    1.33
  -9  -2   1    8.15    1.37
  -9  -2   1    6.21    1.55
   8   2  -1   67.79    5.35
  -8  -2   1   74.83    4.90
  -8  -2   1   67.02    5.25
  -8  -2   1   65.91    5.23
   7   2  -1   78.58    5.48
  -7  -2   1   80.62    5.22
  -7  -2   1   73.40    5.52
   6   2  -1   19.71    1.84
  -6  -2   1   18.02    1.85
  -6  -2   1   19.15    1.58
  -6  -2   1   18.45    1.53
   5   2  -1  240.08   14.96
  -5  -2   1  241.37   14.98
  -5  -2   1  251.93   14.60
  -5  -2   1  240.04   14.63
   4   2  -1    8.82    0.99
  -4  -2   1    9.43    0.77
   3   2  -1   98.89    6.04
  -3  -2   1   93.03    6.03
  -3  -2   1  102.08    5.71
  -3  -2   1   84.41    5.77
   2   2  -1  197.91   12.72
   2   2  -1  232.49   12.76
   2   2  -1  208.21   12.56
  -2  -2   1  204.22   12.74
   1   2  -1   17.70    1.35
   1   2  -1   15.79    1.25
  -1  -2   1   16.21    1.25
  -1  -2   1   19.13    1.37
   0   2  -1  115.30    8.01
   0   2  -1  119.07    7.74
   0   2  -1  133.73    7.89
   0   2  -1  137.77    7.92
   0  -2   1  145.30    7.92
   0  -2   1  128.84    8.03
   0  -2   1  126.08    7.75
   1  -2   1  477.23   30.00
   1  -2   1  527.02   29.77
  -2   2  -1    3.24    0.77
  -2   2  -1    2.53    0.52
   2  -2   1    2.89    0.49
   2  -2   1    3.23    0.75
  -3   2  -1  240.93   14.17
  -3   2  -1  227.01   13.75
   3  -2   1  238.33   13.75
   3  -2   1  225.20   13.81
   3  -2   1  232.92   14.53
  -4   2  -1   40.05    2.64
  -4   2  -1   43.50    3.07
   4  -2   1   41.56    2.64
   4  -2   1   41.75    3.40
  -5   2  -1  191.54   11.92
  -5   2  -1  212.44   12.47
   5  -2   1  180.00   11.90
   5  -2   1  213.77   13.39
  -6   2  -1  210.65   13.28
   6  -2   1  218.95   13.82
   6  -2   1  207.15   12.83
  -7   2  -1   84.85    5.93
   7  -2   1   83.41    6.36
  -8   2  -1    3.44    1.17
   8  -2   1    3.76    1.22
   8  -2   1    4.62    0.72
  -9   2  -1  173.82   11.04
   9  -2   1  162.97   11.40
   9  -2   1  156.15   10.30
 -10   2  -1   22.95    2.70
  10  -2   1   21.42    2.94
  10  -2   1   20.06    1.97
 -11   2  -1    7.85    1.90
  11  -2   1    9.89    1.41
 -12   2  -1   56.81    5.03
  12  -2   1   44.97    4.95
  12  -2   1   52.02    4.05
  13  -2   1    0.56    1.48
  13  -2   1   -0.16    0.56
 -14   2  -1   10.59    2.40
  14  -2   1   13.07    1.90
  14  -2   1    7.87    2.49
 -15   2  -1   39.79    4.82
  15  -2   1   51.87    4.03
  15  -2   1   33.44    4.73
  14   1  -1   42.29    4.05
 -14  -1   1   41.64    4.95
  13   1  -1   38.98    3.63
 -13  -1   1   25.05    5.49
  12   1  -1    1.86    0.89
 -12  -1   1    3.76    1.58
  11   1  -1   68.77    5.38
  11   1  -1   76.07    5.56
 -11  -1   1   69.21    5.96
  10   1  -1    7.57    1.42
  10   1  -1    9.59    2.24
 -10  -1   1    8.12    1.79
   9   1  -1   25.06    2.44
   9   1  -1   24.92    2.94
  -9  -1   1   24.25    2.70
   8   1  -1   79.73    5.65
   8   1  -1   84.04    5.68
  -8  -1   1   75.16    5.81
   7   1  -1   61.90    4.36
   7   1  -1   59.43    4.33
  -7  -1   1   58.43    4.44
   6   1  -1   13.52    1.42
   6   1  -1   12.79    1.44
  -6  -1   1   14.77    1.45
  -6  -1   1   13.71    1.53
   5   1  -1  257.90   16.71
   5   1  -1  279.21   16.69
  -5  -1   1  288.42   16.84
   4   1  -1   18.40    1.48
   4   1  -1   17.05    1.63
  -4  -1   1   17.41    1.55
  -4  -1   1   19.73    1.51
   3   1  -1   65.66    4.36
   3   1  -1   72.78    4.32
   3   1  -1   63.40    4.39
  -3  -1   1   64.80    4.40
  -3  -1   1   75.38    4.36
   2   1  -1  174.22   10.38
   2   1  -1  162.47   10.34
  -2  -1   1  165.50   10.36
  -2  -1   1  175.20   10.27
  -2  -1   1  169.43   10.39
  -2  -1   1  183.45   10.40
   1   1  -1  197.38   13.07
   1   1  -1  236.09   13.13
   1   1  -1  231.25   13.10
  -1  -1   1  233.20   13.10
  -1  -1   1  199.56   13.07
   0   1  -1   81.35    5.44
   0   1  -1   91.39    5.33
   0   1  -1   85.44    5.26
   0   1  -1   92.10    5.32
   0  -1   1   97.53    5.34
   0  -1   1   93.74    5.33
   0  -1   1   81.67    5.25
   0  -1   1   77.26    5.42
  -1   1  -1  240.06   14.13
  -1   1  -1  216.45   14.31
   1  -1   1  256.61   14.15
   1  -1   1  235.26   14.34
  -2   1  -1   25.42    1.83
  -2   1  -1   24.46    2.14
   2  -1   1   25.35    1.99
   2  -1   1   22.89    1.56
  -3   1  -1  269.80   14.57
  -3   1  -1  220.98   14.25
  -3   1  -1  235.90   14.78
   3  -1   1  243.05   14.81
   3  -1   1  240.54   14.26
   3  -1   1  233.09   14.48
  -4   1  -1   39.66    2.85
  -4   1  -1   36.51    2.57
   4  -1   1   41.63    2.60
   4  -1   1   40.54    3.13
  -5   1  -1   27.17    2.27
   5  -1   1   25.05    2.44
   5  -1   1   27.08    1.93
  -6   1  -1  221.62   13.19
   6  -1   1  200.12   12.79
  -7   1  -1   34.04    2.86
   7  -1   1   33.15    2.49
   7  -1   1   32.03    3.10
  -8   1  -1   43.48    3.48
   8  -1   1   36.53    2.87
   8  -1   1   36.26    3.53
  -9   1  -1  104.39    7.50
   9  -1   1  109.43    7.01
   9  -1   1  102.00    7.73
 -10   1  -1    0.79    0.88
  10  -1   1    0.40    0.54
  10  -1   1    1.23    1.14
 -11   1  -1   75.46    5.83
  11  -1   1   57.02    5.54
  11  -1   1   69.60    4.97
 -12   1  -1   45.44    4.54
  12  -1   1   43.47    3.66
  13  -1   1   -0.27    0.60
  13  -1   1   -2.29    1.25
 -14   1  -1   18.89    3.30
  14  -1   1   19.59    2.43
 -15   1  -1    4.83    1.72
  15  -1   1    9.12    1.75
  14   0  -1   18.09    2.45
 -14   0   1   13.93    2.88
  13   0  -1   -0.06    0.69
 -13   0   1   -2.05    1.15
  12   0  -1   21.54    2.35
  12   0  -1   16.56    2.86
 -12   0   1   12.49    2.42
  11   0  -1   78.07    6.33
  11   0  -1   82.87    6.00
 -11   0   1   80.91    6.57
  10   0  -1    1.30    0.71
  10   0  -1    0.47    1.02
 -10   0   1   -0.15    0.89
   9   0  -1   50.68    4.38
  -9   0   1   54.32    4.50
   8   0  -1  132.25    8.77
   8   0  -1  127.70    8.38
  -8   0   1  122.37    8.62
   7   0  -1   13.45    1.68
   7   0  -1   10.47    1.30
  -7   0   1   12.76    1.65
   6   0  -1  118.40    7.50
   6   0  -1  106.30    7.15
  -6   0   1  108.86    7.29
   5   0  -1   12.99    1.30
   5   0  -1   15.45    1.58
  -5   0   1   14.16    1.48
  -5   0   1   13.93    1.45
   4   0  -1   60.39    4.05
   4   0  -1   55.77    3.84
  -4   0   1   59.04    3.90
  -4   0   1   57.60    4.00
   3   0  -1  274.39   16.29
   3   0  -1  244.45   16.19
   3   0  -1  282.65   16.43
  -3   0   1  273.76   16.30
  -3   0   1  275.60   16.27
  -3   0   1  280.28   16.43
   2   0  -1   46.08    3.00
   2   0  -1   46.80    3.06
   2   0  -1   51.32    3.18
  -2   0   1   46.37    3.03
  -2   0   1   46.96    3.06
  -2   0   1   49.78    3.16
   1   0  -1   86.05    5.40
   1   0  -1   96.29    5.48
   1   0  -1   90.12    5.51
  -1   0   1   87.97    5.51
  -1   0   1   88.74    5.56
  -1   0   1   86.21    5.42
  -1   0   1   97.38    5.48
  -1   0  -1  143.01    7.95
   1   0   1  119.50    8.09
  -2   0  -1   92.07    5.76
  -2   0  -1   94.86    6.04
  -2   0  -1  110.57    5.94
   2   0   1   99.49    6.04
   2   0   1   82.79    5.81
   2   0   1   91.33    5.76
   2   0   1  100.42    5.89
  -3   0  -1  491.73   26.16
  -3   0  -1  421.58   26.26
   3   0   1  406.83   26.06
   3   0   1  435.25   26.25
  -4   0  -1   48.63    3.06
  -4   0  -1   38.66    2.76
  -4   0  -1   42.38    3.12
   4   0   1   42.59    3.11
   4   0   1   39.17    2.77
  -5   0  -1   37.18    2.97
  -5   0  -1   42.95    2.97
   5   0   1   33.20    2.55
   5   0   1   36.17    2.92
  -6   0  -1  200.42   12.27
   6   0   1  187.76   11.95
   6   0   1  196.65   12.40
  -7   0  -1    0.26    0.46
   7   0   1    0.23    0.65
   7   0   1    0.32    0.34
  -8   0  -1   88.79    6.29
   8   0   1   87.00    5.88
   8   0   1   87.07    6.36
  -9   0  -1  139.44    9.55
   9   0   1  142.68    9.07
   9   0   1  135.43    9.55
 -10   0  -1   -0.11    0.74
  10   0   1    0.36    0.94
 -11   0  -1   59.02    5.20
  11   0   1   57.79    5.06
  11   0   1   58.14    4.50
 -12   0  -1   18.32    2.85
  12   0   1   17.84    2.77
  12   0   1   17.34    2.09
 -13   0  -1   -0.22    1.12
  13   0   1    1.89    0.95
  13   0   1    2.11    1.52
 -14   0  -1   46.59    5.04
  14   0   1   40.45    5.96
  14   0   1   47.62    4.13
 -15   0  -1    4.93    2.00
  15   0   1    8.75    1.83
  14  -1  -1   31.19    3.18
 -14   1   1   26.54    4.02
  13  -1  -1    7.01    1.60
  13  -1  -1    1.49    1.93
 -13   1   1    4.89    1.92
  12  -1  -1   26.63    2.74
  12  -1  -1   29.40    3.60
 -12   1   1   26.64    3.45
  11  -1  -1   27.77    3.48
  11  -1  -1   27.07    2.70
 -11   1   1   33.16    3.52
  10  -1  -1   27.66    2.60
  10  -1  -1   27.74    3.31
   9  -1  -1  140.13    9.49
   9  -1  -1  149.94   10.23
  -9   1   1  149.68    9.96
   8  -1  -1  133.43    8.55
   8  -1  -1  130.03    9.12
  -8   1   1  130.84    8.89
   7  -1  -1    5.07    0.90
   7  -1  -1    3.65    1.10
  -7   1   1    3.77    0.94
   6  -1  -1  228.33   14.17
   6  -1  -1  226.65   14.69
  -6   1   1  239.27   14.39
   5  -1  -1   68.69    5.07
  -5   1   1   72.83    4.79
   4  -1  -1   34.69    2.61
   4  -1  -1   38.21    2.62
   4  -1  -1   41.03    3.06
  -4   1   1   41.81    2.76
  -4   1   1   35.90    2.94
   3  -1  -1  107.94    7.20
   3  -1  -1  124.32    7.41
   3  -1  -1  121.21    7.60
  -3   1   1  119.68    7.58
  -3   1   1  132.30    7.31
  -3   1   1  104.52    7.19
   2  -1  -1   77.22    4.92
   2  -1  -1   87.90    4.95
   2  -1  -1   77.97    5.22
  -2   1   1   83.60    4.95
  -2   1   1   77.93    5.20
  -2   1   1   77.35    4.92
   1  -1  -1   45.08    2.93
   1  -1  -1   52.68    2.99
   1  -1  -1   46.43    3.18
  -1   1   1   50.44    2.95
  -1   1   1   45.25    3.16
  -1   1   1   49.51    2.98
  -1  -1  -1   10.38    0.80
  -1  -1  -1    9.44    0.72
  -1  -1  -1    9.49    0.76
   1   1   1   10.17    0.76
   1   1   1    9.41    0.71
  -2  -1  -1    5.28    0.51
  -2  -1  -1    5.10    0.62
  -2  -1  -1    4.21    0.60
   2   1   1    5.08    0.63
   2   1   1    4.67    0.57
   2   1   1    4.70    0.48
   2   1   1    5.49    0.61
  -3  -1  -1   23.42    1.78
  -3  -1  -1   27.17    1.92
  -3  -1  -1   27.51    1.94
   3   1   1   24.12    1.83
   3   1   1   27.09    1.90
   3   1   1   26.11    1.82
  -4  -1  -1   18.79    1.62
  -4  -1  -1   20.03    1.64
   4   1   1   19.23    1.50
   4   1   1   18.17    1.56
  -5  -1  -1  266.31   16.53
   5   1   1  273.85   16.48
  -6  -1  -1  167.93   10.45
  -6  -1  -1  147.05   10.34
   6   1   1  171.27   10.22
   6   1   1  167.12   10.37
  -7  -1  -1    3.61    0.96
   7   1   1    4.81    1.00
   7   1   1    4.50    0.85
  -8  -1  -1   92.74    6.68
   8   1   1   90.38    6.32
   8   1   1   99.36    6.64
  -9  -1  -1   25.67    2.90
   9   1   1   29.76    2.81
   9   1   1   26.84    2.47
 -10  -1  -1    8.06    1.66
  10   1   1    7.06    1.58
  10   1   1    7.09    1.38
 -11  -1  -1   68.11    5.59
  11   1   1   62.89    4.84
  11   1   1   57.83    5.08
 -12  -1  -1   19.40    3.07
  12   1   1   19.15    2.81
  12   1   1   20.98    2.33
 -13  -1  -1   15.15    2.99
  13   1   1   18.72    2.88
  13   1   1   20.57    2.41
 -14  -1  -1   24.70    3.71
  14   1   1   31.87    3.21
  14  -2  -1   19.69    3.77
  14  -2  -1   30.37    2.98
 -14   2   1   32.56    3.97
  13  -2  -1   -0.68    1.51
  13  -2  -1   -0.19    0.64
 -13   2   1   -1.27    1.04
  12  -2  -1   41.63    4.63
  12  -2  -1   45.17    3.79
 -12   2   1   49.01    4.67
  11  -2  -1   42.53    3.56
  11  -2  -1   46.58    4.59
 -11   2   1   39.99    4.18
  10  -2  -1   22.13    3.08
 -10   2   1   29.26    3.60
   9  -2  -1  122.69    7.95
  -9   2   1  117.25    8.39
   8  -2  -1   47.43    4.26
   8  -2  -1   47.05    3.49
  -8   2   1   45.65    3.88
   7  -2  -1   89.67    6.04
   7  -2  -1   91.90    6.81
  -7   2   1   95.51    6.39
   6  -2  -1  118.89    8.35
   6  -2  -1  114.97    7.61
  -6   2   1  129.35    7.92
   5  -2  -1  128.38    8.54
   5  -2  -1  118.49    7.73
  -5   2   1  127.64    7.96
   4  -2  -1   39.33    2.47
   4  -2  -1   36.72    3.05
   4  -2  -1   31.69    2.53
  -4   2   1   40.06    2.66
  -4   2   1   31.86    2.40
   3  -2  -1  318.90   19.81
   3  -2  -1  353.80   20.38
  -3   2   1  291.58   19.71
  -3   2   1  332.29   20.35
  -3   2   1  367.10   19.89
   2  -2  -1    4.13    0.43
   2  -2  -1    3.39    0.49
   2  -2  -1    4.15    0.83
  -2   2   1    3.78    0.56
  -2   2   1    3.18    0.74
  -2   2   1    3.63    0.40
   1  -2  -1   36.92    2.87
   1  -2  -1   46.39    2.57
   1  -2  -1   39.96    2.53
  -1   2   1   37.65    2.55
  -1   2   1   37.63    2.86
  -1   2   1   41.68    2.53
   0  -2  -1  207.21   12.27
   0  -2  -1  209.84   12.45
   0  -2  -1  205.85   12.24
   0   2   1  217.94   12.27
   0   2   1  204.49   12.45
   0   2   1  189.79   12.24
  -1  -2  -1   32.97    2.13
  -1  -2  -1   30.97    2.15
  -1  -2  -1   31.51    2.14
   1   2   1   31.85    2.15
   1   2   1   33.69    2.19
   1   2   1   32.72    2.08
   1   2   1   30.26    2.12
  -2  -2  -1   25.80    1.79
  -2  -2  -1   26.40    1.91
  -2  -2  -1   28.76    1.88
   2   2   1   29.77    2.04
   2   2   1   27.68    1.77
   2   2   1   26.16    1.87
   2   2   1   25.56    1.90
  -3  -2  -1  190.16   10.67
  -3  -2  -1  179.14   10.82
   3   2   1  165.71   10.75
   3   2   1  173.88   10.82
  -4  -2  -1    3.50    0.66
  -4  -2  -1    3.66    0.57
   4   2   1    4.60    0.57
   4   2   1    3.97    0.58
  -5  -2  -1  148.89    9.52
  -5  -2  -1  154.02    9.73
   5   2   1  157.13    9.50
   5   2   1  156.78    9.63
  -6  -2  -1  160.29   10.26
   6   2   1  158.98   10.09
   6   2   1  161.99   10.00
  -7  -2  -1    8.42    1.44
  -7  -2  -1    8.16    1.16
   7   2   1    9.94    1.21
   7   2   1    8.93    1.18
  -8  -2  -1   73.27    5.62
   8   2   1   72.33    5.30
   8   2   1   81.46    5.36
  -9  -2  -1    6.98    1.82
   9   2   1    7.13    1.36
 -10  -2  -1   44.09    4.26
  10   2   1   41.31    3.65
  10   2   1   50.58    3.98
 -11  -2  -1   71.00    6.22
  11   2   1   80.88    5.81
 -12  -2  -1    9.15    2.06
  12   2   1   12.26    1.73
  12   2   1   10.34    2.47
  13   2   1   40.57    3.82
 -14  -2  -1   41.25    4.80
  14   2   1   39.06    3.87
  14  -3  -1   14.55    3.06
 -14   3   1   16.55    2.97
  13  -3  -1    0.64    1.58
  13  -3  -1    2.76    1.02
 -13   3   1    2.78    1.40
  12  -3  -1   46.86    5.18
  12  -3  -1   53.76    4.17
 -12   3   1   55.56    5.03
  11  -3  -1   26.53    2.45
  11  -3  -1   23.09    3.39
 -11   3   1   25.80    3.16
  10  -3  -1   27.11    2.42
  10  -3  -1   23.75    3.38
   9  -3  -1  108.66    7.29
   9  -3  -1  109.73    8.38
  -9   3   1  114.22    7.89
   8  -3  -1   18.26    2.64
   8  -3  -1   21.49    1.87
  -8   3   1   20.97    2.37
   7  -3  -1   54.07    3.68
   7  -3  -1   51.09    4.54
  -7   3   1   52.32    4.06
   6  -3  -1  132.65    9.32
   6  -3  -1  130.10    8.57
  -6   3   1  141.06    8.76
   5  -3  -1    1.18    0.78
   5  -3  -1    0.56    0.28
  -5   3   1    0.45    0.47
   4  -3  -1  102.08    5.69
  -4   3   1   95.51    5.93
  -4   3   1   76.55    5.59
   3  -3  -1   95.50    6.65
   3  -3  -1   99.53    6.10
  -3   3   1   93.82    5.92
  -3   3   1   99.35    6.17
   2  -3  -1   13.66    1.56
   2  -3  -1   17.16    1.12
   2  -3  -1   14.69    1.18
  -2   3   1   12.88    1.18
  -2   3   1   14.93    1.05
   1  -3  -1  435.46   27.96
   1  -3  -1  481.14   27.59
  -1   3   1  430.77   27.97
  -1   3   1  530.87   27.66
  -1   3   1  449.00   27.60
   0  -3  -1   82.11    5.09
   0  -3  -1   78.74    5.06
   0  -3  -1   84.00    5.35
   0   3   1   77.77    5.09
   0   3   1   86.31    5.62
   0   3   1   82.28    5.06
  -1  -3  -1   47.71    3.07
  -1  -3  -1   43.78    3.01
  -1  -3  -1   46.39    3.06
   1   3   1   47.45    3.11
   1   3   1   39.87    2.99
   1   3   1   48.01    3.07
   1   3   1   46.01    2.94
  -2  -3  -1    1.64    0.45
  -2  -3  -1    1.80    0.38
  -2  -3  -1    2.38    0.39
   2   3   1    2.43    0.54
   2   3   1    1.91    0.39
   2   3   1    2.26    0.42
   2   3   1    2.11    0.41
  -3  -3  -1   85.42    5.47
   3   3   1   84.11    5.40
   3   3   1   89.04    5.13
   3   3   1   79.85    5.16
  -4  -3  -1  124.69    7.62
   4   3   1  113.63    7.50
  -5  -3  -1  161.45   10.14
   5   3   1  159.09   10.04
  -6  -3  -1   26.35    1.84
  -6  -3  -1   26.84    2.40
   6   3   1   28.06    2.01
   6   3   1   22.16    2.12
  -7  -3  -1   58.09    3.99
  -7  -3  -1   58.59    4.61
   7   3   1   67.42    4.01
   7   3   1   58.34    4.39
  -8  -3  -1   73.68    5.85
   8   3   1   80.71    5.64
   8   3   1   81.38    5.14
  -9  -3  -1    0.25    0.68
   9   3   1    0.19    0.43
 -10  -3  -1   23.78    2.85
  10   3   1   20.03    1.87
  10   3   1   25.99    2.53
 -11  -3  -1   92.62    7.14
  11   3   1   85.80    6.50
 -12  -3  -1   -0.48    1.09
  12   3   1   -0.07    0.69
 -13  -3  -1   26.96    4.04
  13   3   1   37.11    3.56
 -14  -3  -1   16.29    3.35
  14   3   1   21.08    2.73
  14  -4  -1    4.45    1.21
 -14   4   1    5.09    1.92
  13  -4  -1    7.98    1.51
  13  -4  -1   10.01    2.33
 -13   4   1   10.51    2.26
  12  -4  -1   29.43    2.70
  12  -4  -1   29.30    3.95
 -12   4   1   26.19    3.38
  11  -4  -1    8.74    2.29
 -11   4   1    3.82    1.43
  10  -4  -1   40.67    3.15
  10  -4  -1   36.01    4.24
 -10   4   1   42.14    5.28
   9  -4  -1  101.43    6.65
   9  -4  -1  101.56    8.07
  -9   4   1   98.89    7.28
   8  -4  -1    1.99    1.28
   8  -4  -1    3.34    0.76
  -8   4   1    3.48    1.18
   7  -4  -1   46.41    4.48
   7  -4  -1   51.73    3.46
  -7   4   1   49.44    3.95
   6  -4  -1   88.30    6.77
   6  -4  -1   92.35    5.68
  -6   4   1   85.28    6.09
   5  -4  -1    0.31    0.25
   5  -4  -1    0.13    0.63
  -5   4   1    0.11    0.19
  -5   4   1    0.05    0.43
   4  -4  -1  157.95   10.40
  -4   4   1  166.18    9.78
  -4   4   1  141.27    9.30
   3  -4  -1   95.04    8.41
   3  -4  -1  123.72    6.64
  -3   4   1  108.54    6.90
  -3   4   1  100.65    6.54
   2  -4  -1  172.91    9.85
   2  -4  -1  150.19   10.49
  -2   4   1  157.54   10.01
  -2   4   1  168.94    9.76
   1  -4  -1   93.48    5.76
   1  -4  -1   91.15    6.30
  -1   4   1   95.40    5.74
  -1   4   1   89.69    5.88
  -1   4   1   96.03    5.92
   0  -4  -1  116.13    7.44
   0  -4  -1  123.34    7.50
   0  -4  -1  123.26    7.80
   0   4   1  122.74    7.85
   0   4   1  126.08    7.51
   0   4   1  115.22    7.33
   0   4   1  119.52    7.44
  -1  -4  -1   56.34    3.69
  -1  -4  -1   51.25    3.56
   1   4   1   52.40    3.46
   1   4   1   53.43    3.61
  -2  -4  -1  160.79   10.69
  -2  -4  -1  171.71   10.58
   2   4   1  181.00   10.67
   2   4   1  182.83   10.66
  -3  -4  -1   15.57    1.45
   3   4   1   12.15    1.33
   3   4   1   15.21    1.11
   3   4   1   14.85    1.44
  -4  -4  -1  111.62    7.52
   4   4   1  122.08    7.50
  -5  -4  -1  247.92   15.12
   5   4   1  238.92   14.99
  -6  -4  -1   15.05    1.79
   6   4   1   14.24    1.51
  -7  -4  -1   75.64    5.59
   7   4   1   78.06    5.45
   8   4   1   70.52    5.19
  -9  -4  -1    7.47    1.61
   9   4   1    9.96    1.50
 -10  -4  -1   36.89    3.87
  10   4   1   39.15    3.50
 -11  -4  -1   39.90    4.28
  11   4   1   40.30    3.70
 -12  -4  -1    2.95    1.49
  12   4   1    6.78    1.64
 -13  -4  -1   38.79    4.82
  13   4   1   47.08    4.25
 -14  -4  -1    4.16    2.88
  14  -5  -1    1.86    2.08
  14  -5  -1   -1.58    0.66
 -14   5   1   -2.08    1.14
  13  -5  -1   14.24    3.16
  12  -5  -1   24.69    3.78
  12  -5  -1   23.22    2.32
 -12   5   1   23.06    3.12
  11  -5  -1    0.98    1.38
  11  -5  -1    2.74    0.84
 -11   5   1    2.22    1.33
  10  -5  -1   70.06    4.97
  10  -5  -1   69.90    6.51
 -10   5   1   76.57    5.87
   9  -5  -1   92.80    7.76
   9  -5  -1   93.12    6.15
  -9   5   1   94.77    6.94
   8  -5  -1   12.73    1.28
   8  -5  -1   12.95    2.79
  -8   5   1   10.46    1.90
   7  -5  -1  158.62   11.44
   7  -5  -1  164.89    9.98
  -7   5   1  159.66   10.61
   6  -5  -1   31.71    2.22
   6  -5  -1   28.18    3.35
  -6   5   1   30.55    2.78
   5  -5  -1   47.06    4.35
   5  -5  -1   57.27    3.32
  -5   5   1   51.17    3.81
  -5   5   1   44.11    3.19
   4  -5  -1  152.74    8.43
   4  -5  -1  123.94    9.45
  -4   5   1  134.32    8.84
   3  -5  -1   39.00    2.52
   3  -5  -1   34.51    3.34
  -3   5   1   36.99    2.39
   2  -5  -1  290.57   18.37
   2  -5  -1  290.77   19.20
  -2   5   1  334.65   18.34
  -2   5   1  315.31   18.70
   1  -5  -1  804.40   41.97
   1  -5  -1  698.61   42.40
   1  -5  -1  675.21   41.72
  -1   5   1  643.72   41.80
  -1   5   1  706.69   41.93
   0  -5  -1   90.65    6.19
   0  -5  -1   87.97    5.80
   0  -5  -1   91.34    5.85
   0   5   1   93.28    5.87
   0   5   1   88.60    5.66
   0   5   1   93.40    5.79
  -1  -5  -1   17.26    1.62
  -1  -5  -1   18.80    1.75
   1   5   1   18.09    1.76
   1   5   1   19.35    1.50
  -2  -5  -1  143.01    9.31
  -2  -5  -1  153.07    9.26
   2   5   1  149.19    9.22
  -3  -5  -1    1.31    0.37
  -3  -5  -1    0.47    0.44
   3   5   1    1.48    0.47
   3   5   1    1.16    0.33
  -4  -5  -1   79.16    5.48
   4   5   1   81.10    5.39
  -5  -5  -1   76.67    5.61
   5   5   1   85.59    5.59
  -6  -5  -1    1.63    0.67
   6   5   1    2.23    0.73
  -7  -5  -1  146.48    9.79
  -8  -5  -1   56.71    4.88
   8   5   1   66.55    4.81
  -9  -5  -1   -0.80    0.78
   9   5   1    0.53    0.64
 -10  -5  -1   49.47    4.83
  10   5   1   60.10    4.66
 -11  -5  -1    6.13    1.83
  11   5   1    8.89    1.76
 -12  -5  -1    9.13    2.37
  12   5   1   12.85    2.03
 -13  -5  -1   39.63    4.57
  13   5   1   34.48    3.76
  14  -6  -1    2.30    1.92
 -14   6   1   -0.32    1.11
  13  -6  -1   23.43    3.83
  13  -6  -1   18.50    2.21
 -13   6   1   20.17    3.12
  12  -6  -1   32.44    2.74
  12  -6  -1   28.67    4.32
 -12   6   1   28.93    3.62
  11  -6  -1    2.68    1.77
  11  -6  -1    1.04    0.63
 -11   6   1   -0.15    1.05
  10  -6  -1   34.08    2.72
  10  -6  -1   35.28    4.43
 -10   6   1   34.18    3.63
   9  -6  -1   46.10    5.11
   9  -6  -1   49.27    3.38
  -9   6   1   39.13    5.26
   8  -6  -1   28.19    3.86
  -8   6   1   30.27    3.07
   7  -6  -1  148.29    9.34
   7  -6  -1  140.67   11.44
  -7   6   1  165.16   10.23
   6  -6  -1   49.19    4.54
   6  -6  -1   51.62    3.09
  -6   6   1   37.82    2.93
  -6   6   1   46.10    3.76
   5  -6  -1   30.52    2.16
   5  -6  -1   30.92    3.45
  -5   6   1   32.52    2.80
   4  -6  -1   96.76    5.87
   4  -6  -1  100.56    7.21
  -4   6   1   81.74    5.69
  -4   6   1  101.75    6.44
   3  -6  -1    7.69    0.78
   3  -6  -1    7.64    1.61
  -3   6   1    7.29    1.18
  -3   6   1    6.55    0.63
   2  -6  -1   74.11    5.67
   2  -6  -1   72.77    4.75
  -2   6   1   75.55    5.13
  -2   6   1   75.45    4.65
   1  -6  -1  288.92   17.72
   1  -6  -1  294.82   18.46
  -1   6   1  287.46   17.57
  -1   6   1  303.31   17.97
  -1   6   1  296.13   17.68
   0  -6  -1    2.87    0.72
   0  -6  -1    1.93    0.75
   0   6   1    2.37    0.49
   0   6   1    3.77    0.77
  -1  -6  -1  225.22   13.87
  -1  -6  -1  231.71   14.13
   1   6   1  219.77   13.71
  -2  -6  -1  123.95    7.94
  -2  -6  -1  124.99    7.98
   2   6   1  118.86    7.97
   2   6   1  126.66    7.85
  -3  -6  -1    0.43    0.52
  -3  -6  -1    0.22    0.34
   3   6   1    0.60    0.36
  -4  -6  -1   17.51    1.87
   4   6   1   17.86    1.74
  -5  -6  -1   45.68    3.61
   5   6   1   43.61    3.44
  -6  -6  -1   40.45    3.53
   6   6   1   42.88    3.41
  -7  -6  -1   65.62    5.18
   7   6   1   69.64    5.08
  -8  -6  -1    4.68    1.41
   8   6   1    5.26    1.23
  -9  -6  -1   24.38    2.99
   9   6   1   31.24    2.88
 -10  -6  -1   21.61    3.01
  10   6   1   30.13    2.98
  11   6   1    0.35    0.85
  12   6   1   14.06    2.23
 -13  -6  -1   30.18    4.21
  13   6   1   35.98    3.77
  13  -7  -1   14.70    3.15
  12  -7  -1   -1.23    1.50
  12  -7  -1   -1.40    0.87
 -12   7   1   -0.61    1.03
  11  -7  -1   24.51    2.23
  11  -7  -1   26.28    4.03
 -11   7   1   27.34    3.25
  10  -7  -1   64.73    6.50
  10  -7  -1   67.59    4.44
 -10   7   1   58.67    5.37
   9  -7  -1   35.73    4.46
  -9   7   1   31.41    3.40
   8  -7  -1   35.40    2.58
   8  -7  -1   34.69    4.37
  -8   7   1   38.95    3.68
   7  -7  -1   59.35    5.40
   7  -7  -1   52.65    3.40
  -7   7   1   52.72    4.37
  -7   7   1   45.30    3.28
   6  -7  -1    0.16    1.86
   6  -7  -1    0.33    0.32
  -6   7   1    0.38    0.76
   5  -7  -1   57.95    5.06
   5  -7  -1   57.27    3.53
  -5   7   1   48.00    3.33
  -5   7   1   55.45    4.25
   4  -7  -1   65.99    5.55
   4  -7  -1   64.73    4.08
  -4   7   1   72.23    4.84
  -4   7   1   56.87    3.91
   3  -7  -1   16.70    1.33
   3  -7  -1   14.70    2.32
  -3   7   1   16.28    1.20
  -3   7   1   14.74    1.79
   2  -7  -1   90.36    6.62
  -2   7   1   88.17    5.51
  -2   7   1   85.48    6.00
  -2   7   1   86.30    5.45
   1  -7  -1  108.69    7.65
  -1   7   1  105.79    6.69
  -1   7   1  107.60    7.12
   0  -7  -1   30.13    2.51
   0  -7  -1   29.86    2.84
   0   7   1   31.36    2.55
   0   7   1   31.08    2.28
  -1  -7  -1   94.10    6.16
  -1  -7  -1   89.52    6.37
   1   7   1   91.17    6.14
   1   7   1   92.23    5.96
  -2  -7  -1   51.48    3.82
  -2  -7  -1   51.87    3.83
   2   7   1   49.65    3.62
  -3  -7  -1   41.54    3.07
  -3  -7  -1   45.33    3.43
   3   7   1   43.59    3.21
   3   7   1   38.02    3.05
  -4  -7  -1  135.57    8.42
   4   7   1  142.35    8.33
   4   7   1  116.75    7.75
   4   7   1  112.18    7.73
   5   7   1   49.56    3.85
  -6  -7  -1   41.80    3.64
   6   7   1   39.95    3.41
  -7  -7  -1   32.14    3.19
   7   7   1   31.13    2.96
  -8  -7  -1    0.23    0.93
   8   7   1    0.86    0.77
  -9  -7  -1   73.82    6.37
   9   7   1   91.17    6.38
 -10  -7  -1   37.22    4.65
  10   7   1   45.00    4.36
 -11  -7  -1   -1.32    1.22
  11   7   1    0.22    0.79
 -12  -7  -1   13.86    2.83
  12   7   1   23.75    2.88
  13  -8  -1   13.77    3.23
 -12   8   1   -0.85    1.03
  11  -8  -1   14.61    3.43
 -11   8   1   12.81    2.29
  10  -8  -1   46.91    5.36
 -10   8   1   38.00    4.09
   9  -8  -1   -0.95    1.34
   9  -8  -1   -0.34    0.33
  -9   8   1   -0.27    0.85
   8  -8  -1   32.81    4.13
   8  -8  -1   29.22    2.16
  -8   8   1   33.06    3.36
   7  -8  -1   50.46    4.96
   7  -8  -1   42.38    2.74
  -7   8   1   37.09    2.66
  -7   8   1   44.24    5.12
   6  -8  -1   21.06    3.20
  -6   8   1   17.57    1.16
  -6   8   1   15.78    2.31
   5  -8  -1   78.14    8.11
  -5   8   1   78.36    5.32
  -5   8   1   59.82    4.06
   4  -8  -1   26.94    3.38
  -4   8   1   26.48    1.68
  -4   8   1   22.24    1.63
  -4   8   1   29.14    2.68
   3  -8  -1   15.59    2.45
  -3   8   1   14.83    1.87
  -3   8   1   14.37    1.13
   2  -8  -1  189.69   12.48
  -2   8   1  179.43   11.74
  -2   8   1  182.52   11.14
  -2   8   1  179.74   11.08
   1  -8  -1   53.75    4.47
  -1   8   1   49.63    3.45
  -1   8   1   50.75    3.92
   0  -8  -1   61.33    4.35
   0  -8  -1   56.93    4.75
   0   8   1   58.97    4.36
   0   8   1   60.24    4.08
  -1  -8  -1   83.69    5.89
  -1  -8  -1   81.91    6.18
   1   8   1   88.45    5.95
   1   8   1   89.54    5.74
  -2  -8  -1    3.11    0.97
  -2  -8  -1    5.75    1.20
   2   8   1    4.85    0.93
  -3  -8  -1   41.78    3.25
  -3  -8  -1   41.74    3.50
   3   8   1   44.23    3.36
  -4  -8  -1  131.40    8.28
   4   8   1  124.27    8.08
   4   8   1  109.26    7.65
  -5  -8  -1    0.60    0.79
   5   8   1    1.38    0.75
  -6  -8  -1   99.30    7.14
   6   8   1   99.08    7.01
  -7  -8  -1   86.72    6.54
   7   8   1   87.70    6.42
  -8  -8  -1   -0.64    0.90
   8   8   1   -0.01    0.67
  -9  -8  -1   27.69    3.27
   9   8   1   28.69    3.04
 -10  -8  -1   17.42    2.81
  10   8   1   18.85    2.50
 -11  -8  -1    3.10    1.46
  11   8   1    3.31    1.28
 -12  -8  -1   42.36    4.90
  12   8   1   49.74    4.62
  12  -9  -1   -1.07    2.01
 -12   9   1   -0.80    1.05
  11  -9  -1   33.53    4.81
 -11   9   1   26.36    3.46
  10  -9  -1   23.76    4.13
 -10   9   1   22.27    3.09
   9  -9  -1    1.48    1.54
  -9   9   1    1.92    1.38
   8  -9  -1   36.80    4.53
  -8   9   1   27.35    3.23
   7  -9  -1   24.03    3.62
  -7   9   1   18.27    2.62
   6  -9  -1   14.08    3.07
  -6   9   1   11.21    2.15
   5  -9  -1   73.46    6.57
   4  -9  -1   17.25    2.69
  -4   9   1   12.84    0.92
  -4   9   1   14.48    2.15
  -4   9   1   13.08    1.03
   3  -9  -1   41.26    4.37
  -3   9   1   45.48    2.82
  -3   9   1   47.19    3.81
  -3   9   1   38.29    2.85
   2  -9  -1  154.09   10.88
  -2   9   1  150.87   10.13
  -2   9   1  153.87    9.40
   1  -9  -1   22.68    2.76
  -1   9   1   20.31    1.86
  -1   9   1   20.74    2.22
   0  -9  -1   42.70    3.36
   0  -9  -1   40.20    3.75
   0   9   1   41.53    3.39
   0   9   1   37.93    2.96
  -1  -9  -1   65.23    5.16
   1   9   1   64.30    4.54
  -2  -9  -1    2.73    0.99
  -2  -9  -1    3.02    1.01
   2   9   1    3.53    0.90
   2   9   1    3.69    1.04
  -3  -9  -1  115.89    7.77
  -3  -9  -1  115.16    8.00
   3   9   1  118.68    7.84
  -4  -9  -1  107.05    6.87
   4   9   1   86.71    6.45
   4   9   1   90.55    6.29
  -5  -9  -1   -0.37    0.78
   5   9   1   -0.29    0.49
  -6  -9  -1   40.08    3.65
   6   9   1   36.15    3.39
  -7  -9  -1    8.76    1.72
   7   9   1    7.78    1.65
  -8  -9  -1    5.73    1.79
   8   9   1    8.27    1.71
  -9  -9  -1   66.05    5.64
   9   9   1   62.98    5.35
 -10  -9  -1    4.90    1.80
  10   9   1    9.55    1.95
 -11  -9  -1    6.89    1.96
  12 -10  -1    1.82    2.32
 -12  10   1    2.98    1.51
  11 -10  -1   52.36    6.30
 -11  10   1   48.89    6.14
  10 -10  -1    5.83    2.54
 -10  10   1    2.58    1.39
   9 -10  -1   13.65    3.31
  -9  10   1    9.53    2.02
   8 -10  -1   53.30    5.67
  -8  10   1   44.15    4.46
   7 -10  -1    5.70    2.29
  -7  10   1    6.67    1.86
   6 -10  -1   19.05    3.26
  -6  10   1   23.13    2.97
   5 -10  -1   27.67    3.70
  -5  10   1   25.76    3.09
   4 -10  -1    0.23    1.09
  -4  10   1   -1.11    0.65
   3 -10  -1  133.52    9.54
  -3  10   1  113.47    7.40
  -3  10   1  120.72    7.41
  -3  10   1  121.71    8.51
   2 -10  -1   82.77    7.02
  -2  10   1   82.92    5.36
  -2  10   1   85.39    6.24
   1 -10  -1   -0.30    0.99
  -1  10   1    0.40    0.71
  -1  10   1    0.40    0.39
   0 -10  -1   44.29    3.56
   0 -10  -1   37.14    3.91
   0  10   1   40.59    3.52
   0  10   1   41.52    3.11
  -1 -10  -1   79.17    6.21
  -1 -10  -1   78.15    5.85
   1  10   1   83.06    5.94
   1  10   1   80.87    5.56
  -2 -10  -1   -0.55    0.65
  -2 -10  -1   -0.84    0.67
   2  10   1   -0.35    0.39
   2  10   1   -0.54    0.60
  -3 -10  -1   77.46    6.63
  -3 -10  -1   77.45    5.72
   3  10   1   77.41    5.74
   3  10   1   71.31    5.80
  -4 -10  -1   26.62    2.91
   4  10   1   27.62    2.56
   4  10   1   33.51    2.89
  -5 -10  -1   16.15    2.23
   5  10   1   17.19    2.09
  -6 -10  -1   71.86    5.73
   6  10   1   72.93    5.64
  -7 -10  -1   21.94    3.87
   7  10   1   22.23    2.63
  -8 -10  -1    6.95    1.71
   8  10   1    7.72    1.76
  -9 -10  -1   39.14    4.25
   9  10   1   43.34    4.13
 -10 -10  -1   -0.73    1.41
  10  10   1    3.72    1.35
  11 -11  -1   20.23    4.62
 -11  11   1   18.71    3.12
  10 -11  -1    1.81    2.16
 -10  11   1   -1.21    1.05
   9 -11  -1   36.57    4.98
  -9  11   1   31.17    3.88
   8 -11  -1   40.05    5.21
  -8  11   1   34.40    3.85
   7 -11  -1   11.10    3.17
  -7  11   1    6.02    1.74
   6 -11  -1   36.74    4.48
  -6  11   1   29.76    3.53
   5 -11  -1   25.47    3.65
  -5  11   1   21.42    2.91
   4 -11  -1    2.57    1.64
  -4  11   1    1.81    1.12
   3 -11  -1   82.78    7.00
  -3  11   1   81.99    6.11
  -3  11   1   72.01    4.81
   2 -11  -1   27.36    3.63
  -2  11   1   28.33    2.96
  -2  11   1   27.56    2.24
   1 -11  -1    2.03    2.12
  -1  11   1    1.79    0.57
  -1  11   1    0.86    0.94
   0 -11  -1   44.62    4.47
   0  11   1   46.98    4.02
   0  11   1   48.87    3.55
  -1 -11  -1   22.50    2.47
  -1 -11  -1   17.29    2.60
   1  11   1   20.18    2.38
   1  11   1   20.52    2.05
  -2 -11  -1   26.33    2.67
  -2 -11  -1   21.14    2.66
   2  11   1   23.17    2.59
   2  11   1   24.67    2.35
  -3 -11  -1   58.35    4.64
  -3 -11  -1   52.53    4.40
   3  11   1   54.37    4.37
   3  11   1   55.48    4.58
  -4 -11  -1    8.00    1.92
   4  11   1   12.75    2.13
   4  11   1   10.05    1.62
   4  11   1   10.70    1.56
  -5 -11  -1   29.12    3.16
   5  11   1   26.91    2.86
  -6 -11  -1   14.85    2.31
   6  11   1   14.07    2.09
  -7 -11  -1    0.84    1.17
   7  11   1    0.63    0.86
  -8 -11  -1   43.98    4.68
   8  11   1   38.52    3.96
  -9 -11  -1   27.22    3.47
   9  11   1   25.14    3.20
  10 -12  -1    1.48    2.32
 -10  12   1    2.02    1.36
   9 -12  -1   24.45    4.37
  -9  12   1   20.71    3.43
   8 -12  -1   17.26    3.89
  -8  12   1   21.05    4.96
   7 -12  -1   -0.78    1.34
  -7  12   1   -1.28    1.27
  -6  12   1   19.22    3.03
   5 -12  -1   19.01    3.34
  -5  12   1   10.37    2.13
   4 -12  -1   19.45    3.43
  -4  12   1   18.85    2.70
   3 -12  -1   80.15    7.00
  -3  12   1   70.97    6.01
   2 -12  -1    9.28    2.53
  -2  12   1    6.72    1.54
   1 -12  -1    4.98    1.84
  -1  12   1    4.35    1.35
  -1  12   1    4.10    0.83
   0 -12  -1   78.66    6.77
   0  12   1   82.30    5.60
   0  12   1   81.65    6.21
  -1 -12  -1    8.08    2.01
  -1 -12  -1    7.29    1.59
   1  12   1    7.95    1.31
   1  12   1    7.13    1.54
  -2 -12  -1   43.34    3.88
  -2 -12  -1   41.74    4.07
   2  12   1   40.82    3.54
   2  12   1   43.42    3.92
  -3 -12  -1   48.40    4.21
  -3 -12  -1   55.14    5.84
   3  12   1   46.86    4.06
  -4 -12  -1    1.18    1.05
   4  12   1   -0.14    0.84
   4  12   1    1.05    0.81
  -5 -12  -1   25.67    3.01
   5  12   1   25.83    3.08
   5  12   1   24.72    2.92
  -6 -12  -1   29.69    3.46
   6  12   1   30.34    3.30
   6  12   1   35.52    3.70
  -7 -12  -1   -0.79    1.06
   7  12   1   -0.07    0.77
  -8 -12  -1   45.91    4.51
   8  12   1   34.78    3.95
   9 -13  -1   16.46    3.84
  -9  13   1   16.21    3.20
   8 -13  -1   15.99    4.07
  -8  13   1   10.53    2.31
   7 -13  -1    3.10    1.82
  -7  13   1    2.92    1.68
   6 -13  -1   29.84    4.53
  -6  13   1   33.70    3.96
   5 -13  -1   -1.39    1.57
  -5  13   1   -0.70    1.05
   4 -13  -1   21.15    3.81
   3 -13  -1   22.10    3.67
   2 -13  -1   -0.64    1.26
   1 -13  -1   47.05    5.02
  -1  13   1   43.68    3.30
   0 -13  -1   37.10    4.31
   0  13   1   33.14    3.84
   0  13   1   37.47    3.01
  -1 -13  -1   -1.25    1.12
   1  13   1   -0.33    0.86
   1  13   1   -1.10    0.49
  -2 -13  -1   30.88    3.80
  -2 -13  -1   36.84    3.67
   2  13   1   36.01    3.22
   2  13   1   36.28    3.61
  -3 -13  -1   22.30    2.82
   3  13   1   22.31    2.87
   3  13   1   23.99    2.54
  -4 -13  -1    1.42    1.23
   4  13   1    0.15    0.97
   4  13   1    1.95    1.08
  -5 -13  -1   28.05    3.35
   5  13   1   29.46    3.45
   5  13   1   29.92    3.13
  -6 -13  -1   27.85    3.32
   6  13   1   24.40    3.09
   6  13   1   24.47    3.28
   7 -14  -1    6.97    2.98
  -7  14   1    5.77    2.02
   6 -14  -1   25.74    4.56
  -6  14   1   23.92    3.47
   5 -14  -1    0.04    2.13
  -5  14   1   -1.61    1.17
   4 -14  -1   28.87    4.46
  -4  14   1   30.72    3.68
   3 -14  -1    8.27    3.78
  -3  14   1    9.82    2.14
   2 -14  -1   -0.26    1.38
  -2  14   1    1.08    1.15
   1 -14  -1   43.90    5.04
  -1  14   1   42.53    4.30
   0 -14  -1   24.63    3.76
   0  14   1   26.03    3.26
  -1 -14  -1    9.79    2.49
   1  14   1    5.15    1.19
   1  14   1    7.49    1.84
   2  14   1   47.62    4.04
   2  14   1   51.24    4.66
  -3 -14  -1    2.85    1.45
   3  14   1    5.56    1.21
   3  14   1    6.52    1.69
  -4 -14  -1    7.28    2.01
   4  14   1    4.31    1.28
   4  14   1    7.25    1.96
   4 -15  -1   32.73    5.06
   3 -15  -1   40.96    5.23
  -3  15   1   39.41    4.32
   2 -15  -1   -1.00    1.54
  -2  15   1    1.31    1.27
   1 -15  -1   14.08    4.19
  -1  15   1   21.52    3.11
   0 -15  -1    8.21    2.52
   0  15   1   10.29    2.20
   1  15   1    2.41    1.40
  -1  14  -2   28.36    3.65
   1 -14   2   22.93    4.24
  -2  14  -2    3.20    1.40
   2 -14   2    4.65    2.28
  -3  14  -2    5.67    1.75
   3 -14   2    8.74    2.90
   3  13  -2    0.36    0.88
   3  13  -2    1.46    1.32
   2  13  -2   33.61    3.85
   2  13  -2   34.19    3.17
   1  13  -2    3.73    1.02
   1  13  -2    4.70    1.47
   0  13  -2   17.12    2.69
   0 -13   2   19.06    3.52
  -1  13  -2   51.53    4.84
   1 -13   2   46.50    5.24
  -2  13  -2    7.08    1.76
   2 -13   2    7.09    2.52
  -3  13  -2   17.73    2.78
   3 -13   2    7.84    3.43
  -4  13  -2    9.38    2.20
   4 -13   2   14.02    3.34
  -5  13  -2   -0.50    1.18
   5 -13   2   -1.15    1.42
  -6  13  -2   32.28    4.19
   6 -13   2   28.35    4.87
  -7  13  -2   15.07    3.36
   7 -13   2   20.96    4.30
   5  12  -2   39.11    4.14
   5  12  -2   34.50    3.58
  -5 -12   2   38.07    4.01
   4  12  -2    1.74    1.25
   4  12  -2    0.02    0.98
  -4 -12   2    1.04    1.27
   3  12  -2   29.98    3.38
   3  12  -2   24.08    2.68
  -3 -12   2   27.01    3.24
   2  12  -2   46.20    4.52
   2  12  -2   48.35    3.94
   1  12  -2    3.31    0.93
   1  12  -2    4.97    1.43
  -1 -12   2    2.23    2.57
   0  12  -2   14.51    1.64
   0  12  -2   17.13    2.48
   0 -12   2   13.54    3.00
  -1  12  -2   31.86    3.57
   1 -12   2   29.94    4.16
  -2  12  -2   -0.83    0.90
   2 -12   2   -0.56    1.35
  -3  12  -2   23.18    3.24
   3 -12   2   26.68    4.07
  -4  12  -2    3.47    1.47
   4 -12   2    0.90    1.75
  -5  12  -2    2.05    1.42
  -6  12  -2   40.77    4.51
   6 -12   2   42.18    5.51
  -7  12  -2   10.31    2.66
   7 -12   2    6.30    2.60
  -8  12  -2    5.11    1.90
   8 -12   2    7.12    2.79
  -9  12  -2   24.10    4.02
   9 -12   2   19.11    4.29
   7  11  -2    4.19    1.53
   7  11  -2    6.78    1.81
  -7 -11   2    3.06    1.42
   6  11  -2   26.30    3.43
   6  11  -2   27.33    3.09
  -6 -11   2   27.15    3.50
   5  11  -2   27.22    3.35
  -5 -11   2   21.25    3.17
   4  11  -2   -0.34    0.67
   4  11  -2   -1.22    0.95
  -4 -11   2   -0.60    1.05
   3  11  -2   38.26    3.61
   3  11  -2   43.33    4.08
  -3 -11   2   42.20    4.00
   2  11  -2   32.37    4.44
   2  11  -2   27.46    2.65
  -2 -11   2   37.08    4.26
  -2 -11   2   23.29    3.12
   1  11  -2    3.17    1.16
   1  11  -2    2.95    0.88
  -1 -11   2    1.55    1.32
   0  11  -2   54.36    4.87
   0  11  -2   61.30    4.24
  -1  11  -2   52.26    3.77
  -1  11  -2   54.98    4.75
   1 -11   2   59.00    5.52
  -2  11  -2    0.23    0.29
  -2  11  -2   -0.02    0.71
   2 -11   2    0.00    1.34
  -3  11  -2   38.93    3.97
   3 -11   2   41.90    4.84
  -4  11  -2    4.90    1.61
   4 -11   2    3.38    1.81
  -5  11  -2   20.33    3.01
   5 -11   2   24.18    3.75
  -6  11  -2   35.89    5.59
   6 -11   2   30.01    4.63
  -7  11  -2   -1.78    1.20
   7 -11   2   -1.02    1.59
  -8  11  -2   25.02    3.58
   8 -11   2   32.10    4.73
  -9  11  -2   34.82    4.55
   9 -11   2   42.39    5.73
 -10  11  -2   -0.89    1.19
  10 -11   2    0.20    2.07
   8  10  -2   10.16    2.09
   8  10  -2    4.72    1.59
  -8 -10   2    8.75    2.00
   7  10  -2   -0.37    1.18
   7  10  -2    0.80    1.09
  -7 -10   2    1.35    1.27
   6  10  -2   38.11    4.24
   6  10  -2   45.74    4.31
  -6 -10   2   45.67    4.28
   5  10  -2   48.03    4.36
   5  10  -2   41.49    3.99
  -5 -10   2   50.85    4.39
   4  10  -2    6.81    1.64
   4  10  -2    7.33    1.54
  -4 -10   2    8.44    1.77
   3  10  -2   57.04    4.62
   3  10  -2   59.84    5.04
  -3 -10   2   61.09    5.00
   2  10  -2    3.04    0.94
   2  10  -2    1.37    0.93
  -2 -10   2    3.67    1.24
  -2 -10   2    1.88    0.98
   1  10  -2    8.64    1.74
   1  10  -2   10.14    1.38
  -1 -10   2    8.46    1.92
   0  10  -2  106.89    6.84
   0  10  -2   97.51    7.41
   0 -10   2  105.12    7.96
  -1  10  -2   32.56    3.17
  -1  10  -2   29.90    2.30
   1 -10   2   28.14    3.64
  -2  10  -2    5.89    1.38
  -2  10  -2    8.90    0.87
   2 -10   2    8.41    2.18
  -3  10  -2   42.11    4.10
   3 -10   2   51.01    5.12
  -4  10  -2   -0.28    0.88
   4 -10   2    1.70    1.48
  -5  10  -2   65.00    5.68
   5 -10   2   69.09    6.67
  -6  10  -2   63.94    5.75
   6 -10   2   67.95    6.77
  -7  10  -2    0.23    1.19
   7 -10   2   -0.69    1.21
  -8  10  -2   26.38    3.81
   8 -10   2   45.71    6.85
  -9  10  -2   22.82    3.64
   9 -10   2   18.83    4.05
 -10  10  -2   -0.61    1.03
  10 -10   2   -0.17    1.82
 -11  10  -2   51.77    5.49
  11 -10   2   62.76    7.09
   9   9  -2   27.18    3.37
  -9  -9   2   34.33    3.90
   8   9  -2   18.12    2.52
  -8  -9   2   16.68    2.68
   7   9  -2    3.90    1.30
  -7  -9   2    3.54    1.56
   6   9  -2   66.07    5.28
  -6  -9   2   61.60    6.66
   5   9  -2   26.72    3.01
   5   9  -2   21.96    2.49
  -5  -9   2   20.45    2.82
   4   9  -2   17.65    2.16
   4   9  -2   20.18    2.55
  -4  -9   2   17.32    2.53
   3   9  -2   74.09    5.42
   3   9  -2   75.45    5.68
  -3  -9   2   78.38    5.70
  -3  -9   2   67.26    5.28
   2   9  -2    8.60    1.38
   2   9  -2    9.19    1.67
  -2  -9   2    8.01    1.61
  -2  -9   2   11.64    1.87
   1   9  -2   54.76    4.08
   1   9  -2   56.59    4.53
  -1  -9   2   52.73    4.67
  -1  -9   2   59.82    4.56
   0   9  -2   51.71    4.38
   0   9  -2   58.02    3.91
   0  -9   2   51.83    4.79
  -1   9  -2   10.78    1.09
  -1   9  -2    7.70    1.48
   1  -9   2    9.51    2.27
  -2   9  -2   32.15    2.36
  -2   9  -2   38.65    3.43
   2  -9   2   36.29    4.03
  -3   9  -2   31.90    2.10
  -3   9  -2   39.73    3.63
   3  -9   2   43.73    4.47
  -4   9  -2   -0.69    0.73
   4  -9   2    0.89    1.39
  -5   9  -2   57.63    4.95
   5  -9   2   54.87    5.68
  -6   9  -2   16.85    2.55
   6  -9   2   15.92    3.42
  -7   9  -2   14.22    2.60
   7  -9   2    6.73    2.26
  -8   9  -2   50.04    4.88
   8  -9   2   51.10    5.88
  -9   9  -2   14.85    2.69
  10  -9   2    4.40    2.57
 -11   9  -2   37.88    4.46
  11  -9   2   46.50    6.85
 -12   9  -2    2.30    1.46
  12  -9   2    0.39    2.20
  10   8  -2    3.31    1.37
   9   8  -2   20.78    2.71
  -9  -8   2   27.41    3.38
   8   8  -2    0.62    0.83
  -8  -8   2   -0.41    1.04
   7   8  -2   22.27    2.64
  -7  -8   2   23.07    2.97
   6   8  -2  108.60    7.83
  -6  -8   2  111.11    7.98
   5   8  -2    5.06    1.23
  -5  -8   2    3.80    1.36
   4   8  -2   79.38    5.88
   4   8  -2   81.60    6.06
  -4  -8   2   82.65    6.08
   3   8  -2   63.83    4.88
   3   8  -2   67.05    5.15
  -3  -8   2   69.06    5.20
  -3  -8   2   66.33    4.73
   2   8  -2   12.14    1.89
   2   8  -2   11.26    1.44
  -2  -8   2   11.86    2.27
  -2  -8   2   12.19    1.92
   1   8  -2  101.99    6.81
   1   8  -2  103.50    7.20
  -1  -8   2   97.88    7.33
  -1  -8   2  110.12    7.24
   0   8  -2  106.52    7.53
   0   8  -2  109.47    7.06
   0  -8   2  113.41    8.02
  -1   8  -2    0.07    0.62
  -1   8  -2    0.61    0.39
   1  -8   2    0.73    0.90
  -2   8  -2   80.46    5.32
  -2   8  -2   82.94    5.44
  -2   8  -2   90.18    6.36
   2  -8   2   93.45    7.04
  -3   8  -2   22.57    2.64
  -3   8  -2   21.64    1.41
   3  -8   2   27.18    3.24
  -4   8  -2   -0.22    0.82
  -5   8  -2  132.91    9.45
   5  -8   2  137.61   10.42
  -6   8  -2   13.27    2.32
   6  -8   2    9.33    2.46
  -7   8  -2   26.08    3.30
   7  -8   2   34.57    4.35
  -8   8  -2   54.94    5.14
   8  -8   2   60.50    6.20
  -9   8  -2    0.92    1.14
   9  -8   2    2.30    1.85
 -10   8  -2   11.69    2.27
  10  -8   2   14.93    5.07
  11  -8   2   51.50    6.21
 -12   8  -2   -0.03    1.08
  12  -8   2   -0.15    1.92
 -13   8  -2   37.27    4.44
  13  -8   2   33.53    5.35
  11   7  -2    2.97    1.36
 -11  -7   2   -0.19    1.52
  10   7  -2   16.42    2.40
 -10  -7   2    9.32    2.04
   9   7  -2   56.43    5.01
  -9  -7   2   61.55    5.50
   8   7  -2    2.73    1.09
  -8  -7   2    1.59    1.14
   7   7  -2   55.63    4.67
  -7  -7   2   60.82    4.91
   6   7  -2   61.61    5.03
  -6  -7   2   68.89    5.31
   5   7  -2    2.27    0.86
  -5  -7   2    2.19    0.98
  -4  -7   2   41.83    3.60
   3   7  -2  154.09    9.28
   3   7  -2  115.39    9.00
   3   7  -2  137.34    8.97
  -3  -7   2  138.16    8.75
  -3  -7   2  141.91    9.21
   2   7  -2   13.75    1.53
   2   7  -2   14.20    1.78
  -2  -7   2   14.40    1.75
  -2  -7   2   15.23    1.83
   1   7  -2   90.56    6.28
   1   7  -2   89.03    5.96
  -1  -7   2   88.88    6.44
  -1  -7   2   91.91    6.27
   0   7  -2   74.85    5.41
   0   7  -2   75.58    5.00
   0  -7   2   73.36    5.76
   0  -7   2   79.65    5.44
  -1   7  -2   11.45    1.62
  -1   7  -2   13.51    1.17
   1  -7   2   13.26    2.03
  -2   7  -2   65.35    4.21
  -2   7  -2   63.98    4.87
  -2   7  -2   66.41    4.10
   2  -7   2   63.14    5.40
   3  -7   2    3.75    1.45
  -4   7  -2   27.93    2.80
   4  -7   2   26.47    3.37
  -5   7  -2  126.80    8.78
   5  -7   2  126.73    9.65
  -6   7  -2    2.87    1.33
   6  -7   2    1.58    1.49
  -7   7  -2   47.39    4.45
   7  -7   2   53.40    5.42
  -8   7  -2   59.39    5.43
   8  -7   2   73.40    6.68
  -9   7  -2    0.18    1.07
   9  -7   2   -1.15    1.44
 -10   7  -2   28.92    3.47
  10  -7   2   35.96    4.69
 -11   7  -2   22.89    3.19
  11  -7   2   23.96    4.95
 -12   7  -2    3.26    2.22
  12  -7   2    0.62    1.72
 -13   7  -2   45.67    4.86
  13  -7   2   46.78    5.90
  11   6  -2   -0.38    0.79
 -11  -6   2   -2.39    1.20
  10   6  -2   31.76    3.44
 -10  -6   2   40.62    4.93
   9   6  -2   63.87    5.79
  -9  -6   2   67.61    5.60
   8   6  -2    3.03    1.02
  -8  -6   2    4.29    1.31
   7   6  -2   64.62    5.12
  -7  -6   2   66.73    5.27
   6   6  -2   36.48    3.30
  -6  -6   2   40.64    3.61
   5   6  -2    5.31    1.14
  -5  -6   2    5.69    1.27
   4   6  -2   73.99    5.22
  -4  -6   2   70.80    5.29
   3   6  -2   58.42    4.30
   3   6  -2   57.07    4.34
  -3  -6   2   63.73    4.51
  -3  -6   2   59.82    4.11
   2   6  -2   17.15    1.61
   2   6  -2   17.38    1.84
  -2  -6   2   14.49    1.68
  -2  -6   2   15.31    1.85
   1   6  -2  310.51   18.93
   1   6  -2  299.50   18.68
  -1  -6   2  300.74   19.10
  -1  -6   2  323.12   18.96
   0   6  -2   41.82    3.05
   0   6  -2   45.11    3.46
   0  -6   2   50.26    3.53
   0  -6   2   41.58    3.67
  -1   6  -2   49.24    3.22
  -1   6  -2   46.26    3.68
  -1   6  -2   45.66    3.50
   1  -6   2   54.45    4.25
  -2   6  -2   16.26    1.89
  -2   6  -2   17.95    1.26
   2  -6   2   17.70    2.29
  -3   6  -2    3.03    0.85
   3  -6   2    4.28    1.28
  -4   6  -2   92.04    6.61
   4  -6   2   97.84    7.40
  -5   6  -2   70.24    5.28
   5  -6   2   68.68    5.99
  -6   6  -2    7.79    1.59
   6  -6   2   10.89    2.49
  -7   6  -2  160.80   11.20
   7  -6   2  156.07   11.67
  -8   6  -2   37.93    3.71
   8  -6   2   40.53    4.63
  -9   6  -2    7.51    1.79
   9  -6   2    4.55    2.00
 -10   6  -2   39.56    4.05
  10  -6   2   40.86    4.83
  10  -6   2   40.51    2.64
 -11   6  -2   23.74    3.30
  11  -6   2   24.60    3.98
 -12   6  -2    1.13    1.15
  12  -6   2    1.58    2.76
 -13   6  -2   25.71    3.70
  13  -6   2   27.19    4.43
  14  -6   2    2.60    2.05
  12   5  -2    8.63    1.99
 -12  -5   2    4.27    1.86
  11   5  -2   -0.28    0.81
 -11  -5   2   -1.50    1.11
  10   5  -2   22.61    2.69
 -10  -5   2   19.76    2.91
   9   5  -2   17.48    2.21
  -9  -5   2   11.71    2.19
   8   5  -2   15.31    2.04
  -8  -5   2   17.51    2.31
   7   5  -2  111.55    7.85
  -7  -5   2  114.61    7.93
   6   5  -2    2.60    0.90
   5   5  -2    0.72    0.59
  -5  -5   2   -0.33    0.69
   4   5  -2  170.16   10.94
  -4  -5   2  173.26   11.02
   3   5  -2   -0.12    0.30
   3   5  -2    0.61    0.42
  -3  -5   2   -0.03    0.30
  -3  -5   2    0.23    0.56
   2   5  -2   76.57    5.45
   2   5  -2   80.29    5.32
  -2  -5   2   79.31    5.45
  -2  -5   2   83.11    5.41
   1   5  -2  314.03   18.69
   1   5  -2  294.48   18.48
  -1  -5   2  305.50   18.85
  -1  -5   2  311.82   18.70
   0   5  -2   -0.12    0.31
   0   5  -2    0.05    0.18
   0  -5   2   -0.26    0.44
   0  -5   2   -0.03    0.33
  -1   5  -2   72.67    4.91
  -1   5  -2   70.06    4.44
   1  -5   2   74.43    5.39
   1  -5   2   66.62    4.42
  -2   5  -2  135.57    8.11
  -2   5  -2  131.73    8.18
  -2   5  -2  136.09    8.75
   2  -5   2  134.79    8.11
   2  -5   2  138.16    9.29
  -3   5  -2   33.04    2.80
   3  -5   2   34.52    3.30
  -4   5  -2  215.38   13.63
   4  -5   2  216.96   14.35
  -5   5  -2   91.22    6.42
   5  -5   2   92.54    7.14
  -6   5  -2   17.29    2.12
   6  -5   2   19.29    2.67
  -7   5  -2  179.87   12.00
   7  -5   2  185.87   12.96
  -8   5  -2   24.71    3.97
   8  -5   2   27.63    1.84
   8  -5   2   26.37    3.58
  -9   5  -2   42.81    4.19
   9  -5   2   47.91    3.13
   9  -5   2   51.32    5.11
 -10   5  -2   74.94    6.30
  10  -5   2   83.56    5.27
  10  -5   2   77.64    7.25
 -11   5  -2    6.53    1.80
  11  -5   2    4.37    0.83
  11  -5   2    3.42    1.80
 -12   5  -2   11.03    2.21
  12  -5   2   13.84    1.44
  12  -5   2   12.55    3.24
 -13   5  -2   69.40    8.76
  13  -5   2   70.88    5.31
 -14   5  -2   -1.05    1.14
  14  -5   2   -0.19    1.73
  12   4  -2    4.73    1.55
 -12  -4   2    2.70    1.66
  11   4  -2    4.56    1.45
 -11  -4   2    3.14    1.75
  10   4  -2   55.60    5.02
 -10  -4   2   48.83    4.68
   9   4  -2    8.17    1.61
  -9  -4   2    8.76    1.86
   8   4  -2   50.19    4.07
  -8  -4   2   46.35    4.15
   7   4  -2  113.40    7.33
  -7  -4   2   92.70    7.70
   6   4  -2   10.67    1.62
  -6  -4   2   10.76    1.61
   5   4  -2   19.74    1.92
  -5  -4   2   17.46    1.96
   4   4  -2  124.26    8.03
  -4  -4   2  122.79    8.07
   3   4  -2    0.22    0.26
   3   4  -2    1.00    0.41
  -3  -4   2    0.06    0.40
  -3  -4   2    0.22    0.33
   2   4  -2  258.83   15.84
   2   4  -2  256.47   16.59
  -2  -4   2  259.50   15.92
  -2  -4   2  266.20   15.87
   1   4  -2  182.15   10.83
   1   4  -2  152.77   10.94
   1   4  -2  173.11   10.68
  -1  -4   2  177.85   10.98
  -1  -4   2  185.11   10.85
   0   4  -2   29.33    2.28
   0   4  -2   29.47    2.05
   0  -4   2   25.75    2.00
   0  -4   2   33.08    2.33
   0  -4   2   28.02    2.53
  -1   4  -2  100.89    6.59
  -1   4  -2  101.69    6.21
   1  -4   2   99.91    6.96
   1  -4   2  103.26    6.28
  -2   4  -2  195.76   12.42
  -2   4  -2  212.46   11.90
   2  -4   2  192.20   11.88
  -3   4  -2   20.65    1.92
   3  -4   2   21.13    2.33
  -4   4  -2  302.95   18.52
   4  -4   2  299.66   19.16
  -5   4  -2   13.59    1.73
   5  -4   2   13.67    2.06
  -6   4  -2   24.12    2.49
   6  -4   2   29.84    1.83
   6  -4   2   23.27    2.88
   6  -4   2   24.21    1.67
  -7   4  -2  125.30    8.90
   7  -4   2  142.03    8.25
   7  -4   2  125.29    9.62
   7  -4   2  132.55    8.01
  -8   4  -2    0.95    0.81
   8  -4   2    0.07    0.92
   8  -4   2    0.12    0.27
  -9   4  -2   45.64    4.59
   9  -4   2   48.59    3.34
   9  -4   2   41.13    4.75
 -10   4  -2  103.96    7.73
  10  -4   2  108.03    6.67
  10  -4   2   96.25    8.32
 -11   4  -2    2.06    1.28
  11  -4   2    1.58    0.57
  11  -4   2    2.95    1.70
 -12   4  -2   32.83    3.76
  12  -4   2   31.26    4.15
 -13   4  -2    4.94    1.58
  13  -4   2    2.92    1.81
 -14   4  -2   -0.47    1.14
  14  -4   2    0.52    1.77
  14  -4   2   -0.81    0.73
 -15   4  -2   32.82    4.41
  13   3  -2   31.64    3.54
  12   3  -2    7.24    1.77
 -11  -3   2    9.54    2.04
  10   3  -2   42.66    3.80
 -10  -3   2   39.30    4.04
   9   3  -2    0.36    0.67
  -9  -3   2    0.33    0.88
   8   3  -2  113.99    7.87
   7   3  -2   87.29    5.96
  -7  -3   2   79.06    5.95
   6   3  -2   25.69    2.36
  -6  -3   2   25.35    2.39
   5   3  -2  115.94    7.64
  -5  -3   2  116.39    7.65
   4   3  -2  185.29   11.74
  -4  -3   2  183.44   11.74
  -4  -3   2  194.49   11.25
   3   3  -2    0.50    0.32
   3   3  -2    0.27    0.20
  -3  -3   2   -0.08    0.28
  -3  -3   2    0.05    0.42
   2   3  -2  263.14   16.35
   2   3  -2  256.83   16.53
  -2  -3   2  289.08   16.38
   1   3  -2   82.41    6.06
   1   3  -2   93.34    5.84
  -1  -3   2   96.97    5.96
  -1  -3   2   98.54    6.12
   0   3  -2   17.64    1.79
   0   3  -2   19.53    1.44
   0   3  -2   19.68    1.60
   0  -3   2   19.93    1.85
   0  -3   2   20.45    1.62
   0  -3   2   20.05    1.44
  -1   3  -2  228.44   13.54
  -1   3  -2  226.83   13.85
   1  -3   2  228.74   14.22
   1  -3   2  225.55   13.53
  -2   3  -2   32.68    1.91
  -2   3  -2   28.03    2.28
   2  -3   2   29.72    1.87
   2  -3   2   28.45    2.64
  -3   3  -2  189.11   12.34
   3  -3   2  201.91   12.95
  -4   3  -2  474.50   28.18
   4  -3   2  460.40   28.73
  -5   3  -2    6.63    1.20
   5  -3   2    6.35    0.56
   5  -3   2    7.42    1.55
   5  -3   2    7.21    0.68
  -6   3  -2  102.40    6.75
   6  -3   2   95.04    5.97
   6  -3   2   86.47    7.09
   6  -3   2  103.89    6.17
  -7   3  -2  127.51    9.03
   7  -3   2  138.99    9.76
   7  -3   2  140.18    8.35
  -8   3  -2    0.58    0.75
   8  -3   2    0.86    0.38
   8  -3   2    1.06    1.10
  -9   3  -2   52.33    4.53
   9  -3   2   49.57    3.54
   9  -3   2   51.72    4.89
 -10   3  -2   44.26    4.15
  10  -3   2   46.20    3.33
  10  -3   2   43.67    4.70
 -11   3  -2    8.90    1.96
  11  -3   2   11.80    1.38
  11  -3   2   10.48    2.39
 -12   3  -2   54.39    5.08
  12  -3   2   45.55    5.21
  12  -3   2   54.84    3.97
 -13   3  -2   13.43    2.64
  13  -3   2   14.92    3.12
  13  -3   2   15.28    1.83
 -14   3  -2    3.06    1.65
  14  -3   2    3.25    1.02
  14  -3   2    3.72    2.05
 -15   3  -2    3.34    1.72
  15  -3   2    4.11    2.31
  13   2  -2   24.14    2.91
 -13  -2   2   18.15    3.24
  12   2  -2   -0.55    0.75
 -12  -2   2   -0.24    1.18
  11   2  -2   51.28    4.30
 -11  -2   2   44.52    4.57
  10   2  -2   59.17    4.55
 -10  -2   2   49.37    3.97
 -10  -2   2   54.37    4.82
   9   2  -2    3.63    1.02
  -9  -2   2    1.70    0.79
  -9  -2   2    0.56    0.83
   8   2  -2   75.53    5.51
  -8  -2   2   77.48    5.64
  -8  -2   2   73.91    5.16
   7   2  -2   56.32    4.08
  -7  -2   2   52.13    3.71
  -7  -2   2   47.68    4.01
   6   2  -2    1.53    0.63
  -6  -2   2    1.91    0.73
  -6  -2   2    1.85    0.68
  -6  -2   2    1.51    0.55
   5   2  -2   54.24    3.87
  -5  -2   2   49.78    3.81
  -5  -2   2   55.77    3.57
  -5  -2   2   53.22    3.61
   4   2  -2   20.96    1.90
  -4  -2   2   22.22    1.99
  -4  -2   2   26.45    1.86
  -4  -2   2   23.85    1.75
   3   2  -2  136.02    8.64
  -3  -2   2  149.55    8.59
  -3  -2   2  129.16    8.62
  -3  -2   2  137.91    8.44
   2   2  -2  326.13   20.83
   2   2  -2  358.30   20.87
  -2  -2   2  333.07   20.84
  -2  -2   2  375.94   20.95
   1   2  -2  112.58    7.22
   1   2  -2  115.28    7.01
   1   2  -2  105.36    7.06
  -1  -2   2  116.80    7.24
  -1  -2   2  115.57    7.05
  -1  -2   2  116.11    7.01
   0   2  -2   48.22    3.13
   0   2  -2   47.12    3.01
   0   2  -2   50.09    3.14
   0   2  -2   45.65    3.57
   0  -2   2   51.05    3.15
   0  -2   2   45.20    3.01
   0  -2   2   41.62    3.33
  -1   2  -2    8.93    0.86
  -1   2  -2    7.76    0.77
  -1   2  -2    6.07    0.95
  -1   2  -2    9.16    0.65
   1  -2   2    8.28    0.83
   1  -2   2    7.43    0.62
   1  -2   2    7.79    1.10
  -2   2  -2    1.43    0.44
  -2   2  -2    1.31    0.58
  -2   2  -2    1.97    0.28
   2  -2   2    1.78    0.21
   2  -2   2    2.12    0.71
  -3   2  -2  292.91   16.94
  -3   2  -2  259.05   16.53
   3  -2   2  281.19   16.48
   3  -2   2  283.66   17.36
  -4   2  -2  182.91   11.13
   4  -2   2  170.95   11.51
   4  -2   2  168.33   10.58
   4  -2   2  188.52   10.69
  -5   2  -2   33.97    2.68
   5  -2   2   32.98    2.29
   5  -2   2   30.64    2.99
   5  -2   2   30.86    2.13
  -6   2  -2  207.83   13.31
  -6   2  -2  208.96   12.77
   6  -2   2  204.90   13.79
   6  -2   2  244.96   13.20
   6  -2   2  191.98   12.72
  -7   2  -2   98.04    6.63
   7  -2   2   99.68    7.14
   7  -2   2   88.00    5.96
  -8   2  -2    0.44    0.70
   8  -2   2   -0.44    0.68
   8  -2   2    0.95    0.41
  -9   2  -2   88.79    6.62
   9  -2   2   91.91    5.92
   9  -2   2   86.34    7.04
 -10   2  -2   26.72    3.16
  10  -2   2   27.60    2.34
  10  -2   2   28.13    3.44
 -11   2  -2   68.82    5.80
  11  -2   2   70.80    4.92
  11  -2   2   65.66    6.06
 -12   2  -2   52.32    4.86
  12  -2   2   48.90    5.14
  12  -2   2   49.56    3.88
 -13   2  -2    6.29    1.82
  13  -2   2    3.24    0.99
  13  -2   2    2.06    1.77
 -14   2  -2   14.60    2.83
  14  -2   2   17.07    3.05
  14  -2   2   16.76    2.07
 -15   2  -2   28.86    3.92
  15  -2   2   20.92    3.65
  13   1  -2   38.09    3.78
  12   1  -2    0.48    0.85
 -12  -1   2   -0.05    1.07
  11   1  -2   44.53    3.96
 -11  -1   2   44.50    4.46
 -11  -1   2   45.88    5.52
  10   1  -2   47.74    3.84
 -10  -1   2   38.01    4.00
   9   1  -2   14.81    1.83
   9   1  -2   11.66    2.50
  -9  -1   2   13.74    2.03
  -9  -1   2   12.22    2.57
   8   1  -2   68.56    4.88
   8   1  -2   60.02    4.87
  -8  -1   2   76.97    5.31
  -8  -1   2   65.96    5.13
   7   1  -2   51.71    3.85
   7   1  -2   52.08    3.97
  -7  -1   2   56.66    4.17
  -7  -1   2   50.54    4.03
   6   1  -2   55.25    3.75
   6   1  -2   50.02    3.79
  -6  -1   2   53.79    3.92
  -6  -1   2   51.76    3.75
  -6  -1   2   48.56    3.77
   5   1  -2  105.16    6.87
   5   1  -2  107.32    6.75
  -5  -1   2  102.19    6.82
  -5  -1   2  106.27    6.90
  -5  -1   2  105.82    6.80
   4   1  -2   18.60    1.59
  -4  -1   2   16.97    1.56
  -4  -1   2   17.13    1.62
  -4  -1   2   18.34    1.61
   3   1  -2   60.44    4.04
  -3  -1   2   60.79    4.00
  -3  -1   2   61.73    4.06
  -3  -1   2   60.27    3.97
   2   1  -2  111.57    7.29
   2   1  -2  113.29    7.19
   2   1  -2  121.21    7.27
  -2  -1   2  122.23    7.35
  -2  -1   2  123.67    7.23
  -2  -1   2  111.33    7.20
   1   1  -2   51.01    3.55
   1   1  -2   55.65    3.41
  -1  -1   2   55.50    3.63
  -1  -1   2   53.43    3.40
  -1  -1   2   48.79    3.35
   0   1  -2  516.03   30.75
   0  -1   2  514.09   30.77
  -1   1  -2  323.08   18.70
   1  -1   2  304.12   19.02
  -2   1  -2    8.98    0.93
  -2   1  -2    9.27    0.71
  -2   1  -2    7.27    1.06
   2  -1   2    7.93    1.08
   2  -1   2    8.18    0.85
  -3   1  -2   90.99    5.38
  -3   1  -2   73.98    5.60
   3  -1   2   82.49    5.07
   3  -1   2   79.72    5.63
   3  -1   2   79.83    5.00
   3  -1   2   88.61    5.36
  -4   1  -2   65.74    4.39
   4  -1   2   63.31    4.69
   4  -1   2   64.18    4.02
  -5   1  -2  260.72   15.97
  -5   1  -2  263.63   15.59
   5  -1   2  266.96   15.76
   5  -1   2  252.70   16.32
   5  -1   2  255.56   15.57
  -6   1  -2  396.75   25.39
   6  -1   2  429.70   25.02
   6  -1   2  431.09   25.89
  -7   1  -2   82.57    5.59
   7  -1   2   73.03    5.02
   7  -1   2   77.60    5.87
  -8   1  -2   14.65    1.92
   8  -1   2   13.64    1.35
   8  -1   2   13.74    2.05
  -9   1  -2  137.69    9.45
   9  -1   2  142.64    9.87
   9  -1   2  135.95    8.86
 -10   1  -2    9.01    1.87
  10  -1   2   10.33    1.36
  10  -1   2   11.40    2.26
 -11   1  -2   21.35    2.87
  11  -1   2   19.01    2.01
  11  -1   2   20.01    2.85
 -12   1  -2   49.60    4.51
  12  -1   2   41.49    4.49
  12  -1   2   43.05    3.61
 -13   1  -2   -1.05    0.99
  13  -1   2    0.00    0.68
  13  -1   2   -1.58    1.22
 -14   1  -2   33.64    4.09
  14  -1   2   22.91    3.63
  14  -1   2   28.18    2.83
 -15   1  -2   33.80    4.43
  15  -1   2   34.36    3.38
 -14   0   2    8.05    2.06
  13   0  -2    9.10    1.80
 -13   0   2    9.44    2.29
  12   0  -2    8.71    2.16
  12   0  -2   12.14    1.92
 -12   0   2    9.48    2.28
 -12   0   2    9.41    3.01
  11   0  -2   52.12    4.25
  11   0  -2   45.44    4.42
 -11   0   2   53.66    4.85
  10   0  -2    7.34    1.46
  10   0  -2    5.01    1.56
 -10   0   2    5.98    1.50
   9   0  -2   66.27    5.09
   9   0  -2   71.31    5.43
  -9   0   2   70.39    5.44
   8   0  -2  138.63    9.10
   8   0  -2  138.78    9.35
  -8   0   2  138.01    9.28
   7   0  -2   15.09    1.90
   7   0  -2   16.01    1.68
  -7   0   2   15.66    1.80
   6   0  -2   65.68    4.43
   6   0  -2   63.58    4.59
  -6   0   2   58.98    4.39
   5   0  -2  157.83   10.19
   5   0  -2  164.70   10.06
  -5   0   2  157.04   10.23
  -5   0   2  162.31   10.02
   4   0  -2    7.27    1.00
   4   0  -2    8.24    0.91
  -4   0   2    7.34    0.89
  -4   0   2    6.21    0.95
   3   0  -2   77.75    4.88
   3   0  -2   77.07    4.78
   3   0  -2   66.33    4.60
  -3   0   2   80.01    5.09
  -3   0   2   69.92    4.66
   2   0  -2  275.86   15.38
   2   0  -2  257.36   15.43
   2   0  -2  241.57   15.21
  -2   0   2  253.26   15.43
  -2   0   2  260.03   15.37
  -2   0   2  261.11   15.56
  -2   0   2  243.69   15.24
   1   0  -2    7.18    0.64
   1   0  -2    6.14    0.58
   1   0  -2    6.32    0.76
  -1   0   2    5.92    0.80
  -1   0   2    6.41    0.73
  -1   0   2    5.32    0.56
  -1   0   2    7.16    0.66
   0   0  -2  779.56   47.09
   0   0   2  810.59   47.11
  -1   0  -2   44.00    2.99
  -1   0  -2   45.29    3.28
  -1   0  -2   55.07    3.02
   1   0   2   43.86    3.31
   1   0   2   48.28    3.01
  -2   0  -2  175.73    9.90
  -2   0  -2  149.88   10.33
  -2   0  -2  154.55    9.80
   2   0   2  160.46   10.19
   2   0   2  169.02   10.02
   2   0   2  168.11    9.80
  -3   0  -2  547.74   32.83
  -3   0  -2  539.28   32.75
  -3   0  -2  558.91   33.16
   3   0   2  522.59   33.09
   3   0   2  596.04   32.86
  -4   0  -2  244.09   13.94
  -4   0  -2  230.87   13.67
  -4   0  -2  211.07   14.16
   4   0   2  226.60   13.67
   4   0   2  230.49   13.82
   4   0   2  223.17   14.15
  -5   0  -2   64.95    5.04
   5   0   2   55.41    4.21
   5   0   2   53.79    3.70
  -6   0  -2  381.25   23.05
   6   0   2  383.04   22.93
   6   0   2  372.09   23.28
  -7   0  -2   43.87    3.44
   7   0   2   43.37    3.58
   7   0   2   39.02    2.99
  -8   0  -2   63.61    4.76
   8   0   2   59.65    4.25
   8   0   2   59.86    4.85
  -9   0  -2  134.15    8.99
   9   0   2  131.83    9.11
   9   0   2  125.11    8.42
 -10   0  -2    0.12    0.79
  10   0   2    0.37    0.51
  10   0   2    1.33    1.05
 -11   0  -2   25.59    3.04
  11   0   2   22.49    3.07
  11   0   2   27.76    2.50
 -12   0  -2   27.34    3.42
  12   0   2   25.84    2.59
  12   0   2   25.91    3.21
 -13   0  -2   -0.58    0.90
  13   0   2   -0.61    0.53
 -14   0  -2   16.54    3.01
  14   0   2   11.15    2.81
  14   0   2   17.42    2.26
 -15   0  -2    6.14    1.95
  15   0   2    3.00    1.17
  14  -1  -2   21.98    2.56
 -14   1   2   12.63    2.65
  13  -1  -2    0.45    0.83
  13  -1  -2   -2.08    2.00
 -13   1   2    0.47    1.25
  12  -1  -2   16.49    2.85
 -12   1   2   10.46    2.19
  11  -1  -2   70.82    6.16
  11  -1  -2   74.73    5.54
 -11   1   2   73.47    6.06
  10  -1  -2    1.88    0.91
  10  -1  -2    2.31    1.42
   9  -1  -2   68.55    5.17
   9  -1  -2   73.73    5.83
  -9   1   2   73.05    5.55
   8  -1  -2  234.85   14.83
   8  -1  -2  235.57   15.40
  -8   1   2  241.54   15.09
   7  -1  -2   -0.15    0.36
   7  -1  -2   -0.40    0.65
  -7   1   2    0.30    0.52
   6  -1  -2   61.23    4.99
   6  -1  -2   57.33    4.08
  -6   1   2   57.54    4.17
   5  -1  -2   63.16    4.38
   5  -1  -2   64.18    4.79
  -5   1   2   68.36    4.44
   4  -1  -2   34.37    2.78
   4  -1  -2   28.71    2.27
   4  -1  -2   33.73    2.41
  -4   1   2   36.58    2.43
   3  -1  -2   79.97    5.76
   3  -1  -2   99.44    5.87
   3  -1  -2   98.41    6.19
  -3   1   2   92.10    6.12
  -3   1   2   96.38    5.77
   2  -1  -2  261.49   14.99
   2  -1  -2  247.42   15.38
  -2   1   2  271.64   15.16
  -2   1   2  245.17   15.36
  -2   1   2  237.97   14.97
   1  -1  -2  214.71   13.15
  -1   1   2  214.03   13.13
  -1   1   2  221.08   13.29
   0  -1  -2  109.80    7.06
   0   1   2  113.29    6.97
   0   1   2  108.15    7.07
   0   1   2  119.95    6.69
  -1  -1  -2   69.93    4.18
  -1  -1  -2   62.26    4.43
  -1  -1  -2   74.23    4.30
   1   1   2   73.04    4.27
   1   1   2   63.01    4.44
   1   1   2   66.15    4.17
  -2  -1  -2  140.95    8.68
  -2  -1  -2  122.98    8.42
  -2  -1  -2  148.58    8.46
   2   1   2  146.47    8.46
   2   1   2  135.22    8.69
  -3  -1  -2   10.15    0.97
  -3  -1  -2    7.25    0.87
  -3  -1  -2    7.34    0.97
   3   1   2    8.04    0.74
   3   1   2    7.95    0.84
   3   1   2    7.83    0.97
   3   1   2    8.64    0.86
  -4  -1  -2    6.17    0.94
  -4  -1  -2    7.37    0.93
   4   1   2    7.52    0.99
   4   1   2    7.15    0.75
  -5  -1  -2  232.36   13.15
  -5  -1  -2  207.56   13.17
   5   1   2  210.03   13.10
   5   1   2  192.60   12.76
  -6  -1  -2  218.28   13.15
   6   1   2  197.49   12.81
   6   1   2  212.35   13.17
  -7  -1  -2    0.84    0.58
   7   1   2    1.10    0.45
   7   1   2    1.13    0.64
  -8  -1  -2   86.96    6.54
   8   1   2   91.73    6.82
   8   1   2   96.46    6.21
  -9  -1  -2   71.40    5.52
   9   1   2   70.90    5.00
   9   1   2   67.69    5.33
 -10  -1  -2    4.24    1.35
  10   1   2    2.79    1.14
 -11  -1  -2   32.47    3.49
  11   1   2   28.29    2.80
  11   1   2   31.23    3.28
 -12  -1  -2   12.46    2.40
  12   1   2   11.26    1.70
  12   1   2    9.86    2.07
 -13  -1  -2   11.49    2.48
  13   1   2    3.54    1.76
  13   1   2    7.81    1.57
 -14  -1  -2   32.45    4.09
  14   1   2   32.30    3.32
 -15  -1  -2   -0.34    1.46
  15   1   2    4.40    1.31
  14  -2  -2   25.18    2.79
 -14   2   2   16.01    3.07
 -13   2   2   -1.90    1.00
  12  -2  -2   25.34    3.76
  12  -2  -2   34.83    3.18
 -12   2   2   33.70    3.79
  11  -2  -2   38.46    3.41
  11  -2  -2   38.04    4.40
 -11   2   2   40.98    4.01
  10  -2  -2    0.77    0.72
  10  -2  -2   -0.91    1.21
 -10   2   2    0.93    0.96
   9  -2  -2   97.20    7.31
   9  -2  -2   97.06    6.45
  -9   2   2   84.55    6.70
   8  -2  -2   83.44    5.94
   8  -2  -2   88.65    6.77
  -8   2   2   91.09    6.31
   7  -2  -2    1.29    0.54
   7  -2  -2    2.48    1.03
  -7   2   2    1.70    0.72
   6  -2  -2  291.04   18.46
   6  -2  -2  258.28   17.66
  -6   2   2  327.84   18.04
   5  -2  -2   91.56    6.19
  -5   2   2  102.72    6.33
   4  -2  -2  100.42    6.67
   4  -2  -2   90.33    6.02
   4  -2  -2   87.61    5.97
  -4   2   2  105.24    6.12
   3  -2  -2  125.66    8.40
   3  -2  -2  134.20    7.92
   3  -2  -2  120.80    7.90
  -3   2   2  141.64    7.91
  -3   2   2  120.95    7.89
   2  -2  -2  286.49   16.47
   2  -2  -2  285.79   17.03
  -2   2   2  268.56   16.56
  -2   2   2  284.39   16.49
  -2   2   2  262.53   16.95
   1  -2  -2  269.68   14.95
   1  -2  -2  254.88   15.45
  -1   2   2  234.28   15.39
   0  -2  -2  136.11    8.12
   0  -2  -2  135.48    7.76
   0   2   2  112.26    7.75
   0   2   2  138.15    8.12
  -1  -2  -2   23.31    1.87
  -1  -2  -2   28.26    1.85
  -1  -2  -2   23.15    1.66
   1   2   2   23.60    1.90
   1   2   2   23.77    1.68
   1   2   2   23.62    1.80
   1   2   2   28.55    1.81
  -2  -2  -2  977.72   58.40
   2   2   2 1000.00   58.44
  -3  -2  -2  288.20   17.14
  -3  -2  -2  272.81   17.13
  -3  -2  -2  282.03   17.05
   3   2   2  275.37   16.97
   3   2   2  270.16   17.13
   3   2   2  325.03   17.36
   3   2   2  273.35   17.16
  -4  -2  -2    7.00    0.91
  -4  -2  -2    7.31    0.89
   4   2   2    6.09    0.81
   4   2   2    5.54    0.69
  -5  -2  -2  112.85    7.04
  -5  -2  -2  102.11    6.95
   5   2   2  105.72    6.83
   5   2   2  109.71    6.93
  -6  -2  -2  117.51    7.59
  -6  -2  -2  109.17    7.47
   6   2   2  113.92    7.40
   6   2   2  116.85    7.36
  -7  -2  -2    9.42    1.55
   7   2   2    9.32    1.28
   7   2   2   13.45    1.33
  -8  -2  -2   92.29    6.50
   8   2   2   82.73    6.06
   8   2   2   94.85    6.25
  -9  -2  -2   23.28    2.89
   9   2   2   18.29    1.97
   9   2   2   18.83    2.31
 -10  -2  -2   21.17    2.74
  10   2   2   24.51    2.38
  10   2   2   22.36    2.51
 -11  -2  -2   29.09    3.42
  11   2   2   30.24    3.06
  11   2   2   31.39    2.96
 -12  -2  -2    5.37    1.61
  12   2   2    6.30    1.40
  12   2   2    5.51    1.53
  13   2   2   17.09    2.25
 -14  -2  -2   16.52    3.09
  14   2   2   26.79    2.88
  15   2   2   -0.48    0.67
  14  -3  -2   11.56    2.65
 -14   3   2   12.60    2.77
  13  -3  -2    2.85    1.06
  13  -3  -2    1.11    1.78
 -13   3   2    5.70    1.74
  12  -3  -2   41.85    4.91
  12  -3  -2   48.00    3.94
 -12   3   2   49.24    4.68
  11  -3  -2   31.92    2.87
  11  -3  -2   31.09    3.93
 -11   3   2   28.42    3.44
  10  -3  -2   10.05    1.42
  10  -3  -2   10.30    2.60
 -10   3   2    7.27    1.68
   9  -3  -2  109.28    7.49
   9  -3  -2  122.12    8.71
  -9   3   2  108.74    7.90
   8  -3  -2   71.13    4.94
   8  -3  -2   69.38    5.91
  -8   3   2   72.29    5.32
   7  -3  -2    4.82    0.91
   7  -3  -2    5.32    1.50
  -7   3   2    6.63    1.26
   6  -3  -2   95.94    6.36
   6  -3  -2   97.16    7.26
  -6   3   2  103.66    6.64
   5  -3  -2   15.99    2.15
   5  -3  -2   19.23    1.60
  -5   3   2   21.10    1.79
   4  -3  -2  103.44    5.94
   4  -3  -2   91.81    6.98
   4  -3  -2   86.76    5.89
  -4   3   2   91.09    5.98
   3  -3  -2  410.72   25.42
   3  -3  -2  405.14   24.69
  -3   3   2  399.90   24.69
  -3   3   2  447.01   24.79
   2  -3  -2  177.55   11.98
   2  -3  -2  183.74   11.37
   2  -3  -2  208.36   11.48
  -2   3   2  184.41   11.43
  -2   3   2  195.09   11.44
   1  -3  -2  107.43    5.94
   1  -3  -2   88.84    6.26
  -1   3   2   80.09    6.19
  -1   3   2  100.71    5.99
  -1   3   2   98.31    5.79
  -1   3   2   93.01    5.80
   0  -3  -2  376.16   21.90
   0  -3  -2  375.14   21.52
   0   3   2  335.71   21.51
   0   3   2  365.70   21.90
  -1  -3  -2  271.23   16.19
  -1  -3  -2  256.22   16.00
  -1  -3  -2  282.97   16.14
   1   3   2  246.46   16.01
   1   3   2  268.74   16.22
   1   3   2  283.70   16.11
  -2  -3  -2  615.79   35.79
   2   3   2  576.26   35.67
   2   3   2  606.76   35.69
   2   3   2  573.62   35.76
   2   3   2  638.80   35.81
  -3  -3  -2   72.00    4.81
  -3  -3  -2   72.27    4.68
  -3  -3  -2   69.27    4.59
   3   3   2   70.87    4.62
   3   3   2   72.01    4.54
   3   3   2   73.65    4.67
  -4  -3  -2  235.46   14.70
   4   3   2  252.20   14.77
  -5  -3  -2  189.68   11.45
  -5  -3  -2  180.19   11.66
   5   3   2  187.47   11.57
   5   3   2  189.41   11.43
  -6  -3  -2   77.17    5.79
  -6  -3  -2   81.29    5.59
   6   3   2   82.25    5.43
   6   3   2   80.05    5.21
  -7  -3  -2   30.43    2.86
  -7  -3  -2   32.11    2.67
   7   3   2   32.62    2.50
   7   3   2   34.48    2.71
  -8  -3  -2  158.82   10.64
  -8  -3  -2  161.78   11.10
   8   3   2  177.12   10.88
   8   3   2  175.76   10.64
  -9  -3  -2    5.98    1.57
   9   3   2    7.91    1.45
   9   3   2    7.69    1.29
 -10  -3  -2   41.60    4.08
  10   3   2   43.13    3.50
  10   3   2   46.21    3.73
 -11  -3  -2   30.77    3.76
  11   3   2   33.94    3.19
  11   3   2   34.84    3.03
 -12  -3  -2   -0.94    0.95
  12   3   2    0.85    0.74
 -13  -3  -2   26.76    3.81
  13   3   2   28.51    3.04
 -14  -3  -2   27.04    4.21
  14   3   2   30.28    3.31
  14  -4  -2   24.99    2.67
 -14   4   2   16.87    3.75
  13  -4  -2    4.91    2.18
  13  -4  -2    5.41    1.31
 -13   4   2    3.21    1.45
  12  -4  -2   33.98    4.40
  12  -4  -2   38.30    3.33
 -12   4   2   36.45    4.02
  11  -4  -2    6.74    2.01
 -11   4   2    4.44    1.45
  10  -4  -2   50.12    3.72
  10  -4  -2   44.25    4.78
 -10   4   2   45.56    4.27
   9  -4  -2   71.57    6.95
   9  -4  -2   67.98    4.98
  -9   4   2   75.22    5.55
   8  -4  -2   58.95    4.20
   8  -4  -2   63.18    5.47
  -8   4   2   56.38    4.61
   7  -4  -2   53.70    3.78
   7  -4  -2   50.79    4.80
  -7   4   2   56.18    4.19
   6  -4  -2  160.53   11.60
   6  -4  -2  176.49   10.60
  -6   4   2  174.70   10.89
   5  -4  -2    0.19    0.75
   5  -4  -2    0.71    0.34
  -5   4   2    0.41    0.47
   4  -4  -2  209.34   14.32
   4  -4  -2  236.65   13.45
  -4   4   2  218.11   13.60
   3  -4  -2  110.14    6.92
   3  -4  -2  109.38    7.71
   3  -4  -2  123.90    6.94
  -3   4   2  101.33    6.84
  -3   4   2  112.90    7.05
   2  -4  -2   44.68    2.97
   2  -4  -2   51.22    3.05
   2  -4  -2   43.04    3.60
  -2   4   2   40.43    3.01
  -2   4   2   47.38    2.96
  -2   4   2   42.94    2.94
   1  -4  -2  135.59    7.87
   1  -4  -2  120.22    8.28
  -1   4   2  128.74    7.77
  -1   4   2  122.29    7.76
  -1   4   2  125.93    7.80
   0  -4  -2  248.11   14.14
   0  -4  -2  238.85   14.03
   0  -4  -2  234.31   14.43
   0   4   2  221.80   14.42
   0   4   2  245.27   14.08
   0   4   2  211.14   14.02
  -1  -4  -2  181.58   11.06
  -1  -4  -2  174.39   10.96
  -1  -4  -2  186.11   11.20
   1   4   2  192.87   11.08
   1   4   2  181.04   11.24
   1   4   2  192.26   10.95
   1   4   2  154.57   11.12
  -2  -4  -2  339.49   19.81
  -2  -4  -2  332.51   19.92
  -2  -4  -2  323.49   19.80
   2   4   2  324.51   19.94
   2   4   2  326.74   19.75
   2   4   2  332.00   19.91
   3   4   2   20.64    1.66
   3   4   2   22.61    1.75
   3   4   2   21.26    1.69
  -4  -4  -2  306.58   19.18
   4   4   2  320.55   18.87
   4   4   2  327.93   19.15
   4   4   2  309.36   18.94
  -5  -4  -2  136.05    8.45
   5   4   2  133.53    7.91
   5   4   2  134.99    7.95
   5   4   2  114.96    8.23
  -6  -4  -2   38.51    3.18
   6   4   2   39.26    2.73
   6   4   2   39.69    3.05
  -7  -4  -2   65.44    5.29
   7   4   2   72.40    5.19
   7   4   2   81.66    5.10
  -8  -4  -2  124.01    8.83
   8   4   2  133.77    9.00
  -9  -4  -2   12.63    2.20
   9   4   2   13.00    1.72
 -10  -4  -2    9.86    2.06
  10   4   2   13.92    1.84
 -11  -4  -2   16.53    2.81
  11   4   2   18.73    2.28
  12   4   2    7.83    1.97
 -13  -4  -2   12.39    2.53
 -14  -4  -2    4.58    2.11
  14   4   2    6.15    1.73
  14  -5  -2   -0.32    0.82
  14  -5  -2    0.79    1.89
 -14   5   2   -0.50    1.19
  13  -5  -2   12.97    4.18
 -13   5   2    8.43    2.01
  12  -5  -2   32.00    4.26
  12  -5  -2   31.30    2.87
 -12   5   2   29.83    3.52
  11  -5  -2    0.28    1.33
  11  -5  -2   -0.17    0.53
 -11   5   2   -1.04    0.87
  10  -5  -2   66.97    6.44
  10  -5  -2   73.08    5.03
   9  -5  -2   94.44    7.76
   9  -5  -2   91.57    6.23
  -9   5   2   93.71    6.86
   8  -5  -2   18.42    3.26
   8  -5  -2   18.20    1.71
  -8   5   2   17.10    2.47
   7  -5  -2   18.44    2.65
   7  -5  -2   16.69    1.59
  -7   5   2   20.60    2.20
   6  -5  -2   36.46    3.85
  -6   5   2   39.06    3.18
   5  -5  -2    4.77    1.39
   5  -5  -2    4.88    0.71
  -5   5   2    5.88    1.08
   4  -5  -2  562.56   29.80
   4  -5  -2  490.47   30.86
  -4   5   2  458.36   29.66
  -4   5   2  489.31   30.01
   3  -5  -2    1.06    0.76
   3  -5  -2    1.17    0.37
  -3   5   2    1.43    0.35
  -3   5   2    1.40    0.52
   2  -5  -2    3.58    1.03
   2  -5  -2    4.14    0.66
  -2   5   2    3.28    0.51
  -2   5   2    2.97    0.64
   1  -5  -2  251.12   13.60
   1  -5  -2  200.57   14.04
   1  -5  -2  220.56   13.55
  -1   5   2  220.49   13.46
  -1   5   2  220.99   13.57
   0  -5  -2  128.44    8.51
   0  -5  -2  131.28    8.08
   0  -5  -2  130.37    8.13
   0   5   2  126.49    8.07
   0   5   2  132.83    8.09
  -1  -5  -2  137.72    8.84
  -1  -5  -2  143.60    9.02
  -1  -5  -2  140.18    8.76
   1   5   2  139.38    9.08
   1   5   2  143.77    8.69
  -2  -5  -2  360.81   21.47
  -2  -5  -2  356.04   21.57
  -2  -5  -2  339.96   21.43
   2   5   2  357.14   21.58
   2   5   2  366.21   21.38
  -3  -5  -2   25.80    2.19
   3   5   2   28.68    2.13
   3   5   2   25.70    2.09
   3   5   2   27.00    2.18
  -4  -5  -2  261.84   16.37
   4   5   2  272.15   16.31
   4   5   2  282.62   16.05
   4   5   2  249.53   16.01
  -5  -5  -2  173.50   11.04
   5   5   2  173.57   10.94
  -6  -5  -2   10.11    1.58
   6   5   2   10.47    1.26
  -7  -5  -2   69.69    5.51
   7   5   2   81.63    5.46
  -8  -5  -2   34.37    3.45
   8   5   2   37.94    3.20
  -9  -5  -2   22.27    2.91
   9   5   2   28.18    2.66
 -10  -5  -2   59.94    5.36
  10   5   2   63.68    4.92
 -11  -5  -2   11.28    2.29
  11   5   2   18.61    2.29
 -12  -5  -2    5.17    2.46
  12   5   2    6.60    1.56
 -13  -5  -2   16.67    3.15
  13   5   2   25.66    2.97
  14   5   2   -0.31    0.87
  13  -6  -2   22.05    3.74
 -13   6   2   29.85    3.42
  12  -6  -2   22.38    3.65
  12  -6  -2   20.41    2.21
 -12   6   2   18.46    2.87
  11  -6  -2   12.80    2.90
  11  -6  -2   11.91    1.60
 -11   6   2   13.52    2.37
  10  -6  -2   75.19    5.44
  10  -6  -2   77.03    7.19
 -10   6   2   88.08    6.36
   9  -6  -2   71.88    6.74
   9  -6  -2   73.59    5.12
  -9   6   2   79.48    5.92
   8  -6  -2    2.17    1.52
   8  -6  -2    0.41    0.48
  -8   6   2    0.26    0.80
   7  -6  -2   78.30    7.90
   7  -6  -2   72.64    4.83
  -7   6   2   69.24    5.36
   6  -6  -2   25.75    1.97
   6  -6  -2   24.69    3.12
  -6   6   2   23.25    2.43
   5  -6  -2   77.43    4.96
   5  -6  -2   73.93    6.20
  -5   6   2   77.68    5.40
   4  -6  -2   57.53    3.59
   4  -6  -2   53.24    4.70
  -4   6   2   51.23    3.44
  -4   6   2   49.92    3.86
   3  -6  -2   24.43    2.78
   3  -6  -2   27.02    2.03
  -3   6   2   24.80    1.85
  -3   6   2   27.56    2.24
   2  -6  -2  190.99   11.41
   2  -6  -2  184.15   12.25
  -2   6   2  183.62   11.57
  -2   6   2  182.14   11.24
   1  -6  -2  177.45   11.65
   1  -6  -2  220.07   11.85
   1  -6  -2  179.56   12.30
  -1   6   2  187.27   11.76
  -1   6   2  185.37   11.59
   0  -6  -2    3.08    0.99
   0  -6  -2    2.63    0.66
   0  -6  -2    2.16    0.62
   0   6   2    3.94    0.74
   0   6   2    3.11    0.50
  -1  -6  -2  134.12    8.64
  -1  -6  -2  129.50    8.52
  -1  -6  -2  136.89    8.85
   1   6   2  141.47    8.47
  -2  -6  -2  195.98   12.18
  -2  -6  -2  194.87   12.11
   2   6   2  195.92   12.02
   2   6   2  193.81   12.38
  -3  -6  -2    9.26    1.05
  -3  -6  -2    8.26    1.19
   3   6   2    8.94    1.10
   3   6   2    7.93    1.10
   3   6   2    8.68    1.05
  -4  -6  -2  184.70   11.65
   4   6   2  194.44   11.30
   4   6   2  164.85   11.23
   4   6   2  193.10   11.58
  -5  -6  -2  113.08    7.70
   5   6   2  117.88    7.63
  -6  -6  -2   10.26    1.60
   6   6   2   10.86    1.42
  -7  -6  -2   91.69    6.80
   7   6   2  100.07    6.72
  -8  -6  -2   38.19    3.70
   8   6   2   39.93    3.38
  -9  -6  -2    4.26    1.43
   9   6   2    4.42    1.18
 -10  -6  -2   36.35    4.04
  10   6   2   45.68    3.87
 -11  -6  -2    5.72    1.94
 -12  -6  -2   14.97    2.73
 -13  -6  -2   10.48    2.68
  13   6   2    9.91    2.02
  13  -7  -2   34.00    4.71
 -13   7   2   32.43    3.65
  12  -7  -2   17.31    3.61
 -12   7   2   20.28    3.04
  11  -7  -2    7.83    2.41
 -11   7   2   10.80    2.10
  10  -7  -2   62.63    6.33
  10  -7  -2   62.08    4.48
 -10   7   2   65.88    5.37
   9  -7  -2   14.71    1.58
   9  -7  -2   16.76    3.04
   8  -7  -2   68.81    4.49
   8  -7  -2   66.98    6.21
  -8   7   2   59.03    5.10
   7  -7  -2  207.02   14.66
   7  -7  -2  209.26   12.85
  -7   7   2  210.79   13.54
   6  -7  -2  133.24   11.72
   6  -7  -2  102.16    6.83
  -6   7   2  105.66    7.47
   5  -7  -2   24.11    3.09
   5  -7  -2   25.73    1.92
  -5   7   2   28.56    2.50
  -5   7   2   19.16    2.03
   4  -7  -2   27.78    3.29
   4  -7  -2   28.60    2.16
  -4   7   2   25.49    1.93
  -4   7   2   30.62    2.61
   3  -7  -2    7.65    1.73
   3  -7  -2    7.06    0.93
  -3   7   2    6.99    1.11
  -3   7   2    6.62    0.72
   2  -7  -2  152.41   10.14
   2  -7  -2  147.38    9.14
  -2   7   2  141.74    9.01
  -2   7   2  142.32    9.35
   1  -7  -2  142.91    8.87
   1  -7  -2  135.63    9.54
  -1   7   2  142.79    8.67
  -1   7   2  137.63    8.96
   0  -7  -2   11.17    1.33
   0  -7  -2   11.85    1.29
   0  -7  -2   10.75    1.67
   0   7   2   11.64    1.14
   0   7   2   11.72    1.36
  -1  -7  -2  188.15   11.77
  -1  -7  -2  179.81   12.52
   1   7   2  197.62   11.69
  -2  -7  -2   31.65    2.61
  -2  -7  -2   32.44    2.70
   2   7   2   31.16    2.47
  -3  -7  -2    3.11    0.78
  -3  -7  -2    3.60    0.87
   3   7   2    3.42    0.77
   3   7   2    2.49    0.74
  -4  -7  -2  142.46    8.87
   4   7   2  122.06    8.44
   4   7   2  139.23    8.73
  -5  -7  -2   42.19    3.46
   5   7   2   41.03    3.32
  -6  -7  -2   32.56    3.15
   6   7   2   33.88    3.22
  -7  -7  -2   65.71    5.16
   7   7   2   66.16    4.97
  -8  -7  -2   -0.78    0.67
   8   7   2    0.57    0.71
  -9  -7  -2   14.76    2.36
   9   7   2   16.63    2.04
 -10  -7  -2   19.51    2.88
  10   7   2   24.06    2.65
 -11  -7  -2   -1.35    0.90
  11   7   2    0.20    0.80
 -12  -7  -2   14.64    2.78
 -13  -7  -2   13.37    3.22
  13   7   2   21.46    2.78
  13  -8  -2   11.93    3.45
 -13   8   2   22.07    3.40
  12  -8  -2    4.88    2.15
 -12   8   2    0.04    1.20
  11  -8  -2   21.38    2.26
  11  -8  -2   14.90    3.34
 -11   8   2   19.28    2.85
  10  -8  -2   50.36    5.60
  10  -8  -2   44.51    3.42
 -10   8   2   48.33    4.51
   9  -8  -2   18.91    1.83
   9  -8  -2   25.21    3.70
  -9   8   2   23.06    2.81
   8  -8  -2   26.37    3.83
   7  -8  -2   12.03    1.26
   7  -8  -2   13.41    2.81
  -7   8   2   10.31    1.91
   6  -8  -2   10.91    2.70
   6  -8  -2   13.67    1.32
  -6   8   2   12.13    1.91
   5  -8  -2   43.16    3.03
   5  -8  -2   56.88    5.95
  -5   8   2   36.30    2.73
  -5   8   2   46.20    3.65
   4  -8  -2   53.48    4.76
   4  -8  -2   45.93    3.30
  -4   8   2   52.14    3.93
  -4   8   2   42.31    3.06
   3  -8  -2   -0.14    0.86
   3  -8  -2    0.38    0.43
  -3   8   2    0.17    0.58
  -3   8   2    0.41    0.30
   2  -8  -2  166.75   10.13
   2  -8  -2  162.55   11.16
  -2   8   2  154.38   10.38
  -2   8   2  160.09    9.90
   1  -8  -2   11.40    1.82
   1  -8  -2   11.64    1.39
  -1   8   2   10.95    1.12
  -1   8   2   12.18    1.48
   0  -8  -2   77.07    5.99
   0  -8  -2   77.87    5.45
   0   8   2   81.55    5.53
   0   8   2   82.40    5.29
  -1  -8  -2   66.79    5.22
  -1  -8  -2   72.15    4.94
   1   8   2   71.25    4.94
   1   8   2   68.79    4.74
  -2  -8  -2   10.86    1.51
   2   8   2    9.27    1.17
  -3  -8  -2   78.67    5.50
  -3  -8  -2   79.70    5.65
   3   8   2   80.87    5.52
  -4  -8  -2  200.06   11.86
   4   8   2  171.34   11.39
   4   8   2  196.02   11.63
   4   8   2  160.47   11.21
  -5  -8  -2    4.85    1.31
   5   8   2    5.10    1.29
  -6  -8  -2  105.88    7.46
   6   8   2  105.22    7.33
  -7  -8  -2   62.30    5.26
   7   8   2   73.10    5.28
  -8  -8  -2    0.34    0.70
   8   8   2    1.11    0.75
  -9  -8  -2   34.08    3.69
   9   8   2   37.41    3.50
 -10  -8  -2   22.76    3.24
  10   8   2   29.29    2.98
 -11  -8  -2    1.34    1.57
  11   8   2    6.40    1.62
 -12  -8  -2   18.09    3.38
  12   8   2   23.96    2.95
  12  -9  -2   -0.11    2.05
 -12   9   2   -1.92    1.16
  11  -9  -2   42.53    5.61
 -11   9   2   46.42    4.51
  10  -9  -2   55.14    6.01
 -10   9   2   47.49    4.62
   9  -9  -2    0.31    1.69
   9  -9  -2   -0.97    0.66
  -9   9   2    0.84    1.03
   8  -9  -2   53.57    3.81
   8  -9  -2   64.84    6.20
  -8   9   2   56.88    4.93
   7  -9  -2   37.22    4.24
   7  -9  -2   26.86    2.22
  -7   9   2   32.28    3.27
   6  -9  -2   13.66    1.32
   6  -9  -2   18.77    3.13
  -6   9   2   14.39    2.23
   5  -9  -2   76.48    6.25
   5  -9  -2   61.35    4.12
  -5   9   2   56.79    4.10
   4  -9  -2   21.61    1.86
   4  -9  -2   26.97    3.49
  -4   9   2   24.16    2.59
  -4   9   2   19.92    1.61
  -4   9   2   24.13    1.71
   3  -9  -2   32.78    2.58
   3  -9  -2   29.52    3.59
  -3   9   2   35.89    3.12
  -3   9   2   34.40    2.40
   2  -9  -2  134.82    9.80
  -2   9   2  137.04    9.02
  -2   9   2  132.80    8.40
   1  -9  -2   11.36    2.22
  -1   9   2   11.68    1.63
   0  -9  -2  121.52    7.86
   0  -9  -2  118.46    8.49
   0   9   2  113.93    7.87
   0   9   2  118.72    7.60
  -1  -9  -2   28.83    3.05
  -1  -9  -2   32.62    2.81
   1   9   2   33.71    2.63
   1   9   2   33.10    2.83
  -2  -9  -2    0.72    0.97
  -2  -9  -2    1.22    0.84
   2   9   2    1.64    0.62
  -3  -9  -2  107.84    7.19
  -3  -9  -2  103.76    7.99
   3   9   2   99.15    6.98
  -4  -9  -2  108.82    7.22
   4   9   2   93.34    6.89
   4   9   2  104.72    7.06
  -5  -9  -2    2.67    1.08
   5   9   2    4.89    1.17
  -6  -9  -2   69.68    5.48
   6   9   2   69.14    5.29
  -7  -9  -2   18.31    2.45
   7   9   2   16.51    2.16
  -8  -9  -2   -1.14    0.79
   8   9   2   -0.21    0.48
  -9  -9  -2   23.52    3.22
   9   9   2   22.85    2.75
 -10  -9  -2    4.43    1.69
  10   9   2    3.16    1.17
 -11  -9  -2    3.35    1.71
  11   9   2    4.41    1.46
  12 -10  -2   -0.63    2.16
 -12  10   2    1.09    1.29
  11 -10  -2   43.02    5.68
 -11  10   2   41.66    4.37
  10 -10  -2   37.07    5.31
 -10  10   2   33.56    3.80
   9 -10  -2    4.51    2.33
  -9  10   2    1.64    1.28
   8 -10  -2   46.83    5.27
  -8  10   2   36.40    4.00
   7 -10  -2    9.69    2.86
  -7  10   2    5.44    1.54
   6 -10  -2   29.73    3.92
  -6  10   2   31.58    3.38
   5 -10  -2  105.15    8.28
  -5  10   2   90.28    5.84
  -5  10   2   98.54    7.13
   4 -10  -2    8.48    2.29
  -4  10   2    7.35    1.64
  -4  10   2    6.13    0.70
  -4  10   2    7.75    0.76
   3 -10  -2   73.55    6.33
  -3  10   2   71.39    5.88
  -3  10   2   68.91    4.57
   2 -10  -2   80.39    6.53
  -2  10   2   68.54    6.66
  -2  10   2   71.55    4.95
   1 -10  -2    1.82    1.27
  -1  10   2    0.74    0.46
  -1  10   2    1.12    0.74
   0 -10  -2  126.61    9.29
   0 -10  -2  134.59    8.63
   0  10   2  126.57    8.65
   0  10   2  128.18    8.31
  -1 -10  -2   75.28    5.26
  -1 -10  -2   68.57    5.59
   1  10   2   66.50    4.91
   1  10   2   71.77    5.26
  -2 -10  -2   -0.86    0.71
  -2 -10  -2   -0.94    0.58
   2  10   2    0.33    0.66
   2  10   2    0.13    0.44
  -3 -10  -2  131.50    8.78
  -3 -10  -2  129.90    8.69
   3  10   2  125.22    8.59
  -4 -10  -2   29.17    3.04
   4  10   2   29.64    2.79
   4  10   2   30.36    2.87
  -5 -10  -2   12.71    2.03
   5  10   2   13.08    1.82
  -6 -10  -2   86.25    6.57
   6  10   2   88.62    6.52
  -7 -10  -2   23.43    2.87
   7  10   2   23.88    2.69
  -8 -10  -2    1.43    1.12
  -9 -10  -2   48.96    4.42
   9  10   2   35.75    3.86
 -10 -10  -2    1.68    1.58
  10  10   2    3.16    1.40
 -11 -10  -2    2.25    1.76
  11 -11  -2   42.79    5.88
 -11  11   2   32.98    3.98
  10 -11  -2    6.02    2.89
 -10  11   2    6.76    2.04
   9 -11  -2   10.21    2.82
  -9  11   2   17.23    2.70
   8 -11  -2   58.65    6.47
  -8  11   2   53.01    5.01
   7 -11  -2    0.79    1.49
  -7  11   2    4.28    1.51
   6 -11  -2   28.87    3.99
  -6  11   2   26.15    3.23
   5 -11  -2   66.36    6.48
  -5  11   2   70.50    5.72
   4 -11  -2   -0.23    1.04
  -4  11   2    0.01    0.21
  -4  11   2   -1.15    0.84
   3 -11  -2   65.72    6.06
  -3  11   2   62.09    5.08
  -3  11   2   60.99    4.09
   2 -11  -2   52.55    5.21
  -2  11   2   50.57    4.33
  -2  11   2   52.34    4.17
  -1  11   2    3.82    0.82
  -1  11   2    2.46    1.01
   0 -11  -2   60.21    5.29
   0  11   2   58.07    4.24
   0  11   2   58.53    4.68
  -1 -11  -2   70.53    5.16
  -1 -11  -2   65.36    5.59
   1  11   2   67.09    5.16
   1  11   2   66.53    4.86
  -2 -11  -2    5.13    1.42
  -2 -11  -2    1.99    1.02
   2  11   2    4.34    1.22
   2  11   2    3.81    1.01
  -3 -11  -2   24.38    2.73
  -3 -11  -2   23.20    2.69
   3  11   2   26.78    2.59
   3  11   2   27.22    2.78
  -4 -11  -2    6.49    1.53
   4  11   2    5.34    1.29
  -5 -11  -2   27.31    3.10
   5  11   2   30.74    3.00
   6  11   2   39.49    3.70
  -7 -11  -2    5.39    1.51
  -8 -11  -2    8.72    1.91
   8  11   2   13.28    2.31
  -9 -11  -2    8.52    1.96
   9  11   2   14.53    2.29
  10 -12  -2    1.83    2.46
 -10  12   2    6.77    1.92
   9 -12  -2   21.07    4.37
  -9  12   2   15.33    3.47
   8 -12  -2   14.86    3.50
  -8  12   2   23.28    3.47
   7 -12  -2    3.88    2.15
  -7  12   2    1.40    1.40
  -6  12   2   36.97    3.95
   5 -12  -2   21.58    3.85
  -5  12   2   20.79    2.94
   4 -12  -2    6.26    2.04
  -4  12   2    7.50    1.75
   3 -12  -2   65.77    6.22
  -3  12   2   65.69    5.29
  -3  12   2   58.76    4.04
   2 -12  -2   13.22    2.77
  -2  12   2   11.70    1.25
  -2  12   2   12.31    2.06
   1 -12  -2   20.56    3.16
  -1  12   2   20.37    2.53
  -1  12   2   22.09    1.97
   0 -12  -2   50.99    4.97
   0  12   2   51.18    4.34
   0  12   2   49.26    3.79
  -1 -12  -2    6.76    1.82
  -1 -12  -2    8.75    1.71
   1  12   2    7.64    1.58
   1  12   2    5.77    1.18
  -2 -12  -2   69.06    5.30
  -2 -12  -2   65.88    5.51
   2  12   2   65.29    4.95
   2  12   2   62.95    5.24
  -3 -12  -2   49.14    4.36
  -3 -12  -2   52.82    4.50
   3  12   2   49.18    4.42
   3  12   2   51.79    4.20
  -4 -12  -2    1.36    1.12
   4  12   2    1.88    0.98
   4  12   2    3.88    2.07
  -5 -12  -2   29.50    3.22
   5  12   2   28.04    3.05
   5  12   2   28.80    3.24
  -6 -12  -2    8.14    1.81
  -7 -12  -2    1.46    1.27
   7  12   2    1.17    1.16
  -8 -12  -2   36.33    3.81
   8  12   2   30.16    3.64
   9 -13  -2   27.55    4.98
  -9  13   2   19.87    3.42
   8 -13  -2    1.25    2.18
  -8  13   2   -0.35    1.23
   7 -13  -2    6.39    2.73
  -7  13   2    2.78    1.45
   6 -13  -2   54.41    6.23
  -6  13   2   54.01    6.55
   5 -13  -2    9.52    3.12
  -5  13   2   12.19    2.39
   4 -13  -2    6.98    2.27
  -4  13   2   12.74    2.39
   3 -13  -2   91.79    7.88
  -3  13   2   81.74    6.69
   2 -13  -2    4.69    1.95
  -2  13   2    2.72    1.12
   1 -13  -2   12.85    2.84
  -1  13   2    7.90    1.17
  -1  13   2    5.19    1.39
   0 -13  -2   62.73    5.88
   0  13   2   62.52    5.09
   0  13   2   59.15    4.46
  -1 -13  -2    1.94    1.58
   1  13   2    1.46    0.83
   1  13   2    2.66    1.65
  -2 -13  -2   57.31    5.29
  -2 -13  -2   62.95    5.45
   2  13   2   61.81    4.70
   2  13   2   55.22    4.98
  -3 -13  -2   61.36    5.47
  -3 -13  -2   68.32    5.41
   3  13   2   61.67    5.10
   3  13   2   69.91    5.49
  -4 -13  -2    1.68    1.06
   4  13   2   -0.08    0.96
   4  13   2   -0.46    0.70
  -5 -13  -2   49.36    4.61
   5  13   2   47.96    4.86
   5  13   2   49.45    4.71
  -6 -13  -2   21.15    3.10
   6  13   2   19.34    2.63
   6  13   2   21.03    3.10
  -7 -13  -2   -0.30    1.06
   7  13   2    0.30    0.96
   7  13   2   -0.93    0.98
   7 -14  -2   10.61    3.68
  -7  14   2    4.46    2.01
   6 -14  -2   28.61    4.67
  -6  14   2   22.04    3.34
   5 -14  -2    4.85    2.27
  -5  14   2    4.86    1.79
   4 -14  -2    7.91    2.60
  -4  14   2    5.20    1.61
  -3  14   2   35.31    3.85
   2 -14  -2   -0.70    1.43
  -2  14   2    0.46    1.06
   1 -14  -2   36.03    4.55
  -1  14   2   32.50    3.52
   0 -14  -2   28.83    3.91
   0  14   2   23.72    2.31
   0  14   2   23.60    2.98
  -1 -14  -2   -0.85    1.50
   1  14   2   -0.27    0.63
   1  14   2   -0.01    0.84
  -2 -14  -2   17.31    3.13
   2  14   2   18.68    2.76
   2  14   2   19.74    2.31
  -3 -14  -2    9.93    1.98
   3  14   2   16.85    2.50
   3  14   2   13.40    2.09
  -4 -14  -2    5.83    1.85
   4  14   2    3.24    1.37
   4  14   2    5.10    1.70
  -5 -14  -2   29.16    3.53
   5  14   2   27.75    3.22
   5  14   2   31.80    3.74
   5 -15  -2   -0.58    1.78
  -5  15   2   -0.99    1.11
   4 -15  -2   66.73    7.09
  -4  15   2   68.25    6.09
   3 -15  -2   13.53    3.16
   2 -15  -2   -1.78    1.59
  -2  15   2    1.63    1.18
   1 -15  -2   60.96    6.74
  -1  15   2   46.27    4.67
   0 -15  -2    9.24    2.53
   0  15   2    9.02    1.85
  -1 -15  -2   -2.13    1.66
   1  15   2   -0.62    1.05
   2  15   2   25.05    2.63
   2  15   2   23.39    3.08
   3  15   2    4.46    1.63
   1  13  -3    6.93    1.80
   0  13  -3   17.74    2.74
   0 -13   3   14.26    3.45
  -1  13  -3   25.13    3.33
   1 -13   3   19.37    3.49
  -2  13  -3    2.53    1.29
   2 -13   3    1.68    2.01
   3 -13   3    9.48    2.65
  -4  13  -3   30.20    3.95
   4 -13   3   27.80    4.57
  -5  13  -3   -2.56    1.21
   5 -13   3   -2.89    1.57
  -6  13  -3   26.32    3.92
   6 -13   3   19.67    4.25
   4  12  -3    5.88    1.91
   4  12  -3    5.17    1.44
   3  12  -3   18.43    3.01
   3  12  -3   18.25    2.19
   2  12  -3   52.56    4.83
   2  12  -3   48.87    4.07
   1  12  -3    1.47    1.17
   1  12  -3    3.26    0.97
  -1 -12   3    1.17    2.12
   0  12  -3   16.65    2.53
   0  12  -3   11.87    1.52
   0 -12   3   11.59    2.68
  -1  12  -3   23.93    3.09
   1 -12   3   19.41    3.66
  -2  12  -3    0.31    1.05
   2 -12   3   -1.48    1.30
  -3  12  -3   10.66    2.03
   3 -12   3    6.52    2.26
  -4  12  -3   11.80    2.33
   4 -12   3   16.48    4.99
  -5  12  -3    3.86    1.70
   5 -12   3    4.65    2.49
  -6  12  -3   37.18    4.61
   6 -12   3   46.47    6.46
  -7  12  -3   18.08    3.55
   7 -12   3   25.03    4.46
  -8  12  -3    1.27    1.53
   8 -12   3    1.61    2.10
   6  11  -3    7.33    1.93
   6  11  -3    5.06    1.62
  -6 -11   3    4.18    1.66
   5  11  -3   24.76    3.22
   5  11  -3   21.96    2.77
  -5 -11   3   22.81    3.08
   4  11  -3   -0.24    0.75
  -4 -11   3   -1.01    0.87
   3  11  -3   34.96    3.86
   3  11  -3   34.90    3.31
  -3 -11   3   40.78    3.90
   2  11  -3   28.54    2.80
   2  11  -3   31.67    3.45
  -2 -11   3   27.00    3.49
   1  11  -3    0.61    0.87
   1  11  -3    0.61    0.63
  -1 -11   3   -1.49    1.26
   0  11  -3   37.63    3.80
   0  11  -3   36.17    2.95
   0 -11   3   39.00    4.41
  -1  11  -3   14.43    1.42
   1 -11   3   14.58    3.01
   2 -11   3    5.90    2.18
   3 -11   3   31.15    4.39
  -4  11  -3    7.34    2.90
   4 -11   3    7.68    2.71
  -5  11  -3    1.48    1.34
   5 -11   3    2.76    1.82
  -6  11  -3   36.10    4.26
   6 -11   3   35.87    7.71
  -7  11  -3    0.85    1.40
   7 -11   3    5.16    2.44
  -8  11  -3   23.68    3.49
   8 -11   3   22.21    4.52
  -9  11  -3   17.18    3.38
   9 -11   3   21.76    4.52
 -10  11  -3    3.14    1.96
  10 -11   3    1.55    2.07
   7  10  -3   -0.63    1.08
  -7 -10   3   -0.36    1.00
   6  10  -3   32.97    3.74
   6  10  -3   32.92    3.54
  -6 -10   3   37.07    3.89
   5  10  -3   39.09    3.80
   5  10  -3   47.69    4.40
  -5 -10   3   40.51    4.22
   4  10  -3   -0.19    0.68
   4  10  -3   -0.55    0.87
  -4 -10   3   -0.25    1.00
   3  10  -3   37.16    3.38
   2  10  -3   15.58    2.38
   2  10  -3   16.14    1.85
  -2 -10   3   13.77    2.24
   1  10  -3   15.59    1.70
   1  10  -3   14.63    2.16
  -1 -10   3   10.64    2.22
   0  10  -3   62.56    4.57
   0  10  -3   69.07    5.37
   0 -10   3   66.06    5.79
  -1  10  -3    2.37    0.59
  -1  10  -3    2.04    1.00
   1 -10   3    3.43    1.61
  -2  10  -3   33.95    3.29
  -2  10  -3   27.46    2.10
   2 -10   3   29.05    3.86
  -3  10  -3   66.38    5.51
   3 -10   3   65.60    6.44
  -4  10  -3   -0.74    0.88
   4 -10   3   -0.59    1.32
  -5  10  -3   22.32    3.03
   5 -10   3   20.20    3.50
  -6  10  -3   47.69    4.88
   6 -10   3   52.85    5.96
  -7  10  -3    0.99    1.50
   7 -10   3    0.88    2.13
  -8  10  -3   39.37    4.56
   8 -10   3   43.53    5.62
  -9  10  -3   38.69    4.49
   9 -10   3   39.23    5.27
 -10  10  -3   -2.14    1.22
  10 -10   3   -1.77    1.61
 -11  10  -3   12.75    2.84
  11 -10   3   14.21    3.70
   8   9  -3   26.41    3.20
  -8  -9   3   27.65    3.41
   7   9  -3    0.47    1.26
   7   9  -3   -0.49    0.83
  -7  -9   3   -0.63    1.12
   6   9  -3   37.84    3.90
  -6  -9   3   40.00    3.87
   5   9  -3   14.04    2.03
   5   9  -3   10.20    1.97
  -5  -9   3   16.68    2.41
   4   9  -3   37.48    3.78
   4   9  -3   39.07    3.60
  -4  -9   3   45.39    3.92
   3   9  -3   70.75    5.55
   3   9  -3   70.65    5.26
  -3  -9   3   65.73    5.47
   2   9  -3    7.23    1.54
  -2  -9   3    8.36    1.65
  -2  -9   3    7.40    1.60
   1   9  -3   14.64    2.06
   1   9  -3   15.38    1.66
  -1  -9   3   14.82    2.31
   0   9  -3  104.98    7.67
   0   9  -3  109.05    7.08
   0  -9   3  110.44    8.23
  -1   9  -3    0.87    0.42
  -1   9  -3    1.25    0.88
   1  -9   3    0.52    1.11
  -2   9  -3   49.54    4.32
  -2   9  -3   47.94    3.23
  -3   9  -3   38.23    3.56
  -3   9  -3   30.26    2.10
   3  -9   3   38.22    4.28
  -4   9  -3    3.27    1.36
   4  -9   3    1.20    1.22
  -5   9  -3   67.81    5.93
   5  -9   3   81.78    7.18
  -6   9  -3   82.54    6.63
   6  -9   3   81.47    7.57
  -7   9  -3   -0.93    1.17
   7  -9   3   -1.13    1.41
  -8   9  -3   18.07    3.02
   8  -9   3   13.31    3.00
   9  -9   3   14.84    3.56
  10  -9   3   10.37    3.16
 -11   9  -3   42.23    4.70
  11  -9   3   41.83    5.77
 -12   9  -3   11.31    2.47
  12  -9   3   10.25    3.18
   9   8  -3   44.52    4.48
  -9  -8   3   52.63    4.81
   8   8  -3   29.39    3.24
  -8  -8   3   28.58    3.36
   7   8  -3    8.00    1.77
   6   8  -3   79.72    6.27
  -6  -8   3   86.26    6.46
   5   8  -3    3.24    1.12
   5   8  -3    4.67    1.40
  -5  -8   3    4.35    1.49
   4   8  -3   46.20    3.92
   4   8  -3   41.48    3.66
  -4  -8   3   43.77    3.89
   3   8  -3   97.55    6.71
   3   8  -3  100.68    6.97
  -3  -8   3   98.70    6.93
  -3  -8   3   88.23    6.50
   2   8  -3    3.51    0.90
   2   8  -3    2.89    1.02
  -2  -8   3    2.71    1.12
  -2  -8   3    3.59    1.10
   1   8  -3   67.82    5.26
   1   8  -3   71.52    4.93
  -1  -8   3   64.45    5.45
  -1  -8   3   76.39    5.36
   0   8  -3  124.38    8.66
   0   8  -3  132.00    8.18
   0  -8   3  125.26    9.11
  -1   8  -3    2.34    0.95
  -1   8  -3    2.76    0.59
   1  -8   3    1.54    1.28
  -2   8  -3   61.76    4.01
  -2   8  -3   62.19    4.92
   2  -8   3   62.21    5.63
  -3   8  -3   14.05    2.04
  -3   8  -3   13.63    0.98
  -3   8  -3   12.66    0.97
   3  -8   3   11.45    2.45
  -4   8  -3    7.97    1.73
   4  -8   3   11.80    2.59
  -5   8  -3   95.96    7.13
   5  -8   3   90.52    7.95
  -6   8  -3   25.48    3.13
   6  -8   3   31.89    4.05
  -7   8  -3   -0.14    0.91
   7  -8   3   -0.07    1.09
  -8   8  -3   35.94    3.97
   8  -8   3   45.95    5.25
  -9   8  -3    2.06    1.45
   9  -8   3   -0.23    1.33
 -10   8  -3   12.74    2.37
  10  -8   3    9.96    3.65
 -11   8  -3   22.27    3.66
  11  -8   3   24.08    4.26
 -12   8  -3    0.95    1.23
  12  -8   3    1.30    1.88
 -13   8  -3    7.50    2.28
  13  -8   3    4.52    2.86
  10   7  -3    1.45    1.09
 -10  -7   3    1.43    1.47
   9   7  -3   21.77    2.84
  -9  -7   3   23.96    2.98
   8   7  -3    1.02    0.94
  -8  -7   3    0.42    1.41
   7   7  -3   19.85    2.45
  -7  -7   3   19.01    2.52
   6   7  -3   96.93    7.09
  -6  -7   3   98.59    7.19
   5   7  -3   -0.07    0.53
  -5  -7   3    0.03    0.73
   4   7  -3   57.21    4.31
   4   7  -3   48.70    4.03
  -4  -7   3   48.46    4.18
   3   7  -3   30.25    2.84
   3   7  -3   28.81    2.63
  -3  -7   3   29.48    2.84
  -3  -7   3   29.19    2.57
   2   7  -3   12.59    1.51
   2   7  -3   12.48    1.74
  -2  -7   3   13.21    1.78
   1   7  -3   65.43    4.40
  -1  -7   3   57.80    4.83
   0   7  -3   41.52    3.61
   0   7  -3   40.00    2.92
   0  -7   3   37.23    3.67
  -1   7  -3   43.98    3.66
  -1   7  -3   44.03    3.10
   1  -7   3   45.77    4.18
  -2   7  -3  117.12    7.90
  -2   7  -3  107.28    7.23
  -2   7  -3  116.35    7.06
   2  -7   3  119.03    8.61
  -3   7  -3    5.04    0.51
  -3   7  -3    3.36    1.05
  -3   7  -3    5.15    0.49
   3  -7   3    3.87    1.49
   4  -7   3   36.11    4.08
  -5   7  -3  123.66    8.47
   5  -7   3  115.32    9.37
  -6   7  -3    3.34    1.31
   6  -7   3    2.31    1.55
  -7   7  -3   42.74    4.15
   7  -7   3   50.30    5.29
  -8   7  -3   76.18    6.33
   8  -7   3   84.21    7.49
  -9   7  -3    1.48    1.28
   9  -7   3    2.37    1.89
 -10   7  -3   30.26    3.56
  10  -7   3   34.20    4.70
 -11   7  -3   33.25    3.96
  11  -7   3   43.05    6.06
 -12   7  -3    0.91    1.43
  12  -7   3    1.03    1.93
 -13   7  -3   22.12    3.61
  13  -7   3   28.67    4.78
  11   6  -3   -0.76    0.80
 -11  -6   3   -1.44    1.15
  10   6  -3   19.78    2.77
 -10  -6   3   26.53    3.23
   9   6  -3   74.81    6.06
  -9  -6   3   77.15    6.14
   8   6  -3   -0.07    0.68
  -8  -6   3    1.00    1.14
   7   6  -3   54.98    4.61
  -7  -6   3   57.90    4.75
   6   6  -3   41.06    3.67
  -6  -6   3   44.73    3.83
   5   6  -3    6.88    1.38
  -5  -6   3    7.80    1.49
  -4  -6   3   53.92    4.26
  -4  -6   3   51.53    3.58
   3   6  -3   58.12    4.30
   3   6  -3   57.32    4.17
  -3  -6   3   53.11    4.23
  -3  -6   3   53.79    3.99
   2   6  -3   67.71    4.86
   2   6  -3   63.42    4.63
  -2  -6   3   70.53    4.90
  -2  -6   3   64.10    4.83
   1   6  -3  173.55   11.27
   1   6  -3  171.39   11.02
  -1  -6   3  184.04   11.99
  -1  -6   3  178.68   11.28
   0   6  -3  127.09    8.41
   0   6  -3  126.61    8.04
   0  -6   3  129.75    8.85
  -1   6  -3    1.62    0.69
  -1   6  -3    1.24    0.38
   1  -6   3    0.96    0.83
  -2   6  -3   65.98    4.03
  -2   6  -3   61.60    4.69
   2  -6   3   62.10    5.25
   2  -6   3   62.64    4.01
  -3   6  -3    5.05    0.51
  -3   6  -3    5.53    0.50
  -3   6  -3    5.13    1.14
   3  -6   3    7.83    1.87
  -4   6  -3   53.34    4.39
   4  -6   3   59.13    5.19
  -5   6  -3  103.04    7.40
   5  -6   3  107.96    8.30
  -6   6  -3   -1.32    1.22
  -7   6  -3   77.05    6.16
   7  -6   3   84.32    7.14
  -8   6  -3   87.80    6.87
   8  -6   3   92.86    7.99
  -9   6  -3    5.22    1.54
   9  -6   3    3.43    1.97
 -10   6  -3   40.02    4.15
  10  -6   3   43.05    5.03
 -11   6  -3   24.21    3.29
  11  -6   3   22.40    4.24
  12  -6   3    0.22    1.79
 -13   6  -3   30.46    3.87
  13  -6   3   31.70    4.80
 -14   6  -3    6.33    2.17
  14  -6   3    5.09    2.45
  11   5  -3   -0.98    0.81
 -11  -5   3    0.33    1.44
  10   5  -3   33.65    3.52
 -10  -5   3   35.17    3.75
   9   5  -3   33.79    3.79
  -9  -5   3   33.79    3.47
   8   5  -3   -0.38    0.62
  -8  -5   3    0.88    1.05
   7   5  -3   67.89    5.28
  -7  -5   3   69.22    5.33
   6   5  -3   14.03    1.83
  -6  -5   3   15.77    2.04
   5   5  -3   32.24    2.84
  -5  -5   3   29.35    2.86
   4   5  -3   64.18    4.72
  -4  -5   3   63.83    4.80
  -4  -5   3   62.13    4.20
  -4  -5   3   68.92    4.37
   3   5  -3   21.53    1.97
   3   5  -3   16.60    1.74
  -3  -5   3   20.09    1.83
  -3  -5   3   24.48    2.14
   2   5  -3   76.27    5.20
   2   5  -3   74.18    5.08
  -2  -5   3   76.01    5.21
  -2  -5   3   72.79    5.24
   1   5  -3  197.19   12.54
   1   5  -3  202.23   12.74
  -1  -5   3  214.41   12.78
  -1  -5   3  202.23   13.01
   0   5  -3    0.02    0.24
   0   5  -3    0.03    0.41
   0  -5   3   -0.03    0.38
   0  -5   3   -0.51    0.52
  -1   5  -3  102.84    6.83
  -1   5  -3  102.22    6.38
   1  -5   3  101.78    7.32
  -2   5  -3  104.60    6.90
  -2   5  -3  106.29    6.26
   2  -5   3   96.16    6.23
   2  -5   3  101.95    7.45
  -3   5  -3    0.06    0.13
  -3   5  -3   -0.29    0.42
   3  -5   3   -0.13    0.61
   3  -5   3    0.34    0.13
  -4   5  -3  114.44    7.80
   4  -5   3  116.86    8.56
  -5   5  -3   78.77    5.78
   5  -5   3   81.43    6.61
  -6   5  -3   22.67    2.48
   6  -5   3   25.42    3.25
  -7   5  -3  181.68   12.53
   7  -5   3  203.07   14.09
  -8   5  -3   25.87    2.91
   8  -5   3   25.42    3.68
  -9   5  -3    3.68    1.45
   9  -5   3    3.28    1.66
   9  -5   3    4.58    0.52
 -10   5  -3   72.17    6.00
  10  -5   3   68.55    4.48
  10  -5   3   74.68    6.90
 -11   5  -3   12.53    2.35
  11  -5   3   13.19    2.98
 -12   5  -3   23.22    3.23
  12  -5   3   18.83    1.69
  12  -5   3   15.25    3.45
 -13   5  -3   66.63    6.09
  13  -5   3   61.96    6.82
 -14   5  -3    3.59    1.62
  14  -5   3    2.44    2.03
  12   4  -3    6.77    1.82
 -12  -4   3    5.49    2.03
  11   4  -3    6.30    1.69
  10   4  -3   59.71    5.14
 -10  -4   3   65.29    5.41
   9   4  -3   18.05    2.33
  -9  -4   3   17.35    2.36
   8   4  -3   28.41    2.86
  -8  -4   3   27.25    2.97
   7   4  -3   79.20    5.91
  -7  -4   3   81.77    5.96
   6   4  -3    0.20    0.59
  -6  -4   3    0.30    0.66
   5   4  -3   17.39    1.86
  -5  -4   3   15.34    1.83
   4   4  -3  214.47   13.75
  -4  -4   3  215.05   13.77
  -4  -4   3  224.19   13.33
  -4  -4   3  224.90   13.36
   3   4  -3    1.30    0.51
   3   4  -3    2.06    0.57
  -3  -4   3    2.10    0.65
  -3  -4   3    1.87    0.67
   2   4  -3   93.14    5.91
   2   4  -3   92.79    5.87
   2   4  -3   76.37    5.93
  -2  -4   3   90.06    5.92
  -2  -4   3   92.13    6.03
   1   4  -3  114.25    7.50
   1   4  -3  118.19    7.41
  -1  -4   3  123.65    7.56
  -1  -4   3  112.18    7.76
   0   4  -3    6.82    1.01
   0   4  -3    8.38    0.84
   0  -4   3    7.20    1.29
   0  -4   3    7.54    1.06
  -1   4  -3  114.54    7.22
  -1   4  -3  110.93    6.83
   1  -4   3  107.58    6.82
  -2   4  -3  100.65    6.69
  -2   4  -3  109.21    6.19
   2  -4   3  100.97    7.23
   2  -4   3   93.56    6.21
  -3   4  -3    9.25    0.71
  -3   4  -3    8.72    1.22
   3  -4   3    8.33    1.71
   3  -4   3    9.22    0.66
  -4   4  -3  165.57   10.47
   4  -4   3  159.83   11.12
  -5   4  -3  100.55    6.94
   5  -4   3  102.10    7.65
  -6   4  -3    3.37    1.07
   6  -4   3    3.19    1.24
  -7   4  -3   73.16    5.77
   7  -4   3   83.81    4.87
   7  -4   3   74.22    4.71
   7  -4   3   76.04    6.46
  -8   4  -3   11.27    2.06
   8  -4   3    9.44    1.10
   8  -4   3    9.54    0.87
   8  -4   3   12.39    2.69
  -9   4  -3   42.10    4.25
   9  -4   3   52.58    3.28
   9  -4   3   47.23    4.95
 -10   4  -3   50.70    4.79
  10  -4   3   58.66    5.74
 -11   4  -3    3.98    1.43
  11  -4   3    4.47    0.84
  11  -4   3    4.47    2.21
 -12   4  -3   22.51    3.31
  12  -4   3   22.98    2.03
  12  -4   3   22.01    3.76
  13  -4   3   37.17    4.76
 -14   4  -3    2.54    1.66
  14  -4   3    2.63    1.31
  14  -4   3    2.18    2.01
 -15   4  -3    6.71    2.61
  15  -4   3    5.45    2.27
  12   3  -3    7.36    1.85
 -12  -3   3    6.98    2.10
  11   3  -3   13.80    2.11
 -11  -3   3    8.15    1.92
 -10  -3   3   32.75    3.59
   9   3  -3    6.71    1.55
  -9  -3   3    5.42    1.57
   8   3  -3   64.23    5.05
  -8  -3   3   67.95    5.19
   7   3  -3   71.54    5.26
  -7  -3   3   68.88    5.25
  -6  -3   3    1.71    0.78
   5   3  -3  149.09    9.66
  -5  -3   3  145.01    9.13
  -5  -3   3  160.87    9.26
  -5  -3   3  141.28    9.59
   4   3  -3  147.59    9.22
  -4  -3   3  137.56    8.91
  -4  -3   3  139.22    9.16
  -4  -3   3  149.22    9.00
   3   3  -3    0.18    0.44
   3   3  -3    0.58    0.34
  -3  -3   3    0.23    0.43
  -3  -3   3    0.64    0.46
   2   3  -3  176.87   10.33
   2   3  -3  153.84   10.40
  -2  -3   3  161.23   10.46
  -2  -3   3  171.02   10.33
   1   3  -3   31.17    2.73
   1   3  -3   36.28    2.56
   1   3  -3   34.49    2.46
  -1  -3   3   31.35    2.77
  -1  -3   3   36.65    2.58
   0   3  -3   81.28    5.04
   0  -3   3   76.68    5.57
  -1   3  -3   67.23    4.05
   1  -3   3   64.43    4.78
   1  -3   3   59.79    4.02
  -2   3  -3  135.98    8.75
  -2   3  -3  150.13    8.35
   2  -3   3  132.61    8.30
   2  -3   3  132.59    9.23
  -3   3  -3   44.62    3.47
  -3   3  -3   51.99    3.04
   3  -3   3   48.63    2.96
   3  -3   3   44.42    3.93
  -4   3  -3   95.50    6.34
   4  -3   3   96.94    6.93
   4  -3   3   90.40    5.71
  -5   3  -3    0.39    0.64
   5  -3   3    0.81    0.18
   5  -3   3    1.10    0.25
   5  -3   3   -0.08    0.57
  -6   3  -3  150.54    9.53
   6  -3   3  140.27    8.65
   6  -3   3  141.31   10.10
  -7   3  -3   77.32    5.85
   7  -3   3   77.11    5.02
   7  -3   3   87.31    5.29
   7  -3   3   79.24    6.51
  -8   3  -3    8.32    1.67
   8  -3   3    9.46    2.22
   8  -3   3    8.74    0.90
  -9   3  -3   75.23    5.84
   9  -3   3   69.26    6.31
   9  -3   3   70.37    4.71
 -10   3  -3   95.25    7.01
  10  -3   3   93.55    7.65
  10  -3   3   86.25    5.91
 -11   3  -3    0.31    1.13
  11  -3   3    1.40    1.58
  11  -3   3   -0.16    0.40
 -12   3  -3   68.15    5.79
  12  -3   3   55.17    5.95
  12  -3   3   62.46    4.47
 -13   3  -3    6.44    2.23
  13  -3   3    5.67    2.03
 -14   3  -3    1.00    1.50
  14  -3   3    2.18    1.70
  14  -3   3    0.38    0.83
 -15   3  -3   53.78    6.07
  15  -3   3   61.10    4.60
  13   2  -3   33.11    3.65
  12   2  -3    3.02    1.30
 -12  -2   3    1.50    1.31
  11   2  -3   27.28    2.89
 -11  -2   3   19.86    2.99
  10   2  -3   40.76    3.82
 -10  -2   3   48.48    4.27
   9   2  -3    0.35    0.69
  -9  -2   3   -0.43    0.77
  -9  -2   3    0.35    0.86
   8   2  -3   68.60    5.15
  -8  -2   3   69.60    4.80
  -8  -2   3   63.38    5.22
  -8  -2   3   69.24    5.20
   7   2  -3   53.61    4.24
  -7  -2   3   58.63    4.07
  -7  -2   3   54.99    4.31
  -7  -2   3   54.79    4.33
   6   2  -3    8.75    1.28
  -6  -2   3    8.75    1.21
  -6  -2   3   10.34    1.80
  -6  -2   3    8.78    1.41
   5   2  -3  188.94   11.91
  -5  -2   3  175.74   11.80
  -5  -2   3  201.19   11.80
   4   2  -3   85.14    5.66
  -4  -2   3   85.31    5.62
  -4  -2   3   82.42    5.59
   3   2  -3   93.81    6.30
  -3  -2   3   98.46    6.32
  -3  -2   3   99.62    6.40
   2   2  -3  163.89   11.34
   2   2  -3  197.36   11.30
  -2  -2   3  178.84   11.22
  -2  -2   3  193.46   11.53
   1   2  -3  212.15   12.31
   1   2  -3  185.66   12.59
   1   2  -3  206.88   12.31
  -1  -2   3  203.40   12.69
  -1  -2   3  203.79   12.31
   0   2  -3   60.10    3.84
   0   2  -3   54.54    4.25
   0   2  -3   62.44    3.94
   0  -2   3   61.18    3.85
   0  -2   3   59.43    4.35
  -1   2  -3  109.98    7.07
  -1   2  -3  120.82    6.90
   1  -2   3   98.17    7.47
   1  -2   3  120.19    6.91
  -2   2  -3    6.69    0.62
  -2   2  -3    5.71    0.84
   2  -2   3    7.45    0.61
   2  -2   3    5.89    1.24
  -3   2  -3  153.46    9.66
  -3   2  -3  164.23    9.28
   3  -2   3  141.85   10.08
  -4   2  -3  252.02   16.51
  -4   2  -3  288.33   17.01
   4  -2   3  295.64   17.62
   4  -2   3  275.12   16.42
  -5   2  -3    4.30    0.98
   5  -2   3    4.42    1.26
   5  -2   3    5.03    0.51
  -6   2  -3   40.10    3.20
   6  -2   3   40.91    2.71
   6  -2   3   34.99    3.49
   6  -2   3   34.19    2.48
  -7   2  -3  109.18    7.45
   7  -2   3  114.30    8.07
   7  -2   3  102.21    6.71
  -8   2  -3   12.51    1.90
   8  -2   3   13.32    2.52
  -9   2  -3   69.48    5.55
   9  -2   3   65.66    5.90
   9  -2   3   71.28    4.68
 -10   2  -3   42.96    4.05
  10  -2   3   42.11    4.54
  10  -2   3   43.75    3.23
 -11   2  -3    9.55    1.98
  11  -2   3    9.10    2.19
 -12   2  -3   85.58    6.49
  12  -2   3   72.17    5.28
  12  -2   3   69.80    6.66
 -13   2  -3   13.23    2.53
  13  -2   3   16.09    1.87
  13  -2   3   10.61    2.56
 -14   2  -3    4.28    1.80
  14  -2   3    3.75    1.96
  14  -2   3    4.40    1.10
 -15   2  -3   21.83    3.62
  15  -2   3   15.92    4.47
  13   1  -3   19.50    2.70
  12   1  -3    2.48    1.20
 -12  -1   3   -0.03    1.10
  11   1  -3   56.31    5.55
 -11  -1   3   71.49    5.68
  10   1  -3   93.90    6.52
 -10  -1   3   78.20    6.52
   9   1  -3    0.32    0.51
  -9  -1   3   -1.24    0.63
   8   1  -3   42.13    3.57
  -8  -1   3   46.96    3.79
  -8  -1   3   39.37    3.60
   7   1  -3   43.65    3.93
  -7  -1   3   45.67    3.69
  -7  -1   3   48.72    3.84
   6   1  -3   51.98    3.82
  -6  -1   3   50.71    3.89
  -6  -1   3   48.27    3.73
   5   1  -3   51.31    3.58
  -5  -1   3   45.54    3.45
  -5  -1   3   49.97    3.63
  -5  -1   3   43.72    3.41
   4   1  -3    9.22    1.09
  -4  -1   3    8.40    1.04
  -4  -1   3    7.56    1.11
  -4  -1   3    9.22    1.06
   3   1  -3  226.28   13.02
  -3  -1   3  209.92   13.11
  -3  -1   3  213.81   12.98
  -3  -1   3  197.46   12.85
   2   1  -3  399.62   22.45
   2   1  -3  337.75   22.53
   2   1  -3  342.80   22.28
  -2  -1   3  371.96   22.31
  -2  -1   3  384.90   22.46
  -2  -1   3  409.63   22.71
   1   1  -3  128.61    7.21
   1   1  -3  104.56    7.20
   1   1  -3  109.67    7.54
   1   1  -3  122.23    7.29
  -1  -1   3  118.55    7.64
  -1  -1   3  120.37    7.21
   0   1  -3   23.45    1.64
   0   1  -3   23.32    1.65
   0   1  -3   20.74    1.97
   0   1  -3   22.09    1.64
   0  -1   3   22.67    1.64
   0  -1   3   19.52    2.00
   0  -1   3   26.24    1.70
  -1   1  -3   13.66    1.20
  -1   1  -3   16.13    1.13
  -1   1  -3   13.78    1.50
   1  -1   3   14.86    1.60
   1  -1   3   13.97    1.18
  -2   1  -3   60.29    3.58
  -2   1  -3   52.56    3.71
   2  -1   3   47.52    4.09
   2  -1   3   63.17    3.56
   2  -1   3   54.06    3.71
  -3   1  -3  194.44   11.59
  -3   1  -3  197.05   11.34
   3  -1   3  170.76   11.97
  -4   1  -3  169.88    9.68
  -4   1  -3  165.69    9.95
   4  -1   3  161.49    9.51
   4  -1   3  159.30   10.39
   4  -1   3  133.44    9.67
  -5   1  -3   56.17    3.99
   5  -1   3   62.02    4.50
   5  -1   3   49.59    3.62
   5  -1   3   54.00    3.53
  -6   1  -3   57.26    4.21
   6  -1   3   53.87    3.71
   6  -1   3   60.12    4.69
  -7   1  -3   55.07    4.34
   7  -1   3   58.95    3.90
   7  -1   3   58.36    4.83
  -8   1  -3   20.01    2.35
   8  -1   3   19.88    2.55
   8  -1   3   20.40    1.74
  -9   1  -3   82.09    6.11
   9  -1   3   84.10    6.58
   9  -1   3   77.85    5.41
 -10   1  -3   52.11    4.49
  10  -1   3   46.73    4.61
  10  -1   3   47.36    3.60
 -11   1  -3   80.59    6.46
  11  -1   3   80.40    6.78
  11  -1   3   80.68    5.62
 -12   1  -3   20.22    2.73
  12  -1   3   16.38    2.88
  12  -1   3   14.38    1.80
 -13   1  -3    7.64    1.87
  13  -1   3    5.34    2.04
  13  -1   3   10.04    1.57
 -14   1  -3   34.24    4.31
  14  -1   3   38.07    3.32
  14  -1   3   32.43    4.16
 -15   1  -3   44.63    5.04
  15  -1   3   36.58    4.39
  13   0  -3   16.88    2.34
 -13   0   3   10.45    2.36
  12   0  -3   -0.22    0.68
 -12   0   3   -1.38    0.95
  11   0  -3   25.53    2.72
  11   0  -3   24.74    2.83
 -11   0   3   24.27    3.71
 -11   0   3   21.63    3.09
  10   0  -3   -0.71    0.92
  10   0  -3    1.65    0.91
 -10   0   3    1.30    1.36
 -10   0   3    0.84    0.99
   9   0  -3   27.65    2.74
   9   0  -3   30.16    3.03
  -9   0   3   28.76    3.03
  -9   0   3   34.90    3.62
   8   0  -3  106.48    7.76
   8   0  -3  118.40    8.00
  -8   0   3  119.92    8.47
  -8   0   3  118.56    8.37
   7   0  -3    7.40    1.27
  -7   0   3    5.31    1.09
   6   0  -3  119.43    7.90
   6   0  -3  115.46    7.75
  -6   0   3  123.33    8.24
  -6   0   3  117.06    7.71
   5   0  -3  129.44    8.09
   5   0  -3  117.45    7.89
  -5   0   3  116.16    7.80
  -5   0   3  130.07    8.34
   4   0  -3   20.04    1.70
   4   0  -3   18.88    1.80
  -4   0   3   20.04    1.95
  -4   0   3   18.64    1.78
  -4   0   3   18.51    1.59
   3   0  -3  226.76   14.40
   3   0  -3  265.43   14.68
  -3   0   3  249.73   14.94
  -3   0   3  238.59   14.75
  -3   0   3  223.45   14.44
   2   0  -3  382.30   21.19
  -2   0   3  350.43   21.27
  -2   0   3  356.80   21.45
  -2   0   3  325.10   20.97
   1   0  -3   49.68    3.61
   1   0  -3   49.88    3.98
   1   0  -3   66.35    3.83
  -1   0   3   58.17    4.09
  -1   0   3   65.59    3.84
  -1   0   3   61.82    3.65
   0   0  -3  470.79   30.15
   0   0  -3  499.02   29.66
   0   0   3  541.18   29.69
   0   0   3  498.39   30.20
  -1   0  -3   55.91    4.23
  -1   0  -3   65.11    3.84
  -1   0  -3   55.53    3.79
   1   0   3   63.77    3.82
   1   0   3   59.21    4.31
  -2   0  -3   76.39    4.39
  -2   0  -3   60.31    4.72
  -2   0  -3   69.92    4.41
   2   0   3   67.29    4.38
   2   0   3   67.44    4.87
  -3   0  -3  335.46   22.48
  -3   0  -3  395.52   22.11
  -3   0  -3  399.44   22.01
   3   0   3  337.65   22.48
   3   0   3  392.59   21.97
   3   0   3  347.42   22.23
  -4   0  -3   79.59    5.02
  -4   0  -3   75.34    5.10
   4   0   3   79.78    4.85
   4   0   3   76.77    4.94
   4   0   3   73.67    5.48
  -5   0  -3   84.75    5.81
   5   0   3   89.79    6.22
   5   0   3   86.58    5.49
  -6   0  -3  211.37   13.41
   6   0   3  219.07   13.89
   6   0   3  212.90   13.05
  -7   0  -3    4.16    1.03
   7   0   3    4.47    0.71
   7   0   3    4.53    1.20
  -8   0  -3   48.22    3.91
   8   0   3   47.77    3.42
   8   0   3   45.45    4.12
  -9   0  -3  146.65    9.75
   9   0   3  143.75   10.02
   9   0   3  139.23    9.15
 -10   0  -3   13.58    2.32
  10   0   3   14.27    2.34
  10   0   3   17.58    1.78
 -11   0  -3   26.13    3.14
  11   0   3   29.61    3.40
 -12   0  -3   49.44    4.73
  12   0   3   48.62    3.96
  12   0   3   50.92    4.79
 -13   0  -3    0.92    1.24
  13   0   3   -1.86    1.16
  13   0   3    0.09    0.64
 -14   0  -3   13.84    2.67
  14   0   3   13.53    2.65
  14   0   3   18.15    2.18
 -15   0  -3   16.82    3.35
  15   0   3   14.34    2.19
  13  -1  -3    9.75    1.99
 -13   1   3    7.51    1.90
  12  -1  -3   10.85    2.65
 -12   1   3   19.93    3.82
 -12   1   3   10.94    2.29
  11  -1  -3   45.44    3.75
  11  -1  -3   36.97    4.17
 -11   1   3   38.76    4.07
  10  -1  -3    1.80    1.44
  10  -1  -3    3.58    1.12
   9  -1  -3   65.22    5.39
   9  -1  -3   64.95    4.92
  -9   1   3   66.11    5.15
   8  -1  -3   72.97    5.87
  -8   1   3   80.48    5.61
   7  -1  -3    0.10    0.45
   7  -1  -3   -0.37    0.75
  -7   1   3    0.07    0.49
   6  -1  -3   84.85    5.73
   6  -1  -3   84.86    6.11
  -6   1   3   84.88    5.69
   5  -1  -3  141.49    9.37
   5  -1  -3  152.20    9.06
  -5   1   3  133.64    8.86
   4  -1  -3   14.16    1.34
   4  -1  -3   16.43    1.73
   4  -1  -3   13.49    1.19
  -4   1   3   15.72    1.30
   3  -1  -3  320.30   16.93
   3  -1  -3  301.22   17.22
   3  -1  -3  241.27   16.77
  -3   1   3  267.17   17.41
  -3   1   3  267.83   16.65
   2  -1  -3  264.14   16.52
   2  -1  -3  303.88   17.11
  -2   1   3  285.19   17.05
  -2   1   3  250.71   16.54
  -2   1   3  296.35   17.28
   1  -1  -3   65.26    4.45
   1  -1  -3   66.61    4.99
   1  -1  -3   87.23    4.78
  -1   1   3   79.28    4.75
  -1   1   3   73.12    4.90
  -1   1   3   77.68    4.59
  -1   1   3   73.91    5.09
   0  -1  -3  221.18   12.48
   0  -1  -3  177.27   12.72
   0   1   3  239.49   12.51
   0   1   3  217.57   12.25
   0   1   3  177.87   12.73
  -1  -1  -3  318.86   19.78
  -1  -1  -3  398.86   20.00
  -1  -1  -3  322.39   20.29
   1   1   3  328.70   19.80
   1   1   3  301.26   20.24
  -2  -1  -3    5.52    0.87
  -2  -1  -3    5.89    0.73
  -2  -1  -3    6.43    0.77
   2   1   3    5.70    0.97
   2   1   3    6.43    0.70
   2   1   3    6.87    0.80
  -3  -1  -3   78.00    4.61
  -3  -1  -3   70.46    4.91
  -3  -1  -3   62.37    4.52
   3   1   3   71.00    4.57
   3   1   3   69.45    4.95
   3   1   3   70.91    4.52
  -4  -1  -3   23.01    2.07
  -4  -1  -3   17.00    1.70
  -4  -1  -3   24.69    1.88
   4   1   3   22.53    2.09
   4   1   3   21.32    1.61
  -5  -1  -3  145.53    8.94
   5   1   3  133.29    9.14
   5   1   3  140.48    8.66
  -6  -1  -3   83.66    5.81
   6   1   3   85.96    5.53
   6   1   3   84.65    6.02
  -7  -1  -3    4.78    1.06
   7   1   3    4.19    1.35
   7   1   3    4.54    0.81
  -8  -1  -3   66.94    5.12
   8   1   3   68.18    5.23
   8   1   3   68.82    4.73
  -9  -1  -3  110.75    7.66
   9   1   3  106.42    7.64
   9   1   3  103.17    7.08
 -10  -1  -3   11.35    2.05
  10   1   3   13.07    2.07
  10   1   3   10.98    1.49
 -11  -1  -3   30.88    3.44
  11   1   3   31.25    2.86
  11   1   3   31.42    3.40
 -12  -1  -3   31.91    3.73
  12   1   3   32.33    3.53
  12   1   3   29.85    2.92
 -13  -1  -3    7.43    2.06
  13   1   3    6.77    1.80
 -14  -1  -3   30.21    4.08
 -15  -1  -3    5.81    2.27
  15   1   3    7.58    1.72
  13  -2  -3   -1.70    2.01
  13  -2  -3    2.12    1.09
 -13   2   3   -0.15    1.12
  12  -2  -3   28.04    2.79
  12  -2  -3   19.90    3.50
 -12   2   3   24.60    3.27
  11  -2  -3   33.77    3.06
  11  -2  -3   22.96    5.80
 -11   2   3   32.13    3.56
  10  -2  -3    0.13    0.65
  10  -2  -3   -1.59    1.23
 -10   2   3   -0.50    0.72
   9  -2  -3  105.19    7.94
   9  -2  -3   98.38    7.06
  -9   2   3  106.90    7.39
   8  -2  -3   59.37    5.01
   8  -2  -3   54.57    4.19
  -8   2   3   55.74    4.37
   7  -2  -3   18.19    2.45
   7  -2  -3   18.69    1.87
  -7   2   3   20.58    2.01
   6  -2  -3   76.71    5.76
   6  -2  -3   92.38    6.54
  -6   2   3   98.62    6.77
   5  -2  -3   95.19    6.30
   5  -2  -3   97.63    6.89
  -5   2   3   98.27    6.25
   4  -2  -3   88.04    5.80
   4  -2  -3   97.42    6.02
   4  -2  -3   91.53    6.52
  -4   2   3   95.87    5.88
   3  -2  -3  509.47   29.36
   3  -2  -3  505.95   30.08
  -3   2   3  474.54   29.35
   2  -2  -3  121.47    7.55
   2  -2  -3  144.74    7.88
   2  -2  -3  118.09    8.18
  -2   2   3  122.81    7.55
   1  -2  -3  105.75    7.18
   1  -2  -3  122.90    6.94
  -1   2   3  106.02    7.16
  -1   2   3  110.96    7.41
   0  -2  -3   76.91    5.29
   0  -2  -3   71.34    5.33
   0  -2  -3   81.44    4.84
   0  -2  -3   95.74    5.16
   0   2   3   75.06    5.23
   0   2   3   86.61    4.84
   0   2   3   75.43    5.44
  -1  -2  -3   66.32    4.21
  -1  -2  -3   62.35    4.61
  -1  -2  -3   80.75    4.53
   1   2   3   68.91    4.24
   1   2   3   62.29    4.63
   1   2   3   78.46    4.45
   1   2   3   61.45    4.48
  -2  -2  -3  187.34   11.15
  -2  -2  -3  183.50   11.52
  -2  -2  -3  191.52   11.32
   2   2   3  182.90   11.14
   2   2   3  180.82   11.53
   2   2   3  182.51   11.23
  -3  -2  -3  329.12   20.71
  -3  -2  -3  357.75   20.98
   3   2   3  331.85   20.77
   3   2   3  360.07   21.04
  -4  -2  -3   25.34    2.12
  -4  -2  -3   28.79    2.04
  -4  -2  -3   19.77    1.89
   4   2   3   21.93    1.76
   4   2   3   24.06    2.13
  -5  -2  -3  201.48   12.88
  -5  -2  -3  216.63   12.78
   5   2   3  204.75   12.56
   5   2   3  196.61   12.85
  -6  -2  -3   88.62    5.90
   6   2   3   78.74    5.57
   6   2   3   89.54    5.94
  -7  -2  -3    0.18    0.58
   7   2   3    0.03    0.27
   7   2   3    0.39    0.56
  -8  -2  -3   52.39    4.28
   8   2   3   55.84    3.97
   8   2   3   51.92    4.49
  -9  -2  -3   24.50    3.09
   9   2   3   25.40    2.58
   9   2   3   23.74    2.28
 -10  -2  -3    9.42    1.86
  10   2   3    9.41    1.35
  10   2   3   10.84    1.77
 -11  -2  -3   94.43    6.97
  11   2   3   80.64    6.39
  11   2   3   85.96    6.23
 -12  -2  -3   14.32    2.54
  12   2   3   15.74    2.43
  12   2   3   17.15    2.10
 -13  -2  -3   24.25    5.46
  13   2   3   13.81    2.59
  13   2   3   20.82    2.37
 -14  -2  -3   23.80    3.72
  14   2   3   22.72    2.74
 -15  -2  -3    5.08    2.07
  15   2   3    5.37    1.63
  13  -3  -3    0.46    1.63
  12  -3  -3   29.61    2.88
  12  -3  -3   23.72    3.91
 -12   3   3   27.85    3.49
  11  -3  -3   42.90    4.83
  11  -3  -3   46.89    3.81
 -11   3   3   44.55    4.28
  10  -3  -3    4.44    3.25
  10  -3  -3    8.95    1.47
 -10   3   3   12.09    2.03
   9  -3  -3   61.12    5.42
  -9   3   3   56.32    4.72
   8  -3  -3    7.47    1.26
   8  -3  -3    2.73    1.35
  -8   3   3    5.54    1.21
   7  -3  -3   10.31    1.25
   7  -3  -3    8.66    2.01
  -7   3   3    8.91    1.41
   6  -3  -3  156.11   10.31
   6  -3  -3  165.84   11.23
  -6   3   3  173.03   10.61
   5  -3  -3   97.18    7.16
   5  -3  -3  100.70    6.40
  -5   3   3   98.33    6.39
   4  -3  -3  104.98    7.26
   4  -3  -3   89.62    6.33
  -4   3   3  114.19    6.51
   3  -3  -3  181.11   11.85
   3  -3  -3  217.81   12.10
   3  -3  -3  187.18   12.65
  -3   3   3  204.98   11.93
   2  -3  -3   38.19    3.27
   2  -3  -3   39.71    2.60
   2  -3  -3   44.64    2.87
  -2   3   3   43.08    2.67
   1  -3  -3   31.19    2.73
   1  -3  -3   39.72    2.48
  -1   3   3   36.66    2.42
  -1   3   3   33.59    2.18
  -1   3   3   32.73    2.19
   0  -3  -3   28.67    1.93
   0  -3  -3   32.19    2.44
   0   3   3   27.20    1.94
   0   3   3   32.51    2.61
   0   3   3   30.96    2.40
  -1  -3  -3    3.25    0.64
  -1  -3  -3    2.75    0.44
  -1  -3  -3    2.82    0.68
   1   3   3    2.84    0.65
   1   3   3    3.10    0.77
   1   3   3    3.56    0.54
   1   3   3    2.52    0.48
  -2  -3  -3  138.36    8.13
  -2  -3  -3  122.78    8.16
  -2  -3  -3  130.49    7.91
   2   3   3  126.48    7.91
   2   3   3  131.35    8.08
   2   3   3  123.92    8.22
  -3  -3  -3   58.95    4.20
  -3  -3  -3   62.18    4.07
  -3  -3  -3   62.57    4.21
   3   3   3   59.98    4.01
   3   3   3   64.21    4.32
  -4  -3  -3  106.66    6.83
   4   3   3  102.83    6.88
  -5  -3  -3  189.55   11.61
  -5  -3  -3  188.93   11.61
   5   3   3  191.73   11.65
   5   3   3  170.57   11.40
  -6  -3  -3   58.79    4.27
  -6  -3  -3   55.64    4.33
   6   3   3   61.61    4.20
   6   3   3   62.85    4.30
  -7  -3  -3   31.96    2.79
   7   3   3   29.15    2.48
   7   3   3   27.87    2.41
  -8  -3  -3   51.74    4.26
   8   3   3   49.70    3.84
   8   3   3   51.92    3.88
  -9  -3  -3    0.15    0.75
   9   3   3   -0.20    0.56
   9   3   3   -0.10    0.52
 -10  -3  -3   63.25    5.44
  10   3   3   70.79    5.12
 -11  -3  -3   93.16    7.69
  11   3   3  103.66    7.72
  11   3   3  105.98    7.28
 -12  -3  -3   -0.13    1.02
  12   3   3    0.49    0.79
  12   3   3   -0.45    0.89
 -13  -3  -3   32.79    4.33
 -14  -3  -3   28.27    4.03
  14   3   3   23.75    2.90
 -15  -3  -3   -2.62    1.19
  15   3   3   -0.50    0.84
  13  -4  -3   -0.44    1.54
 -13   4   3    0.71    1.25
  12  -4  -3   33.68    3.12
  12  -4  -3   31.48    4.20
 -12   4   3   33.03    3.78
  11  -4  -3   17.85    2.11
  11  -4  -3   15.94    3.27
 -11   4   3   16.60    2.49
  10  -4  -3   20.35    2.09
  10  -4  -3   15.95    3.19
 -10   4   3   19.16    2.52
   9  -4  -3   55.52    4.06
  -9   4   3   50.46    4.38
   8  -4  -3    6.68    1.10
   8  -4  -3    6.43    2.01
  -8   4   3    7.48    1.38
   7  -4  -3   31.64    2.53
   7  -4  -3   29.35    3.44
  -7   4   3   30.96    2.76
   6  -4  -3   49.33    4.52
   6  -4  -3   50.12    3.55
   5  -4  -3   -0.54    0.57
   5  -4  -3    0.12    0.27
  -5   4   3   -0.31    0.37
   4  -4  -3  374.13   23.72
   4  -4  -3  395.24   22.83
  -4   4   3  370.63   22.79
   3  -4  -3  166.28   11.59
   3  -4  -3  168.42   10.70
   3  -4  -3  190.48   10.91
  -3   4   3  183.74   10.84
   2  -4  -3   38.04    2.44
   2  -4  -3   30.33    2.92
  -2   4   3   30.39    2.25
   1  -4  -3   47.15    3.07
   1  -4  -3   36.57    3.33
  -1   4   3   42.46    2.85
  -1   4   3   47.24    2.99
   0  -4  -3  160.29   10.74
   0  -4  -3  167.62   10.25
   0  -4  -3  197.95   10.61
   0   4   3  143.87   10.23
   0   4   3  182.56   10.45
  -1  -4  -3    2.12    0.58
  -1  -4  -3    2.66    0.69
  -1  -4  -3    3.52    0.54
   1   4   3    1.89    0.73
   1   4   3    2.44    0.66
  -2  -4  -3  280.36   17.95
  -2  -4  -3  308.58   18.17
   2   4   3  301.39   18.18
   2   4   3  307.01   18.35
  -3  -4  -3   21.82    1.92
  -3  -4  -3   18.45    1.62
   3   4   3   19.03    1.60
   3   4   3   19.62    1.64
   3   4   3   18.82    1.73
  -4  -4  -3   95.35    6.22
  -4  -4  -3   94.78    6.39
  -4  -4  -3   91.23    6.17
   4   4   3   94.80    6.26
   4   4   3   93.94    6.14
   4   4   3  100.75    6.14
  -5  -4  -3  208.02   13.02
  -5  -4  -3  197.39   13.22
   5   4   3  214.34   12.96
   5   4   3  215.67   12.94
  -6  -4  -3   26.37    2.31
  -6  -4  -3   28.37    2.53
   6   4   3   29.50    2.39
   6   4   3   29.26    2.29
  -7  -4  -3   91.73    6.70
  -7  -4  -3   95.33    6.35
   7   4   3  100.52    6.54
   7   4   3   97.78    6.29
  -8  -4  -3  195.10   12.83
  -8  -4  -3  192.12   12.28
   8   4   3  206.19   12.58
   8   4   3  194.64   12.20
  -9  -4  -3   22.65    2.63
  -9  -4  -3   18.88    1.99
   9   4   3   20.87    1.94
   9   4   3   19.36    2.15
 -10  -4  -3   39.44    4.01
  10   4   3   47.83    3.77
  10   4   3   41.42    3.31
 -11  -4  -3   25.81    3.49
  11   4   3   29.44    2.56
  11   4   3   31.07    2.99
 -12  -4  -3    2.92    1.39
  12   4   3    3.09    1.02
 -13  -4  -3   63.16    5.89
  13   4   3   59.45    5.12
 -14  -4  -3   26.18    3.95
  14   4   3   31.48    3.38
  13  -5  -3   14.49    1.99
 -13   5   3    8.49    1.95
  12  -5  -3   40.13    4.99
  12  -5  -3   48.21    3.79
 -12   5   3   41.46    4.31
  11  -5  -3    1.05    1.58
  11  -5  -3    2.58    0.92
 -11   5   3    2.73    1.30
  10  -5  -3   66.93    6.35
  10  -5  -3   70.53    4.98
 -10   5   3   65.21    5.39
   9  -5  -3   28.68    3.76
   9  -5  -3   29.04    2.52
  -9   5   3   29.07    3.00
   8  -5  -3   -0.47    0.43
  -8   5   3   -0.54    0.60
   7  -5  -3  166.87   12.14
   7  -5  -3  166.33   10.80
  -7   5   3  183.14   11.15
   6  -5  -3   87.84    5.85
   6  -5  -3   89.05    7.04
  -6   5   3   90.13    6.09
   5  -5  -3   22.68    2.86
   5  -5  -3   27.44    2.09
  -5   5   3   25.70    2.26
   4  -5  -3  187.82   11.30
   4  -5  -3  182.13   12.33
  -4   5   3  180.20   11.38
   3  -5  -3  101.75    6.13
   3  -5  -3   93.58    6.97
  -3   5   3   90.34    6.10
   2  -5  -3   82.59    6.30
   2  -5  -3   95.70    5.67
  -2   5   3   86.37    5.56
  -2   5   3   82.67    5.46
   1  -5  -3  331.38   18.40
  -1   5   3  273.81   18.11
  -1   5   3  303.76   18.18
   0  -5  -3  185.65   10.83
   0  -5  -3  164.19   11.08
   0  -5  -3  169.94   10.54
  -1  -5  -3   56.05    3.74
  -1  -5  -3   56.31    3.94
  -1  -5  -3   56.29    4.08
  -2  -5  -3  250.02   15.46
  -2  -5  -3  259.92   15.64
  -2  -5  -3  265.59   15.69
   2   5   3  252.92   15.85
   2   5   3  255.66   15.46
   2   5   3  244.47   15.68
  -3  -5  -3   55.98    3.90
  -3  -5  -3   55.27    4.05
   3   5   3   53.66    3.94
   3   5   3   53.88    4.00
   3   5   3   61.77    3.89
  -4  -5  -3   12.72    1.42
   4   5   3   11.32    1.23
   4   5   3   11.80    1.21
   4   5   3   10.76    1.18
  -5  -5  -3   75.43    5.15
   5   5   3   74.60    5.04
   5   5   3   70.82    4.89
  -6  -5  -3    5.43    1.10
   6   5   3    7.19    0.87
   6   5   3    6.39    0.83
   6   5   3    6.23    0.99
  -7  -5  -3  101.06    7.20
   7   5   3  105.37    7.01
   7   5   3  103.58    6.44
  -8  -5  -3   72.93    5.78
   8   5   3   80.96    5.62
  -9  -5  -3    1.77    1.08
   9   5   3    2.06    0.86
 -10  -5  -3   45.46    4.58
  10   5   3   55.76    4.33
 -11  -5  -3    7.58    1.93
  11   5   3    9.13    1.74
  12   5   3    5.16    1.61
 -13  -5  -3   52.87    5.55
  13   5   3   52.66    4.71
 -14  -5  -3    6.59    2.17
  14   5   3    9.03    2.05
  13  -6  -3   14.86    3.37
  13  -6  -3   15.21    1.97
 -13   6   3   10.73    2.21
  12  -6  -3   11.77    4.25
 -12   6   3   10.04    1.93
  11  -6  -3    0.94    1.53
  11  -6  -3   -0.46    0.50
 -11   6   3   -1.06    0.78
  10  -6  -3   71.23    5.05
  10  -6  -3   79.97    6.86
 -10   6   3   55.99    6.70
   9  -6  -3   45.78    5.14
   9  -6  -3   51.37    3.79
  -9   6   3   50.40    4.24
   8  -6  -3   -0.19    0.45
   8  -6  -3   -0.71    1.16
  -8   6   3    0.09    0.75
   7  -6  -3   41.14    3.07
  -7   6   3   39.56    3.42
   6  -6  -3    2.06    1.44
   6  -6  -3    2.95    0.71
  -6   6   3    4.04    1.05
   5  -6  -3   55.54    5.16
  -5   6   3   62.93    4.36
   4  -6  -3  289.42   19.48
   4  -6  -3  315.38   18.35
   3  -6  -3   29.13    3.14
   3  -6  -3   30.74    2.31
  -3   6   3   28.81    2.35
   2  -6  -3    1.09    0.49
   2  -6  -3    1.18    0.87
  -2   6   3    0.92    0.43
   1  -6  -3  136.67    7.73
   1  -6  -3  121.97    7.83
   1  -6  -3  107.64    8.27
  -1   6   3  119.72    7.70
   0  -6  -3   54.79    3.83
   0  -6  -3   52.33    3.61
   0  -6  -3   50.74    4.35
   0   6   3   54.40    3.68
  -1  -6  -3  205.85   12.51
  -1  -6  -3  200.07   12.89
  -1  -6  -3  199.35   12.70
   1   6   3  209.75   12.51
  -2  -6  -3   27.47    2.34
  -2  -6  -3   26.20    2.16
  -2  -6  -3   26.08    2.30
   2   6   3   26.70    2.10
  -3  -6  -3    0.21    0.42
  -3  -6  -3    0.10    0.50
   3   6   3   -0.04    0.33
   3   6   3    0.25    0.30
   3   6   3   -0.08    0.34
  -4  -6  -3  122.78    7.96
   4   6   3  122.43    7.89
   4   6   3  126.64    7.87
   4   6   3  116.52    7.85
  -5  -6  -3   79.47    5.50
   5   6   3   75.50    5.16
   5   6   3   80.04    5.40
  -6  -6  -3    1.82    0.86
   6   6   3    2.81    0.55
   6   6   3    3.44    0.61
   6   6   3    3.37    0.82
  -8  -6  -3   28.06    3.01
   8   6   3   28.26    2.69
  -9  -6  -3   39.55    3.77
   9   6   3   36.60    3.31
 -10  -6  -3   32.77    3.77
  10   6   3   37.66    3.40
 -11  -6  -3    4.64    1.70
  11   6   3    8.56    1.71
 -12  -6  -3    8.02    2.05
  12   6   3   11.44    2.08
 -13  -6  -3   34.19    4.58
  13   6   3   37.42    3.82
 -14  -6  -3   -0.45    1.51
  13  -7  -3   15.62    3.44
  13  -7  -3   19.40    2.49
  12  -7  -3    7.17    1.46
  12  -7  -3    5.94    2.35
 -12   7   3    4.39    1.39
  11  -7  -3   17.33    3.61
  11  -7  -3    9.44    1.53
 -11   7   3    7.51    1.65
  10  -7  -3   46.34    3.67
  10  -7  -3   52.37    5.52
 -10   7   3   46.89    4.30
   9  -7  -3   29.21    2.58
   9  -7  -3   33.49    4.29
  -9   7   3   30.28    3.19
   8  -7  -3   52.72    3.71
   8  -7  -3   47.43    5.16
  -8   7   3   47.58    4.18
   7  -7  -3  166.70   10.41
   7  -7  -3  179.70   12.33
  -7   7   3  153.02   10.83
   6  -7  -3    0.11    0.38
   6  -7  -3    0.46    1.81
  -6   7   3   -0.91    0.63
   5  -7  -3   83.33    5.53
   5  -7  -3   90.57    7.01
  -5   7   3   79.97    5.84
   4  -7  -3  100.84    6.42
   4  -7  -3   98.86    7.63
  -4   7   3   96.68    6.63
   3  -7  -3   75.84    5.95
   3  -7  -3   69.00    4.85
  -3   7   3   71.35    4.97
   2  -7  -3   90.67    6.96
   2  -7  -3   97.63    6.22
  -2   7   3   90.09    6.17
   1  -7  -3   86.70    6.70
   1  -7  -3   89.36    6.11
   1  -7  -3   98.99    6.05
  -1   7   3   90.40    6.05
   0  -7  -3   10.81    1.39
   0  -7  -3   13.86    1.33
   0  -7  -3   11.08    1.69
   0   7   3   12.28    1.31
  -1  -7  -3  179.32   10.99
  -1  -7  -3  170.41   11.41
  -1  -7  -3  175.39   11.20
   1   7   3  179.87   10.96
  -2  -7  -3   88.18    6.32
  -2  -7  -3   93.41    6.15
  -2  -7  -3   92.20    6.35
   2   7   3   96.39    6.12
  -3  -7  -3    7.21    1.11
  -3  -7  -3    6.31    1.09
   3   7   3    6.40    0.97
   3   7   3    6.30    1.23
  -4  -7  -3   38.54    3.06
   4   7   3   34.71    2.87
   4   7   3   36.55    2.89
   4   7   3   34.93    2.90
  -5  -7  -3   32.32    2.77
   5   7   3   27.99    2.31
   5   7   3   29.99    2.55
   6   7   3   17.05    1.82
  -7  -7  -3   80.11    6.07
   7   7   3   84.55    5.93
  -8  -7  -3   18.73    2.53
   8   7   3   24.51    2.44
  -9  -7  -3   36.05    3.71
   9   7   3   39.39    3.49
 -10  -7  -3   27.66    3.43
  10   7   3   34.52    3.23
 -11  -7  -3    0.62    1.22
  11   7   3    0.68    0.80
 -12  -7  -3   25.08    3.89
  12   7   3   30.41    3.21
 -13  -7  -3   26.74    3.85
  13   7   3   22.50    3.06
  12  -8  -3    4.41    2.42
 -12   8   3    5.80    1.62
  11  -8  -3    4.98    1.08
  11  -8  -3    3.36    2.24
 -11   8   3    5.50    1.61
  10  -8  -3   42.73    5.37
 -10   8   3   47.68    4.24
   9  -8  -3   15.00    1.67
   9  -8  -3   17.43    3.50
  -9   8   3   15.01    2.41
   8  -8  -3   23.74    3.65
   8  -8  -3   17.63    1.83
  -8   8   3   21.20    2.58
   7  -8  -3   59.44    5.64
   7  -8  -3   48.48    3.62
  -7   8   3   48.33    4.22
   6  -8  -3   -0.92    0.89
   5  -8  -3  125.79    9.53
   5  -8  -3  114.25    7.80
  -5   8   3  129.63    8.32
   4  -8  -3   30.78    3.54
   4  -8  -3   28.67    2.43
  -4   8   3   31.17    2.77
   3  -8  -3    0.24    0.99
   3  -8  -3   -0.17    0.50
  -3   8   3    0.25    0.48
   2  -8  -3  114.94    8.43
   2  -8  -3  114.82    7.52
  -2   8   3  112.80    7.58
   1  -8  -3   73.53    5.80
   1  -8  -3   80.43    6.21
  -1   8   3   83.55    5.51
   0  -8  -3   62.84    5.07
   0  -8  -3   64.39    4.60
   0  -8  -3   64.05    4.43
   0   8   3   63.12    4.33
   0   8   3   60.73    4.43
  -1  -8  -3  130.50    8.61
  -1  -8  -3  123.77    8.34
  -1  -8  -3  128.75    8.86
   1   8   3  136.54    8.35
  -2  -8  -3    4.42    0.96
  -2  -8  -3    3.49    1.04
   2   8   3    3.71    0.86
  -3  -8  -3   46.07    3.56
  -3  -8  -3   48.25    3.63
   3   8   3   43.31    3.75
   3   8   3   43.02    3.42
  -4  -8  -3  115.33    7.75
   4   8   3  117.59    7.68
   4   8   3  111.87    7.72
  -5  -8  -3   11.88    1.88
   5   8   3   11.17    1.48
   5   8   3    8.78    1.62
   5   8   3   10.53    1.26
  -6  -8  -3   23.60    2.67
   6   8   3   25.47    2.47
  -7  -8  -3   84.52    6.58
   7   8   3   95.35    6.54
  -8  -8  -3    2.08    1.01
   8   8   3    4.01    1.16
  -9  -8  -3   33.68    3.73
   9   8   3   40.49    3.57
 -11  -8  -3   -1.80    1.17
  11   8   3   -1.18    0.52
 -12  -8  -3   32.42    4.52
  12   8   3   44.04    4.08
  12  -9  -3   -1.72    1.67
 -12   9   3    0.04    0.98
  11  -9  -3   23.30    4.03
 -11   9   3   16.10    2.53
  10  -9  -3   17.15    2.47
 -10   9   3   20.35    2.77
   9  -9  -3    0.68    0.62
   9  -9  -3    0.81    1.75
  -9   9   3    0.86    0.97
   8  -9  -3   49.15    3.81
   8  -9  -3   57.20    5.93
  -8   9   3   59.42    4.73
   7  -9  -3   36.13    4.45
  -7   9   3   30.62    3.35
   6  -9  -3   18.06    2.98
   6  -9  -3   14.28    1.53
  -6   9   3   13.62    2.20
   5  -9  -3   82.85    6.73
   5  -9  -3   66.52    4.90
  -5   9   3   71.06    5.42
   4  -9  -3   63.92    5.64
   4  -9  -3   54.92    4.16
  -4   9   3   58.21    4.58
   3  -9  -3   10.12    2.37
   3  -9  -3    9.53    1.38
  -3   9   3   11.19    1.69
   2  -9  -3  146.70    9.95
   2  -9  -3  146.91   10.61
  -2   9   3  149.47    9.72
   1  -9  -3   34.97    2.93
   1  -9  -3   35.89    3.64
  -1   9   3   31.78    2.57
  -1   9   3   32.25    2.84
   0  -9  -3   27.86    2.54
   0  -9  -3   23.59    2.85
   0  -9  -3   25.71    2.33
   0   9   3   22.92    2.09
   0   9   3   25.00    2.36
  -1  -9  -3   89.10    6.09
  -1  -9  -3   85.42    6.56
   1   9   3   87.10    6.09
   1   9   3   93.93    6.05
  -2  -9  -3    6.77    1.42
  -2  -9  -3    7.32    1.27
   2   9   3    5.65    1.08
  -3  -9  -3  101.93    7.06
  -3  -9  -3   94.08    6.70
   3   9   3   94.55    6.58
  -4  -9  -3  112.82    7.32
   4   9   3  108.81    7.19
   4   9   3   92.90    7.19
  -5  -9  -3    3.14    1.05
   5   9   3    1.58    0.62
   5   9   3    2.18    0.91
   5   9   3    1.85    0.69
  -6  -9  -3   54.43    4.38
   6   9   3   49.23    4.18
  -7  -9  -3   64.74    5.17
   7   9   3   64.14    5.06
  -8  -9  -3    1.27    1.15
   8   9   3    0.96    0.82
   9   9   3   21.63    2.65
 -10  -9  -3    4.18    1.48
  10   9   3    6.25    1.57
  11   9   3   18.82    2.58
 -12  -9  -3    8.20    2.25
  11 -10  -3   39.32    5.14
 -11  10   3   28.92    3.45
  10 -10  -3    8.84    2.84
 -10  10   3    8.03    1.89
   9 -10  -3    0.91    1.78
  -9  10   3   -0.44    0.78
   8 -10  -3   28.17    2.78
   8 -10  -3   42.79    4.92
  -8  10   3   39.36    3.75
   7 -10  -3   12.15    2.84
   7 -10  -3   10.16    1.37
  -7  10   3   16.64    2.51
   6 -10  -3   24.83    3.79
   6 -10  -3   20.67    1.91
  -6  10   3   20.92    2.67
   5 -10  -3  113.11    8.68
   5 -10  -3   86.55    6.48
  -5  10   3  109.89    7.82
   4 -10  -3    2.99    1.87
   4 -10  -3    3.82    0.92
  -4  10   3    4.04    1.15
   3 -10  -3   32.67    3.84
   3 -10  -3   26.24    2.73
  -3  10   3   37.84    2.75
  -3  10   3   33.98    3.16
   2 -10  -3   98.48    8.26
   2 -10  -3   97.20    6.62
  -2  10   3   96.09    6.30
  -2  10   3   94.92    6.82
   1 -10  -3    9.05    1.99
  -1  10   3    8.65    1.17
  -1  10   3    9.40    1.48
   0 -10  -3   72.02    6.04
   0 -10  -3   78.54    5.36
   0  10   3   76.35    5.18
   0  10   3   70.82    5.41
  -1 -10  -3   51.33    4.57
   1  10   3   52.52    3.95
   1  10   3   54.66    4.41
  -2 -10  -3   -0.56    0.67
  -2 -10  -3    0.11    0.78
   2  10   3    0.25    0.54
   2  10   3   -0.08    0.63
  -3 -10  -3  107.91    7.65
  -3 -10  -3  112.42    7.77
   3  10   3  113.73    7.64
  -4 -10  -3   38.25    3.35
   4  10   3   34.17    3.14
  -5 -10  -3   -1.20    0.76
   5  10   3    0.47    0.48
   5  10   3    0.18    0.58
  -6 -10  -3   80.68    5.99
   6  10   3   74.95    5.85
  -7 -10  -3    7.00    1.69
   7  10   3    7.98    1.72
   8  10   3    9.03    1.85
  -9 -10  -3   46.07    4.60
   9  10   3   52.22    4.53
 -10 -10  -3    7.55    1.98
  10  10   3   11.37    2.20
 -11 -10  -3    5.37    1.85
  11  10   3    9.28    1.98
  11 -11  -3   21.57    4.73
  10 -11  -3    8.25    2.99
 -10  11   3    7.05    1.76
   9 -11  -3    7.79    2.44
  -9  11   3    4.06    1.47
   8 -11  -3   34.12    4.76
  -8  11   3   27.82    3.42
   7 -11  -3    2.24    1.73
  -7  11   3    1.67    1.17
   6 -11  -3   19.17    3.29
   6 -11  -3   13.18    1.41
  -6  11   3   17.66    2.58
   5 -11  -3   91.38    7.63
  -5  11   3   84.91    6.45
  -5  11   3   78.99    5.28
   4 -11  -3   -0.16    1.07
  -4  11   3   -0.55    0.28
  -4  11   3    0.61    0.93
   3 -11  -3   73.40    6.72
  -3  11   3   76.29    5.81
   2 -11  -3   75.18    6.79
  -2  11   3   80.71    5.37
  -2  11   3   83.62    6.02
   1 -11  -3    4.17    1.84
  -1  11   3    3.27    0.78
  -1  11   3    3.08    0.95
   0 -11  -3   61.28    4.40
   0 -11  -3   53.28    5.09
   0  11   3   54.82    4.37
   0  11   3   52.04    4.04
  -1 -11  -3   66.84    4.95
  -1 -11  -3   63.91    5.54
   1  11   3   65.19    4.80
   1  11   3   66.58    5.01
  -2 -11  -3    8.66    1.57
  -2 -11  -3   10.29    1.99
   2  11   3   11.84    1.53
   2  11   3   11.11    1.72
  -3 -11  -3   84.20    6.34
  -3 -11  -3   84.72    6.24
   3  11   3   84.02    6.23
   3  11   3   88.41    6.20
  -4 -11  -3   21.00    2.46
   4  11   3   19.77    2.51
   4  11   3   22.73    2.40
  -5 -11  -3   20.88    2.45
   5  11   3   21.18    2.38
   5  11   3   15.57    1.86
  -6 -11  -3   54.52    4.72
   6  11   3   53.56    4.57
  -7 -11  -3    6.69    1.87
   7  11   3    9.02    1.86
  -8 -11  -3    6.41    1.56
   8  11   3   10.00    2.02
  -9 -11  -3   25.30    3.54
   9  11   3   30.64    3.33
 -10 -11  -3    0.84    1.32
  10  11   3   -0.38    0.93
  10 -12  -3    1.77    2.44
 -10  12   3   -1.34    1.11
   9 -12  -3   26.36    4.62
  -9  12   3   23.67    3.25
   8 -12  -3   46.91    5.71
  -8  12   3   44.62    4.47
   7 -12  -3    5.81    2.45
  -7  12   3    6.38    1.82
   6 -12  -3   18.23    5.91
  -6  12   3   19.08    2.82
   5 -12  -3   40.73    4.89
  -5  12   3   32.03    3.66
   4 -12  -3   -0.02    1.42
  -4  12   3   -0.61    1.00
  -4  12   3    0.07    0.30
   3 -12  -3   24.74    3.55
  -3  12   3   20.95    2.76
   2 -12  -3   16.64    2.99
  -2  12   3   15.93    1.58
  -2  12   3   17.92    2.40
   1 -12  -3   11.47    2.64
  -1  12   3    6.34    1.60
  -1  12   3    9.92    1.27
   0 -12  -3   95.91    7.76
   0  12   3  101.34    6.65
   0  12   3   92.95    6.95
  -1 -12  -3   46.26    3.74
  -1 -12  -3   43.00    4.27
   1  12   3   39.53    3.35
   1  12   3   34.04    3.55
  -2 -12  -3    5.84    1.49
  -2 -12  -3    3.61    1.47
   2  12   3    3.97    1.08
   2  12   3    5.00    1.41
  -3 -12  -3   36.31    3.54
  -3 -12  -3   38.35    3.51
   3  12   3   27.79    3.62
   3  12   3   37.99    3.51
   3  12   3   34.43    3.27
  -4 -12  -3    4.15    1.29
   4  12   3    5.32    1.37
   4  12   3    5.74    1.49
   4  12   3    4.14    1.37
   5  12   3   31.47    3.16
  -6 -12  -3   54.87    5.01
   6  12   3   62.44    5.05
  -7 -12  -3    0.91    1.20
   7  12   3    0.76    0.83
  -8 -12  -3    7.52    1.72
  -9 -12  -3   13.38    2.52
   9  12   3   16.76    2.62
   9 -13  -3    8.53    3.00
  -9  13   3    5.22    1.69
   8 -13  -3    2.74    2.36
  -8  13   3    4.21    3.19
   7 -13  -3    3.04    2.41
  -7  13   3    0.76    1.30
   6 -13  -3   50.53    5.84
  -6  13   3   41.11    4.44
   5 -13  -3   20.19    4.22
  -5  13   3    8.45    2.08
   4 -13  -3    2.02    1.97
  -4  13   3    0.35    1.04
   3 -13  -3   31.89    4.20
  -3  13   3   26.18    3.06
   2 -13  -3    4.30    1.92
  -2  13   3    4.13    0.86
  -2  13   3    4.62    1.28
   1 -13  -3   20.10    3.38
  -1  13   3   19.23    1.93
  -1  13   3   18.87    2.54
   0 -13  -3   42.77    4.58
   0  13   3   37.14    3.64
   0  13   3   41.33    3.31
  -1 -13  -3   -0.71    1.20
  -1 -13  -3   -0.36    0.85
   1  13   3   -0.21    0.56
   1  13   3   -0.24    0.69
  -2 -13  -3   44.61    4.41
  -2 -13  -3   43.70    3.94
   2  13   3   41.64    3.93
   2  13   3   44.83    3.80
  -3 -13  -3   49.76    4.59
   3  13   3   43.62    4.81
   3  13   3   50.65    4.32
   3  13   3   66.03    6.03
  -4 -13  -3    0.24    0.96
   4  13   3   -0.74    0.85
   4  13   3    0.47    0.83
  -5 -13  -3   44.01    4.28
   5  13   3   49.10    4.39
   5  13   3   39.59    3.98
  -6 -13  -3   35.83    3.93
   6  13   3   39.75    3.84
  -7 -13  -3   -0.06    1.35
   7  13   3    1.04    0.99
  -8 -13  -3   25.66    3.30
   8  13   3   23.75    3.14
   7 -14  -3    6.85    2.70
  -7  14   3   10.13    2.27
   6 -14  -3   41.06    5.21
  -6  14   3   33.15    4.01
   5 -14  -3    4.52    2.20
  -5  14   3   -1.67    1.15
   4 -14  -3    7.33    2.52
  -4  14   3    4.18    1.74
   2 -14  -3    1.94    1.75
  -2  14   3    2.73    1.84
   1 -14  -3   18.43    3.40
  -1  14   3   17.32    3.37
  -1  14   3   17.41    1.85
   0 -14  -3   20.08    3.59
   0  14   3   25.49    3.18
   0  14   3   23.79    2.93
  -1 -14  -3   -0.86    1.43
   1  14   3    0.04    0.63
   1  14   3    0.63    0.91
  -2 -14  -3   39.18    4.51
  -2 -14  -3   45.78    4.20
   2  14   3   43.99    3.83
   2  14   3   46.75    4.29
  -3 -14  -3   37.71    4.87
  -3 -14  -3   39.00    3.77
   3  14   3   37.29    3.51
   3  14   3   34.37    6.17
   3  14   3   33.64    3.67
  -4 -14  -3    0.00    1.08
   4  14   3   -0.07    1.06
   4  14   3   -0.56    0.60
  -5 -14  -3   57.83    5.16
   5  14   3   57.03    4.95
   5  14   3   55.14    5.17
  -6 -14  -3    9.58    2.02
   6  14   3    9.38    2.10
   6  14   3    9.73    2.13
   5 -15  -3    0.79    2.09
   4 -15  -3   13.68    3.40
  -4  15   3   13.06    2.54
   3 -15  -3   31.16    4.56
  -3  15   3   31.12    3.60
   2 -15  -3    3.85    2.17
  -2  15   3    3.94    1.43
   1 -15  -3   34.24    4.75
  -1  15   3   39.56    3.99
   0 -15  -3   16.91    3.41
   0  15   3   24.28    3.08
  -1 -15  -3   -2.51    1.41
   1  15   3   -1.10    0.64
   2  15   3   23.72    2.62
   2  15   3   24.64    3.02
  -3 -15  -3    8.57    2.20
   3  15   3   12.75    2.33
  -4 -15  -3   11.78    2.12
   4  15   3    9.48    1.82
   4  15   3    6.24    1.80
  -2  13  -4   -2.03    0.86
   2 -13   4   -2.91    1.81
  -3  13  -4   11.36    2.55
   3 -13   4    8.64    2.74
  -4  13  -4   35.88    4.22
   2  12  -4   46.58    4.67
   2  12  -4   47.26    3.94
   1  12  -4    1.86    0.85
   1  12  -4    3.06    1.42
   0  12  -4   11.42    2.14
   0 -12   4   11.80    2.93
  -1  12  -4   32.09    3.76
   1 -12   4   31.23    4.35
  -2  12  -4    0.86    1.04
   2 -12   4    0.10    1.66
  -3  12  -4   10.90    2.20
   3 -12   4    9.48    2.88
  -4  12  -4   10.59    2.32
   4 -12   4   18.81    4.05
  -5  12  -4   -1.00    1.09
   5 -12   4    0.56    1.92
  -6  12  -4   16.84    3.22
   6 -12   4   24.33    4.83
  -7  12  -4    8.16    2.51
   7 -12   4   13.83    3.70
  -8  12  -4    1.98    1.53
  -5 -11   4   15.16    2.64
   4  11  -4    2.27    0.91
   4  11  -4   -1.50    0.99
   3  11  -4   34.45    3.34
   3  11  -4   37.73    3.91
   2  11  -4   24.82    2.59
   2  11  -4   26.71    3.21
   1  11  -4    0.32    1.01
   1  11  -4    0.40    0.57
   0  11  -4   36.11    3.78
   0  11  -4   38.22    2.98
   0 -11   4   34.79    4.46
  -1  11  -4   30.92    3.50
  -1  11  -4   28.40    2.49
   1 -11   4   30.91    4.20
  -2  11  -4    6.46    1.61
   2 -11   4    0.62    1.82
  -3  11  -4   49.08    4.69
   3 -11   4   45.88    5.43
  -4  11  -4   28.21    3.70
   4 -11   4   32.20    4.66
  -5  11  -4    8.43    2.14
  -6  11  -4   37.62    4.50
   6 -11   4   44.88    5.72
  -7  11  -4   10.35    2.44
   7 -11   4    9.02    2.75
  -8  11  -4    3.21    1.80
   8 -11   4    1.92    2.35
  -9  11  -4   25.68    3.76
   9 -11   4   17.75    4.01
   6  10  -4    5.68    1.53
   6  10  -4    7.68    2.00
  -6 -10   4    6.23    1.87
   5  10  -4   27.57    3.50
   5  10  -4   31.65    3.14
  -5 -10   4   25.44    3.36
   4  10  -4    5.15    1.30
   4  10  -4    3.51    1.52
  -4 -10   4    5.36    1.57
   3  10  -4   48.79    4.09
   3  10  -4   46.84    4.52
   2  10  -4   27.01    3.08
   2  10  -4   28.15    2.68
  -2 -10   4   24.32    3.23
   1  10  -4    3.16    0.90
  -1 -10   4    3.55    1.66
   0  10  -4   49.85    4.48
   0  10  -4   52.06    3.76
   0 -10   4   44.15    6.75
  -1  10  -4   30.63    3.18
  -1  10  -4   27.09    2.26
   1 -10   4   28.95    3.93
  -2  10  -4    4.13    1.38
   2 -10   4    4.61    1.94
  -3  10  -4   68.14    5.71
   3 -10   4   68.99    6.62
  -4  10  -4    6.76    1.74
   4 -10   4    8.71    2.74
  -5  10  -4   16.65    3.54
   5 -10   4   14.81    3.25
   6 -10   4   35.66    4.79
  -7  10  -4   -1.03    1.10
   7 -10   4   -0.06    1.82
  -8  10  -4   14.83    2.95
   8 -10   4   14.40    3.52
  -9  10  -4   34.74    4.46
   9 -10   4   31.21    5.08
 -10  10  -4   -1.16    1.18
  10 -10   4   -2.21    1.77
 -11  10  -4   33.82    4.27
  11 -10   4   29.09    5.72
   7   9  -4   -2.33    1.00
   7   9  -4   -0.20    0.80
  -7  -9   4   -2.43    1.03
   6   9  -4   21.33    2.91
   6   9  -4   16.16    2.34
  -6  -9   4   18.60    2.67
   5   9  -4   30.95    3.43
   5   9  -4   32.31    3.21
  -5  -9   4   31.22    3.38
   4   9  -4    5.88    2.24
   4   9  -4    7.72    1.56
   3   9  -4   28.94    3.40
   3   9  -4   35.41    3.21
  -3  -9   4   36.40    3.48
   2   9  -4    4.20    1.10
   2   9  -4    5.92    1.48
  -2  -9   4    2.86    1.39
   1   9  -4   15.84    1.81
   1   9  -4   16.55    2.35
  -1  -9   4   19.94    2.83
   0   9  -4   76.66    5.72
   0   9  -4   68.71    4.97
   0  -9   4   72.28    6.19
  -1   9  -4    1.80    0.90
  -1   9  -4    2.27    0.56
   1  -9   4    0.99    1.32
  -2   9  -4   41.57    4.02
   2  -9   4   45.82    4.75
  -3   9  -4  143.72    8.91
  -3   9  -4  140.79   10.22
   3  -9   4  162.86   11.46
  -4   9  -4    0.75    0.92
   4  -9   4    5.24    2.29
  -5   9  -4   24.21    3.16
   5  -9   4   23.80    3.87
  -6   9  -4   16.50    2.66
   6  -9   4   21.88    3.77
  -7   9  -4    0.55    1.18
   7  -9   4    3.11    1.70
   8  -9   4   44.25    9.47
  -9   9  -4   15.38    2.89
   9  -9   4   20.46    4.29
 -10   9  -4    2.99    1.83
  10  -9   4    3.83    2.43
 -11   9  -4   43.58    4.70
  11  -9   4   40.92    5.93
 -12   9  -4    0.71    1.41
  12  -9   4   -1.41    2.07
   8   8  -4    4.38    1.59
   8   8  -4    4.49    1.54
  -8  -8   4    1.21    1.28
   7   8  -4    0.81    1.14
   7   8  -4    0.40    0.85
  -7  -8   4   -1.80    0.90
   5   8  -4    0.97    1.09
   5   8  -4    2.01    1.03
  -5  -8   4    2.40    1.23
   4   8  -4   57.04    4.75
   4   8  -4   62.84    5.05
  -4  -8   4   61.09    4.99
   3   8  -4   84.63    6.32
   3   8  -4   90.94    6.61
  -3  -8   4   92.20    6.61
   2   8  -4    8.06    1.66
  -2  -8   4    9.07    1.77
  -2  -8   4    5.27    1.42
   1   8  -4   39.67    3.16
   1   8  -4   39.59    3.61
  -1  -8   4   38.86    3.87
   0   8  -4   89.90    6.53
   0   8  -4   88.35    5.93
   0  -8   4   88.36    7.01
  -1   8  -4    2.72    1.01
  -1   8  -4    5.07    0.78
   1  -8   4    5.33    1.81
  -2   8  -4   84.16    5.44
  -2   8  -4   85.46    6.37
   2  -8   4   86.43    7.14
  -3   8  -4  120.67    8.96
  -3   8  -4  125.29    7.82
   3  -8   4  143.42   10.12
  -4   8  -4   -0.18    0.79
   4  -8   4   -1.47    1.15
  -5   8  -4   74.33    6.26
   5  -8   4   86.34    7.34
  -6   8  -4   75.30    6.14
   6  -8   4   76.60    7.19
  -7   8  -4    0.18    0.93
   7  -8   4    1.91    1.70
  -8   8  -4   23.25    3.34
   8  -8   4   29.31    4.24
  -9   8  -4   23.60    3.34
   9  -8   4   29.05    4.37
 -10   8  -4   19.44    3.69
  10  -8   4   15.05    3.65
 -11   8  -4   15.20    2.86
  11  -8   4   25.45    4.90
 -12   8  -4   -1.52    1.04
  12  -8   4   -0.06    2.09
  13  -8   4   11.38    3.33
   9   7  -4   39.78    3.99
  -9  -7   4   42.54    4.25
   8   7  -4   21.42    2.69
  -8  -7   4   17.15    2.76
   7   7  -4    5.00    1.32
  -7  -7   4    2.15    1.17
   6   7  -4   24.15    2.71
   6   7  -4   25.50    2.82
  -6  -7   4   24.10    2.81
   5   7  -4   -1.30    0.58
   5   7  -4   -0.66    0.55
  -5  -7   4   -0.39    0.71
   4   7  -4   55.29    4.44
   4   7  -4   65.01    4.71
  -4  -7   4   50.39    3.84
  -4  -7   4   57.90    4.58
   3   7  -4  121.01    8.32
   3   7  -4  128.87    8.52
  -3  -7   4  121.49    8.38
  -3  -7   4  124.05    8.50
   2   7  -4    0.97    0.60
   2   7  -4    2.97    1.04
  -2  -7   4    2.68    0.99
   1   7  -4   29.92    2.48
   1   7  -4   31.84    2.91
  -1  -7   4   25.89    3.03
   0   7  -4   40.09    3.26
   0   7  -4   34.64    2.71
   0  -7   4   31.37    3.50
  -1   7  -4    5.11    0.80
  -1   7  -4    5.64    1.23
   1  -7   4    8.14    1.93
  -2   7  -4   81.65    6.09
  -2   7  -4   83.97    5.32
   2  -7   4   85.17    6.89
  -3   7  -4   44.52    2.89
  -3   7  -4   42.38    3.82
   3  -7   4   44.92    4.51
  -4   7  -4   12.34    2.06
  -5   7  -4   93.57    6.96
   5  -7   4   93.45    7.86
  -6   7  -4   22.30    2.87
   6  -7   4   26.02    3.61
  -7   7  -4   10.38    2.06
   7  -7   4    8.00    2.41
  -8   7  -4   34.79    3.94
   8  -7   4   42.36    4.83
  -9   7  -4   -1.10    0.90
   9  -7   4   -0.63    1.42
 -10   7  -4   25.95    3.57
  10  -7   4   35.07    4.54
 -11   7  -4   29.20    3.84
  11  -7   4   35.57    5.05
 -12   7  -4    0.90    1.24
 -13   7  -4   34.87    4.38
  13  -7   4   30.25    4.94
  10   6  -4   16.27    2.45
 -10  -6   4   10.41    2.25
   9   6  -4   27.58    3.14
  -9  -6   4   27.31    3.44
   8   6  -4    2.77    1.18
  -8  -6   4    2.52    1.29
   7   6  -4   22.56    2.59
  -7  -6   4   21.05    2.70
   6   6  -4   25.31    2.72
  -6  -6   4   27.02    2.91
   5   6  -4    2.53    0.96
  -5  -6   4    2.37    1.08
   4   6  -4   68.91    4.80
   4   6  -4   58.89    4.57
  -4  -6   4   55.13    4.11
  -4  -6   4   59.65    4.68
  -4  -6   4   60.17    4.70
   3   6  -4   47.04    3.75
   3   6  -4   45.53    3.60
  -3  -6   4   46.29    3.75
  -3  -6   4   41.54    3.54
   2   6  -4   12.18    1.92
   2   6  -4    9.27    1.32
  -2  -6   4   13.86    2.03
   1   6  -4  153.05   10.22
   1   6  -4  158.50   10.01
  -1  -6   4  152.75   10.57
  -1  -6   4  166.91   10.29
   0   6  -4   76.58    5.43
   0   6  -4   76.45    5.05
   0  -6   4   73.11    5.86
  -1   6  -4   27.93    2.74
  -1   6  -4   31.90    2.45
   1  -6   4   31.47    3.32
  -2   6  -4   91.03    6.68
  -2   6  -4   99.22    6.04
   2  -6   4   97.31    7.43
  -3   6  -4   47.81    3.09
  -3   6  -4   46.28    3.91
   3  -6   4   48.68    4.63
  -4   6  -4   18.97    2.25
   4  -6   4   18.06    2.90
   5  -6   4  104.32    8.40
  -6   6  -4    5.62    1.44
   6  -6   4    5.58    1.94
  -7   6  -4   61.24    5.48
   7  -6   4   82.70    6.90
  -8   6  -4   48.18    4.54
   8  -6   4   54.12    5.60
  -9   6  -4    1.89    1.29
   9  -6   4    1.93    1.64
 -10   6  -4   20.63    2.97
  10  -6   4   28.05    3.98
 -11   6  -4   22.69    3.22
  11  -6   4   19.27    4.03
 -12   6  -4    0.81    1.37
  12  -6   4    2.33    2.05
 -13   6  -4   52.61    5.28
  13  -6   4   51.23    6.27
 -14   6  -4    6.68    2.04
  14  -6   4    3.50    2.20
  11   5  -4   -0.23    0.87
 -11  -5   4   -1.15    1.31
  10   5  -4   27.89    3.13
 -10  -5   4   21.46    3.17
   9   5  -4   72.08    5.95
  -9  -5   4   77.45    6.09
   8   5  -4   -0.26    0.49
  -8  -5   4   -0.88    0.83
   7   5  -4   17.40    2.22
  -7  -5   4   16.26    2.37
   6   5  -4    1.83    0.88
  -6  -5   4    1.80    1.00
   5   5  -4   10.40    1.53
  -5  -5   4    8.34    1.61
  -4  -5   4   92.56    6.59
  -4  -5   4   93.48    6.25
  -4  -5   4   99.42    6.52
   3   5  -4   11.59    1.43
   3   5  -4   10.17    1.47
  -3  -5   4    9.93    1.48
  -3  -5   4    9.81    1.48
   2   5  -4   67.82    4.76
   2   5  -4   62.92    4.60
  -2  -5   4   67.45    4.77
  -2  -5   4   64.88    4.91
   1   5  -4  139.58    9.18
   1   5  -4  137.82    9.01
  -1  -5   4  145.00    9.71
  -1  -5   4  147.20    9.22
   0   5  -4    3.42    0.67
   0   5  -4    2.58    0.74
   0  -5   4    2.63    1.08
  -1   5  -4   81.59    5.10
  -1   5  -4   74.39    5.48
   1  -5   4   80.59    6.12
  -2   5  -4  143.17    8.09
  -2   5  -4  132.42    8.68
   2  -5   4  135.27    9.37
   2  -5   4  115.23    8.12
  -3   5  -4    0.08    0.23
  -3   5  -4   -0.32    0.50
   3  -5   4    0.15    0.66
  -4   5  -4   60.50    4.58
   4  -5   4   58.61    5.25
  -5   5  -4  118.00    8.32
   5  -5   4  126.05    9.27
  -6   5  -4   -0.67    0.73
   6  -5   4   -0.63    1.09
  -7   5  -4   99.96    7.65
   7  -5   4  115.13    8.72
  -8   5  -4   40.29    3.88
   8  -5   4   40.79    4.57
  -9   5  -4   21.98    2.79
   9  -5   4   23.93    3.67
 -10   5  -4   48.10    4.77
  10  -5   4   56.44    5.75
 -11   5  -4   23.08    3.17
  11  -5   4   23.69    2.18
  11  -5   4   30.05    4.18
 -12   5  -4    6.95    2.24
  12  -5   4    8.52    2.75
 -13   5  -4   64.53    5.94
  13  -5   4   56.07    6.53
 -14   5  -4   -0.74    1.37
  14  -5   4    0.83    1.80
  11   4  -4    0.01    0.93
 -11  -4   4   -0.04    1.28
  10   4  -4   25.87    2.99
 -10  -4   4   25.51    3.22
   9   4  -4   22.43    2.70
  -9  -4   4   23.08    2.84
   8   4  -4    9.80    1.81
  -8  -4   4    7.28    1.44
   7   4  -4   61.92    4.80
  -7  -4   4   58.05    4.74
   6   4  -4   20.03    2.23
   5   4  -4   89.68    6.47
  -5  -4   4   93.07    6.47
  -5  -4   4   94.66    5.96
   4   4  -4   60.16    4.42
  -4  -4   4   55.70    4.10
  -4  -4   4   60.01    4.41
  -4  -4   4   62.61    4.28
   3   4  -4   28.33    2.46
  -3  -4   4   29.44    2.54
  -3  -4   4   28.50    2.54
   2   4  -4  169.25   10.78
   2   4  -4  170.97   10.80
  -2  -4   4  176.48   10.84
  -2  -4   4  169.66   11.10
   1   4  -4  201.98   12.51
   1   4  -4  195.57   12.59
  -1  -4   4  195.47   13.02
  -1  -4   4  217.82   12.66
   0   4  -4    2.74    0.57
   0   4  -4    3.22    0.76
   0  -4   4    4.99    1.27
  -1   4  -4  218.37   13.84
  -1   4  -4  222.83   13.49
   1  -4   4  228.02   14.50
  -2   4  -4  184.66   11.88
  -2   4  -4  198.79   11.43
   2  -4   4  186.80   12.55
   2  -4   4  183.80   11.38
  -3   4  -4    9.39    1.33
  -3   4  -4    8.78    0.82
   3  -4   4   10.18    1.80
  -4   4  -4  112.16    7.65
  -4   4  -4  127.02    6.92
   4  -4   4  102.54    6.81
   4  -4   4  114.77    8.42
  -5   4  -4  200.66   13.24
   5  -4   4  215.90   14.17
  -6   4  -4    2.63    1.12
   6  -4   4    3.07    1.33
  -7   4  -4   58.65    4.79
   7  -4   4   62.81    3.63
   7  -4   4   59.33    5.56
   7  -4   4   54.52    3.68
  -8   4  -4    9.35    1.91
   8  -4   4    7.40    0.68
   8  -4   4    5.94    1.89
  -9   4  -4   34.94    3.51
   9  -4   4   32.56    2.22
   9  -4   4   29.00    3.98
 -10   4  -4   40.47    4.18
  10  -4   4   39.63    4.83
  10  -4   4   41.40    2.83
 -11   4  -4    8.66    2.07
  11  -4   4   11.07    1.18
  11  -4   4   11.14    2.73
 -12   4  -4   32.15    3.76
  12  -4   4   32.16    2.47
  12  -4   4   29.39    4.33
 -13   4  -4   44.29    4.70
  13  -4   4   37.06    6.59
 -14   4  -4    1.45    1.59
  14  -4   4   -1.38    1.74
 -15   4  -4    3.98    1.98
  15  -4   4    6.39    2.78
  12   3  -4    7.34    1.89
 -12  -3   4    1.57    1.55
  11   3  -4    3.96    1.42
 -11  -3   4    1.36    1.31
  10   3  -4   64.84    5.29
 -10  -3   4   60.13    5.23
   9   3  -4   15.45    2.07
  -9  -3   4   15.63    2.33
   8   3  -4   21.25    2.40
  -8  -3   4   20.34    2.48
   7   3  -4   46.25    3.74
  -7  -3   4   41.45    3.77
   6   3  -4   10.50    1.52
  -6  -3   4   11.60    1.69
  -6  -3   4    8.78    1.26
   5   3  -4   94.20    6.59
  -5  -3   4  101.93    6.44
  -5  -3   4   95.61    6.56
  -5  -3   4   91.73    6.52
   4   3  -4  107.76    7.22
  -4  -3   4  106.22    7.02
  -4  -3   4  106.03    7.14
  -4  -3   4  112.85    7.21
   3   3  -4    0.53    0.43
   3   3  -4    0.89    0.48
  -3  -3   4    0.35    0.59
  -3  -3   4    0.15    0.40
  -3  -3   4    0.07    0.43
   2   3  -4  222.68   13.21
   2   3  -4  217.18   13.24
  -2  -3   4  211.44   13.20
  -2  -3   4  205.66   13.55
   1   3  -4  216.45   13.41
   1   3  -4  223.96   13.46
  -1  -3   4  230.40   13.49
  -1  -3   4  205.26   13.89
   0   3  -4   56.88    3.78
   0   3  -4   57.06    3.92
   0  -3   4   55.17    4.41
  -1   3  -4  210.13   13.01
  -1   3  -4  227.95   12.78
   1  -3   4  187.87   15.06
  -2   3  -4   51.48    3.79
  -2   3  -4   57.40    3.48
   2  -3   4   45.99    4.27
   2  -3   4   55.07    3.44
  -3   3  -4   45.50    2.78
  -3   3  -4   38.76    3.15
   3  -3   4   38.24    3.71
  -4   3  -4  157.24    9.07
  -4   3  -4  137.35    9.57
   4  -3   4  156.41    8.97
   4  -3   4  142.81   10.28
  -5   3  -4   76.46    5.85
   5  -3   4   78.97    5.14
   5  -3   4   82.85    6.56
   5  -3   4   97.47    5.21
  -6   3  -4   15.21    1.90
   6  -3   4   13.91    1.04
   6  -3   4   13.20    2.17
  -7   3  -4   79.27    5.89
   7  -3   4   90.34    5.22
   7  -3   4   73.38    4.94
   7  -3   4   74.80    6.48
  -8   3  -4    5.62    1.46
   8  -3   4    6.57    0.73
   8  -3   4    5.71    1.81
  -9   3  -4   63.15    5.53
   9  -3   4   73.81    4.66
   9  -3   4   74.74    6.48
 -10   3  -4   20.07    2.71
  10  -3   4   18.53    3.20
  10  -3   4   19.85    1.70
 -11   3  -4    1.70    1.11
  11  -3   4    0.72    1.50
  11  -3   4    1.18    0.52
 -12   3  -4   52.84    5.16
  12  -3   4   53.13    5.77
  12  -3   4   59.62    4.09
  13  -3   4   28.43    4.30
  13  -3   4   34.31    2.82
 -14   3  -4   -1.70    0.93
  14  -3   4    0.37    0.86
 -15   3  -4   23.18    3.54
  15  -3   4   17.86    3.83
  12   2  -4    6.59    1.72
  11   2  -4   10.70    2.06
 -11  -2   4    8.29    2.08
  10   2  -4   29.01    3.34
 -10  -2   4   30.01    3.34
   9   2  -4    3.85    1.22
  -9  -2   4    1.31    1.21
  -9  -2   4    3.77    1.23
   8   2  -4   13.28    1.79
  -8  -2   4    8.93    1.79
  -8  -2   4   12.41    1.70
   7   2  -4   94.80    6.77
  -7  -2   4   93.34    6.67
  -7  -2   4   99.68    6.61
   6   2  -4   34.27    2.94
  -6  -2   4   35.72    2.92
  -6  -2   4   28.19    3.02
  -6  -2   4   35.34    2.96
   5   2  -4   68.75    4.88
  -5  -2   4   68.51    4.78
  -5  -2   4   64.15    4.76
  -5  -2   4   70.01    4.90
   4   2  -4  105.42    6.93
  -4  -2   4  112.25    7.09
  -4  -2   4  102.45    6.80
  -4  -2   4   97.90    6.82
   3   2  -4   18.83    1.76
  -3  -2   4   20.07    1.98
  -3  -2   4   18.93    1.70
  -3  -2   4   19.39    1.77
   2   2  -4   84.21    5.40
  -2  -2   4   78.51    5.71
   1   2  -4   47.42    3.12
   1   2  -4   41.95    3.09
  -1  -2   4   41.93    3.56
  -1  -2   4   46.56    3.13
   0   2  -4  277.85   16.83
   0   2  -4  280.81   16.78
   0  -2   4  277.13   17.48
  -1   2  -4  244.90   15.63
  -1   2  -4  275.96   15.52
   1  -2   4  243.03   16.29
   1  -2   4  266.31   15.53
  -2   2  -4   71.54    4.96
  -2   2  -4   80.06    4.73
   2  -2   4   77.15    4.69
   2  -2   4   64.41    5.87
  -3   2  -4   94.55    5.96
  -3   2  -4   89.03    6.25
   3  -2   4   84.44    6.81
   3  -2   4  111.34    6.02
  -4   2  -4  115.52    7.53
  -4   2  -4  116.18    7.11
   4  -2   4  111.70    8.14
  -5   2  -4    0.28    0.31
  -5   2  -4    0.18    0.52
   5  -2   4    0.28    0.20
   5  -2   4    0.42    0.29
   5  -2   4    0.33    0.67
  -6   2  -4  117.22    7.90
   6  -2   4  132.04    7.44
   6  -2   4  110.80    8.44
   6  -2   4  108.13    7.17
  -7   2  -4   40.13    3.45
   7  -2   4   39.67    4.00
   7  -2   4   38.88    2.69
  -8   2  -4   -0.40    0.67
   8  -2   4   -0.38    0.82
   8  -2   4   -0.05    0.27
  -9   2  -4   64.98    5.55
   9  -2   4   72.25    4.70
   9  -2   4   72.67    6.25
 -10   2  -4   36.43    3.75
  10  -2   4   40.07    2.96
  10  -2   4   39.94    4.42
 -11   2  -4   43.47    4.26
  11  -2   4   44.69    4.76
  11  -2   4   42.69    3.30
 -12   2  -4   49.63    4.73
  12  -2   4   48.51    3.71
  12  -2   4   47.84    5.30
 -13   2  -4   13.44    2.64
  13  -2   4   17.58    1.93
  13  -2   4   10.87    3.01
 -14   2  -4    4.51    1.71
  14  -2   4    6.21    1.36
  14  -2   4    9.31    2.57
 -15   2  -4   55.84    5.49
  15  -2   4   50.40    3.99
  15  -2   4   35.15    5.25
  12   1  -4   -1.02    0.76
  11   1  -4   43.15    3.96
 -11  -1   4   39.96    4.11
  10   1  -4   53.88    4.41
 -10  -1   4   46.61    4.40
   9   1  -4    2.64    0.94
  -9  -1   4   -0.31    1.26
   8   1  -4   26.75    2.65
  -8  -1   4   26.35    2.69
   7   1  -4   40.69    3.46
  -7  -1   4   39.39    3.38
  -7  -1   4   44.99    3.70
   6   1  -4   28.08    2.64
  -6  -1   4   33.45    2.91
  -6  -1   4   29.80    2.58
   5   1  -4  163.13   10.31
  -5  -1   4  166.51   10.50
  -5  -1   4  153.43   10.11
   4   1  -4   79.59    5.26
  -4  -1   4   73.05    5.39
  -4  -1   4   77.50    5.27
   3   1  -4   68.12    4.56
  -3  -1   4   65.44    4.39
  -3  -1   4   66.55    4.79
   2   1  -4  171.97   10.11
  -2  -1   4  162.18   10.45
  -2  -1   4  143.04   10.38
  -2  -1   4  171.09    9.95
   1   1  -4  276.63   18.16
   1   1  -4  303.56   18.11
   1   1  -4  305.73   18.23
  -1  -1   4  323.95   18.14
  -1  -1   4  302.86   18.75
   0   1  -4  224.23   13.99
   0   1  -4  234.22   14.00
   0   1  -4  245.67   14.06
   0  -1   4  224.47   14.67
  -1   1  -4  190.90   11.39
  -1   1  -4  175.62   11.42
   1  -1   4  176.28   12.11
   1  -1   4  200.41   11.42
   1  -1   4  195.26   11.64
  -2   1  -4    0.32    0.30
  -2   1  -4   -0.05    0.16
   2  -1   4    0.11    0.19
   2  -1   4    0.32    0.50
  -3   1  -4  205.11   12.83
  -3   1  -4  229.25   12.67
   3  -1   4  189.20   13.42
  -4   1  -4  201.04   11.85
  -4   1  -4  190.16   11.54
   4  -1   4  174.56   12.36
  -5   1  -4   33.23    2.82
  -5   1  -4   34.77    2.56
   5  -1   4   38.31    2.54
   5  -1   4   34.17    3.31
   5  -1   4   32.50    2.35
  -6   1  -4  139.85    9.79
   6  -1   4  148.66    9.30
   6  -1   4  168.78   10.58
  -7   1  -4  132.77    8.77
   7  -1   4  133.55    9.33
   7  -1   4  125.83    8.11
  -8   1  -4   23.74    2.54
   8  -1   4   22.68    1.90
   8  -1   4   24.84    3.03
   9  -1   4   74.50    6.11
   9  -1   4   68.18    4.78
 -10   1  -4    4.51    1.38
  10  -1   4    6.01    1.03
  10  -1   4    5.31    1.80
 -11   1  -4   25.96    3.24
  11  -1   4   28.43    2.45
  11  -1   4   27.38    3.49
 -12   1  -4   73.75    6.15
  12  -1   4   70.12    5.45
  12  -1   4   70.56    6.53
 -13   1  -4    3.63    1.58
  13  -1   4    3.41    1.09
  13  -1   4    2.81    1.77
 -14   1  -4    9.31    2.19
  14  -1   4    9.30    2.22
  14  -1   4   14.29    1.85
 -15   1  -4   10.03    2.57
  15  -1   4   14.05    2.92
  13   0  -4    9.27    1.85
 -13   0   4    0.47    1.67
  12   0  -4    3.27    1.19
 -12   0   4   -1.09    1.14
  11   0  -4   38.93    3.55
 -11   0   4   28.97    3.61
 -11   0   4   31.65    4.36
  10   0  -4   22.96    2.47
 -10   0   4   18.69    3.27
 -10   0   4   17.00    2.51
   9   0  -4    0.44    0.58
  -9   0   4   -0.91    1.14
   8   0  -4   76.27    5.63
  -8   0   4   84.29    6.31
  -8   0   4   71.40    5.55
   7   0  -4    0.06    0.51
  -7   0   4   -1.32    0.74
  -7   0   4   -0.10    0.55
   6   0  -4   58.77    4.35
  -6   0   4   59.44    4.21
   5   0  -4   78.03    5.14
  -5   0   4   68.85    5.41
   4   0  -4   11.77    1.31
  -4   0   4   12.43    1.56
  -4   0   4   11.50    1.17
   3   0  -4   97.26    6.08
   3   0  -4   86.63    5.77
  -3   0   4   89.46    5.81
  -3   0   4   99.62    6.47
   2   0  -4  355.48   23.12
   2   0  -4  414.05   23.42
  -2   0   4  394.18   23.15
  -2   0   4  396.50   23.80
   1   0  -4    6.68    1.20
   1   0  -4    8.40    0.75
   1   0  -4    9.16    0.92
  -1   0   4    8.86    0.77
  -1   0   4    7.71    1.20
   0   0  -4  269.86   14.88
   0   0  -4  222.17   15.60
   0   0  -4  245.40   14.70
   0   0   4  244.99   15.41
  -1   0  -4  226.12   13.14
  -1   0  -4  202.22   13.05
   1   0   4  214.07   13.07
   1   0   4  241.09   13.16
   1   0   4  201.45   13.75
  -2   0  -4    6.16    0.74
  -2   0  -4    5.16    0.73
   2   0   4    4.59    1.11
   2   0   4    6.17    0.69
   2   0   4    5.70    0.72
  -3   0  -4  202.48   11.75
  -3   0  -4  169.37   11.60
   3   0   4  201.72   12.45
  -4   0  -4  148.54    8.82
  -4   0  -4  139.12    8.90
   4   0   4  146.68    8.74
   4   0   4  127.01    9.40
  -5   0  -4  160.72    9.36
  -5   0  -4  139.66    9.42
   5   0   4  143.23    9.96
   5   0   4  147.66    9.09
  -6   0  -4  247.05   14.97
   6   0   4  252.21   15.54
   6   0   4  221.74   14.50
  -7   0  -4   50.52    4.00
   7   0   4   51.10    3.57
   7   0   4   53.26    4.47
  -8   0  -4   41.52    3.58
   8   0   4   44.90    4.04
   8   0   4   39.75    3.04
  -9   0  -4  140.49    9.49
   9   0   4  142.41    9.89
   9   0   4  128.93    8.73
 -10   0  -4    7.48    1.64
  10   0   4    5.84    1.68
  10   0   4    6.51    1.19
 -11   0  -4   65.53    5.35
  11   0   4   55.38    5.28
  11   0   4   59.64    4.44
 -12   0  -4   47.68    4.45
  12   0   4   42.27    3.59
  12   0   4   43.87    4.61
 -13   0  -4    0.74    1.24
  13   0   4    2.04    0.87
  13   0   4    2.76    1.57
 -14   0  -4   28.17    3.64
  14   0   4   27.96    2.76
  14   0   4   21.65    3.61
 -15   0  -4   13.31    2.87
  15   0   4   17.93    3.16
  15   0   4   21.91    2.67
  13  -1  -4    2.35    1.18
 -13   1   4    3.23    1.49
  12  -1  -4    8.98    1.89
 -12   1   4    7.29    3.50
 -12   1   4    5.54    1.76
  11  -1  -4   48.80    4.71
  11  -1  -4   53.63    4.40
 -11   1   4   46.11    4.51
 -11   1   4   57.37    6.11
  10  -1  -4   16.59    2.04
  10  -1  -4   14.16    2.47
 -10   1   4   14.76    3.23
 -10   1   4   11.02    2.37
   9  -1  -4   18.48    2.63
   9  -1  -4   18.88    2.17
  -9   1   4   18.50    2.30
  -9   1   4   19.09    3.10
   8  -1  -4   76.81    6.20
   8  -1  -4   81.56    5.88
  -8   1   4   95.08    7.03
  -8   1   4   78.22    5.82
   7  -1  -4   -0.33    0.82
   7  -1  -4    0.08    0.53
  -7   1   4    0.02    0.46
  -7   1   4   -1.35    0.79
   6  -1  -4  103.75    7.15
   6  -1  -4   95.41    6.72
  -6   1   4  110.64    7.62
  -6   1   4   95.95    6.57
   5  -1  -4   85.47    6.13
   5  -1  -4   85.46    5.79
  -5   1   4   91.27    6.50
  -5   1   4   82.88    5.56
   4  -1  -4    5.21    1.11
   4  -1  -4    5.25    0.66
   4  -1  -4    6.27    0.88
  -4   1   4    5.18    0.72
  -4   1   4    4.38    1.20
   3  -1  -4  138.95    8.59
   3  -1  -4  127.55    8.21
  -3   1   4  139.95    8.83
  -3   1   4  118.05    7.91
   2  -1  -4  284.21   17.50
  -2   1   4  290.96   17.52
  -2   1   4  313.50   18.42
   1  -1  -4   32.44    2.34
   1  -1  -4   34.32    2.05
  -1   1   4   29.03    2.69
   0  -1  -4  559.98   30.44
   0  -1  -4  493.26   31.40
   0   1   4  492.42   31.13
  -1  -1  -4   58.53    3.74
  -1  -1  -4   56.28    4.59
  -1  -1  -4   64.41    3.93
   1   1   4   58.00    4.36
   1   1   4   58.17    3.75
  -2  -1  -4    1.93    0.44
  -2  -1  -4    2.17    0.52
   2   1   4    2.38    0.50
   2   1   4    3.29    0.93
   2   1   4    2.07    0.44
  -3  -1  -4  277.70   14.93
  -3  -1  -4  206.09   14.83
   3   1   4  238.51   14.85
   3   1   4  260.51   15.60
  -4  -1  -4  129.93    8.22
  -4  -1  -4  131.28    8.23
   4   1   4  128.07    8.77
  -5  -1  -4   12.63    1.39
  -5  -1  -4   11.36    1.41
   5   1   4   11.76    1.12
   5   1   4   11.41    1.68
  -6  -1  -4   82.90    5.87
   6   1   4   85.80    5.57
   6   1   4   88.41    6.32
  -7  -1  -4   19.82    2.09
   7   1   4   19.09    2.31
   7   1   4   19.64    1.73
  -8  -1  -4  153.35   10.37
   8   1   4  155.36    9.94
   8   1   4  162.81   10.75
  -9  -1  -4   36.39    3.41
   9   1   4   38.69    3.62
   9   1   4   31.39    2.79
 -10  -1  -4    5.56    1.48
  10   1   4    6.98    1.71
  10   1   4    5.60    1.15
 -11  -1  -4   87.25    6.55
  11   1   4   73.69    6.40
  11   1   4   82.81    5.81
 -12  -1  -4   25.13    3.44
  12   1   4   34.11    2.93
  12   1   4   27.61    3.41
 -13  -1  -4    3.01    1.37
  13   1   4    1.25    2.03
  13   1   4    3.31    1.07
 -14  -1  -4   23.32    3.62
  14   1   4   24.66    2.68
 -15  -1  -4    2.03    1.85
  15   1   4    4.19    1.31
  13  -2  -4   -0.29    0.75
 -13   2   4   -0.64    1.12
  12  -2  -4   12.80    2.95
 -12   2   4    9.46    3.55
 -12   2   4    9.27    1.87
  11  -2  -4   30.00    2.96
  11  -2  -4   26.22    3.80
 -11   2   4   25.81    3.18
 -11   2   4   38.08    6.00
  10  -2  -4    1.65    1.57
  10  -2  -4    6.00    1.33
 -10   2   4    2.31    1.10
   9  -2  -4   81.68    6.70
   9  -2  -4   84.54    6.01
  -9   2   4   81.72    6.06
   8  -2  -4   32.87    3.61
   8  -2  -4   33.94    2.95
  -8   2   4   33.45    2.97
   7  -2  -4    2.52    1.30
   7  -2  -4    3.93    0.97
  -7   2   4    3.57    0.91
   6  -2  -4   98.48    6.31
   6  -2  -4   99.11    6.95
  -6   2   4   83.68    6.07
   5  -2  -4   52.51    3.67
   5  -2  -4   51.66    4.19
  -5   2   4   47.76    3.42
   4  -2  -4    1.64    0.54
   4  -2  -4    0.91    0.79
   4  -2  -4    1.35    0.35
  -4   2   4    0.99    0.32
   3  -2  -4  349.63   22.57
   3  -2  -4  425.06   23.01
  -3   2   4  342.74   22.57
  -3   2   4  415.46   23.83
   2  -2  -4  177.13   11.73
   2  -2  -4  192.70   10.96
   2  -2  -4  195.57   11.39
  -2   2   4  173.53   11.96
   1  -2  -4   30.19    2.11
   1  -2  -4   26.32    2.34
  -1   2   4   26.77    2.53
   0  -2  -4  161.38    9.53
   0  -2  -4  175.17    9.82
   0   2   4  160.88    9.42
   0   2   4  136.16   10.13
  -1  -2  -4   50.70    4.23
  -1  -2  -4   61.88    3.81
  -1  -2  -4   53.69    3.47
   1   2   4   49.03    4.03
   1   2   4   60.74    3.53
  -2  -2  -4  193.06   10.95
  -2  -2  -4  181.12   10.67
  -2  -2  -4  173.72   11.42
   2   2   4  167.22   10.67
   2   2   4  164.91   11.21
  -3  -2  -4  281.92   16.03
  -3  -2  -4  243.56   16.10
   3   2   4  269.64   16.61
  -4  -2  -4   35.56    2.81
  -4  -2  -4   39.74    2.80
   4   2   4   35.99    3.17
  -5  -2  -4  273.29   16.69
  -5  -2  -4  280.35   16.77
   5   2   4  267.62   17.06
   5   2   4  265.85   16.45
  -6  -2  -4  195.80   11.73
   6   2   4  178.60   11.94
   6   2   4  177.93   11.38
  -7  -2  -4    0.80    0.60
   7   2   4    0.76    0.65
   7   2   4    0.68    0.41
  -8  -2  -4   91.23    6.99
   8   2   4  108.92    6.75
   8   2   4   99.59    7.16
   9   2   4   43.56    3.44
   9   2   4   43.72    3.91
 -10  -2  -4   27.03    3.01
  10   2   4   23.28    2.76
 -11  -2  -4   74.36    6.06
  11   2   4   69.75    5.80
  11   2   4   76.24    5.48
 -12  -2  -4   20.51    3.00
  12   2   4   23.85    2.53
  12   2   4   24.43    2.99
  13   2   4   18.97    2.28
  13   2   4   16.05    2.60
 -14  -2  -4   50.19    5.39
  14   2   4   54.02    4.96
 -15  -2  -4   -0.22    1.22
  15   2   4   -0.03    0.89
  13  -3  -4   -0.79    0.67
 -13   3   4   -1.58    2.57
 -13   3   4   -1.50    0.96
  12  -3  -4   25.40    4.00
 -12   3   4   30.54    3.45
  11  -3  -4   32.08    4.12
  11  -3  -4   30.27    3.03
 -11   3   4   32.86    3.40
  10  -3  -4   -1.06    1.28
  10  -3  -4    0.06    0.66
 -10   3   4   -0.76    0.71
   9  -3  -4   80.68    5.84
   9  -3  -4   78.14    6.72
  -9   3   4   83.77    5.99
   8  -3  -4   16.18    2.70
  -8   3   4   14.33    1.88
   7  -3  -4   52.27    4.74
   7  -3  -4   48.81    3.80
  -7   3   4   51.40    3.83
   6  -3  -4  198.42   13.35
   6  -3  -4  200.13   12.50
  -6   3   4  200.03   12.36
   5  -3  -4  107.90    6.74
   5  -3  -4   96.19    7.39
   5  -3  -4  108.62    6.78
  -5   3   4   97.70    6.50
   4  -3  -4   25.62    2.62
   4  -3  -4   28.06    2.11
   4  -3  -4   23.48    1.81
  -4   3   4   24.15    1.82
   3  -3  -4  193.45   11.70
   3  -3  -4  206.38   12.09
   3  -3  -4  197.00   12.68
  -3   3   4  188.88   11.71
   2  -3  -4   39.92    2.46
   2  -3  -4   37.19    3.28
   2  -3  -4   44.68    2.93
   1  -3  -4   34.31    2.36
   1  -3  -4   28.47    2.62
  -1   3   4   31.58    1.90
  -1   3   4   29.60    2.85
   0  -3  -4   67.60    4.66
   0  -3  -4   60.62    3.98
   0   3   4   65.26    4.86
   0   3   4   70.04    4.02
  -1  -3  -4    1.49    0.52
  -1  -3  -4    0.22    0.16
   1   3   4    0.18    0.39
   1   3   4    0.05    0.18
  -2  -3  -4  256.11   16.15
  -2  -3  -4  283.94   15.72
  -2  -3  -4  251.47   15.33
   2   3   4  244.41   15.88
   2   3   4  249.22   15.96
   2   3   4  250.43   15.35
  -3  -3  -4  148.87    9.14
  -3  -3  -4  160.77    9.41
  -3  -3  -4  135.16    9.73
   3   3   4  146.35    9.60
  -4  -3  -4    8.50    1.19
  -4  -3  -4    6.14    1.16
   4   3   4    6.00    0.76
   4   3   4    6.75    1.20
  -5  -3  -4  104.75    6.97
  -5  -3  -4  106.51    6.87
   5   3   4  104.33    7.15
   5   3   4  101.37    6.68
  -6  -3  -4   16.05    1.74
   6   3   4   13.76    1.76
   6   3   4   16.41    1.52
  -7  -3  -4   70.15    5.50
   7   3   4   79.35    5.64
   7   3   4   81.97    5.34
  -8  -3  -4  132.85    9.38
   8   3   4  145.66    9.11
  -9  -3  -4   50.29    4.30
   9   3   4   51.82    3.89
   9   3   4   46.09    3.99
 -10  -3  -4   24.67    2.94
  10   3   4   24.52    2.62
  10   3   4   23.80    2.36
 -11  -3  -4   99.54    7.93
  11   3   4  119.03    7.58
  11   3   4   98.90    7.47
 -12  -3  -4    3.96    1.51
  12   3   4    5.87    1.41
 -13  -3  -4   26.52    3.74
  13   3   4   18.08    2.62
 -14  -3  -4   24.67    3.77
  14   3   4   31.20    3.29
 -15  -3  -4   -0.65    1.24
  15   3   4    4.18    1.43
  13  -4  -4   -2.55    1.62
  13  -4  -4    0.10    0.86
  12  -4  -4   30.40    4.11
  12  -4  -4   34.04    3.18
 -12   4   4   31.79    3.52
  11  -4  -4   36.78    3.31
  11  -4  -4   33.39    4.39
 -11   4   4   34.58    3.52
  10  -4  -4    7.77    1.50
  10  -4  -4    7.59    2.38
 -10   4   4    6.13    1.49
   9  -4  -4   47.83    4.82
   9  -4  -4   43.20    3.61
  -9   4   4   45.50    3.91
   8  -4  -4   23.06    2.29
   8  -4  -4   24.53    3.37
  -8   4   4   23.98    2.46
   7  -4  -4   18.93    1.92
   7  -4  -4   21.00    2.94
  -7   4   4   19.93    2.07
   6  -4  -4  101.60    6.79
   6  -4  -4  100.29    7.79
  -6   4   4  106.56    6.78
   5  -4  -4    6.67    1.68
   5  -4  -4    5.77    1.00
  -5   4   4    6.08    0.97
   4  -4  -4  392.40   22.23
   4  -4  -4  344.82   21.87
   4  -4  -4  366.90   23.08
   3  -4  -4  218.82   14.49
   3  -4  -4  248.98   14.04
   3  -4  -4  208.77   13.38
  -3   4   4  223.40   13.49
   2  -4  -4   71.48    5.81
   2  -4  -4   88.86    5.39
  -2   4   4   83.71    5.00
  -2   4   4   81.28    5.05
   1  -4  -4   25.70    2.48
   1  -4  -4   30.47    2.15
  -1   4   4   26.79    1.77
  -1   4   4   23.49    1.73
   0  -4  -4   97.76    5.93
   0  -4  -4  111.31    6.41
   0  -4  -4   92.97    6.57
   0   4   4   96.86    6.85
   0   4   4   88.56    5.94
  -1  -4  -4    0.00    0.20
  -1  -4  -4    0.16    0.30
  -1  -4  -4    0.13    0.36
   1   4   4    0.07    0.42
   1   4   4   -0.06    0.19
  -2  -4  -4  276.10   16.99
  -2  -4  -4  305.67   17.37
   2   4   4  267.80   17.54
  -3  -4  -4    0.76    0.37
  -3  -4  -4    0.97    0.56
   3   4   4    0.34    0.43
  -4  -4  -4  135.47    8.25
  -4  -4  -4  122.70    8.49
  -4  -4  -4  132.16    8.45
   4   4   4  131.96    8.18
   4   4   4  126.00    8.51
  -5  -4  -4  183.04   12.96
  -5  -4  -4  208.92   12.40
  -5  -4  -4  198.11   12.54
   5   4   4  207.80   12.29
   5   4   4  189.94   12.54
  -6  -4  -4   44.12    3.48
   6   4   4   42.69    3.28
   6   4   4   45.61    3.54
  -7  -4  -4   17.98    2.00
   7   4   4   15.44    1.68
   7   4   4   16.36    1.82
  -8  -4  -4   82.72    6.16
   8   4   4   83.59    5.85
   8   4   4   84.04    5.87
  -9  -4  -4    0.68    0.78
   9   4   4   -0.28    0.58
   9   4   4   -0.69    0.47
 -10  -4  -4   92.00    6.90
  10   4   4   85.60    6.33
 -11  -4  -4   73.98    6.13
  11   4   4   69.29    5.41
 -12  -4  -4    2.58    1.49
  12   4   4    3.99    1.22
  12   4   4    0.89    1.50
 -13  -4  -4   15.11    2.82
  13   4   4   19.92    2.50
 -14  -4  -4    8.96    2.31
  14   4   4    7.61    1.75
 -15  -4  -4   -0.67    1.37
  13  -5  -4    5.40    2.43
  13  -5  -4    5.94    1.58
 -13   5   4    3.73    1.46
  12  -5  -4   27.35    2.65
  12  -5  -4   23.67    3.95
 -12   5   4   19.64    2.95
  11  -5  -4   -0.66    1.47
  11  -5  -4    0.39    0.62
  10  -5  -4   38.32    3.35
  10  -5  -4   37.43    4.71
 -10   5   4   43.43    3.77
   9  -5  -4   71.87    6.69
   9  -5  -4   73.86    5.39
  -9   5   4   78.50    5.64
   8  -5  -4    1.20    0.67
   8  -5  -4    1.21    1.64
  -8   5   4   -0.06    0.65
   7  -5  -4   43.18    4.48
   7  -5  -4   42.13    3.35
  -7   5   4   46.65    3.55
   6  -5  -4   77.87    5.26
   6  -5  -4   75.44    6.37
  -6   5   4   76.35    5.80
   5  -5  -4    3.95    0.84
   5  -5  -4    2.99    1.30
  -5   5   4    3.97    0.84
   4  -5  -4  427.21   25.22
   4  -5  -4  391.46   26.15
  -4   5   4  435.99   25.12
   3  -5  -4   12.82    1.04
   3  -5  -4   10.02    1.83
  -3   5   4   12.98    1.05
  -3   5   4   11.62    1.19
   2  -5  -4    0.32    0.64
   2  -5  -4    1.50    0.51
  -2   5   4    0.98    0.29
  -2   5   4    0.99    0.35
   1  -5  -4  249.20   16.67
   1  -5  -4  297.87   16.28
  -1   5   4  288.89   15.93
  -1   5   4  224.85   15.81
   0  -5  -4   84.74    5.62
   0  -5  -4   97.63    6.09
  -1  -5  -4    0.71    0.47
  -1  -5  -4    0.44    0.33
  -1  -5  -4    0.52    0.53
   1   5   4    0.53    0.63
  -2  -5  -4  356.11   22.02
  -2  -5  -4  413.02   22.51
  -2  -5  -4  350.25   22.34
   2   5   4  352.19   22.62
  -3  -5  -4    2.08    0.74
  -3  -5  -4    2.45    0.57
   3   5   4    2.58    0.59
   3   5   4    3.15    0.84
  -4  -5  -4  176.92   10.94
  -4  -5  -4  176.21   11.18
   4   5   4  173.44   10.89
   4   5   4  172.76   11.15
  -5  -5  -4  126.23    8.49
  -5  -5  -4  126.82    8.28
   5   5   4  127.81    8.16
   5   5   4  131.22    8.22
   5   5   4  125.21    8.37
  -6  -5  -4    5.37    0.95
  -6  -5  -4    4.92    1.06
   6   5   4    7.85    1.17
   6   5   4    6.50    0.94
   6   5   4    6.75    1.03
  -7  -5  -4   72.29    5.47
  -7  -5  -4   65.71    5.07
   7   5   4   75.94    5.20
   7   5   4   77.23    5.05
   7   5   4   80.74    5.32
  -8  -5  -4  128.73    8.55
  -8  -5  -4  118.94    8.84
   8   5   4  126.79    8.11
  -9  -5  -4    2.89    1.20
   9   5   4    2.56    0.86
   9   5   4    1.99    0.71
 -10  -5  -4  103.22    7.77
  10   5   4  102.70    7.28
 -11  -5  -4   22.89    3.07
  11   5   4   20.84    2.32
  11   5   4   22.39    2.45
  12   5   4    3.54    1.22
 -13  -5  -4   34.93    4.51
  13   5   4   39.69    3.81
 -14  -5  -4   19.99    3.62
  14   5   4   20.75    2.82
  13  -6  -4   14.73    3.35
 -13   6   4    6.15    2.21
  12  -6  -4   54.79    4.46
 -12   6   4   55.89    5.21
  11  -6  -4    0.00    0.66
  11  -6  -4   -0.89    1.34
  10  -6  -4   29.06    3.99
  10  -6  -4   25.85    2.62
 -10   6   4   28.60    2.93
   9  -6  -4   27.40    2.47
   9  -6  -4   26.87    3.90
  -9   6   4   25.15    2.77
   8  -6  -4    0.89    1.61
   8  -6  -4    1.92    0.76
  -8   6   4    1.43    0.88
   7  -6  -4  185.80   12.03
   7  -6  -4  187.63   13.49
  -7   6   4  200.50   12.26
   6  -6  -4  192.81   11.93
   6  -6  -4  191.45   13.34
  -6   6   4  186.53   12.01
   5  -6  -4   30.41    2.49
   5  -6  -4   31.13    3.64
  -5   6   4   32.94    2.76
   4  -6  -4  124.27    9.07
   4  -6  -4  123.17    7.95
  -4   6   4  125.39    7.96
   3  -6  -4   87.01    6.85
  -3   6   4   92.42    5.86
   2  -6  -4  131.72    8.18
   2  -6  -4  119.12    8.90
  -2   6   4  129.80    7.99
   1  -6  -4  186.05   12.97
   1  -6  -4  205.71   12.51
  -1   6   4  206.58   12.23
   0  -6  -4   98.51    6.07
   0  -6  -4   94.77    6.76
   0  -6  -4   93.55    6.49
  -1  -6  -4   54.11    4.45
  -1  -6  -4   49.83    3.54
  -1  -6  -4   53.63    3.91
  -2  -6  -4  135.19    8.67
  -2  -6  -4  130.53    8.31
  -2  -6  -4  133.50    8.62
   2   6   4  128.30    8.91
  -3  -6  -4    6.66    1.28
  -3  -6  -4    5.12    0.93
   3   6   4    6.41    0.89
   3   6   4    6.23    1.29
  -4  -6  -4  116.74    7.17
  -4  -6  -4  105.23    7.34
   4   6   4  111.83    7.10
   4   6   4   99.74    7.23
  -5  -6  -4   30.77    2.66
   5   6   4   29.87    2.50
   5   6   4   29.79    2.49
   5   6   4   31.48    2.61
  -6  -6  -4    3.11    0.95
   6   6   4    4.43    0.91
   6   6   4    3.50    0.80
   6   6   4    3.03    0.80
  -7  -6  -4   73.52    5.42
   7   6   4   73.79    4.86
   7   6   4   65.12    4.88
   7   6   4   70.72    5.14
  -8  -6  -4   45.42    4.32
   8   6   4   52.64    3.55
   8   6   4   56.48    4.18
  -9  -6  -4    3.12    1.33
   9   6   4    3.98    1.11
 -10  -6  -4   66.56    5.97
  10   6   4   78.08    5.64
 -11  -6  -4   13.88    2.60
  11   6   4   20.16    2.40
 -12  -6  -4    0.97    1.41
  12   6   4    2.57    0.99
 -13  -6  -4   21.20    3.37
  13   6   4   17.39    2.51
 -14  -6  -4    5.41    2.13
  14   6   4    6.67    1.76
  12  -7  -4   13.38    1.84
  12  -7  -4   11.74    3.06
 -12   7   4    8.47    1.75
  11  -7  -4   -1.35    0.59
 -11   7   4   -1.14    0.82
  10  -7  -4   57.42    4.40
  10  -7  -4   58.19    6.12
 -10   7   4   58.89    5.10
   9  -7  -4    7.11    2.61
   9  -7  -4    8.98    1.44
  -9   7   4   10.94    1.83
   8  -7  -4    7.67    1.29
   8  -7  -4    6.22    2.14
  -8   7   4    6.56    1.40
   7  -7  -4  111.65    7.38
   7  -7  -4  118.07    9.12
  -7   7   4  107.34    7.60
   6  -7  -4   79.17    6.52
   6  -7  -4   71.14    4.93
  -6   7   4   65.97    5.10
   5  -7  -4   52.92    3.88
   5  -7  -4   52.30    5.08
  -5   7   4   57.23    4.09
   4  -7  -4  222.47   15.12
   4  -7  -4  222.85   13.85
  -4   7   4  226.63   13.92
   3  -7  -4   77.74    6.18
   3  -7  -4   78.90    5.18
  -3   7   4   67.36    5.31
   2  -7  -4   76.27    6.08
   1  -7  -4   70.36    5.84
   1  -7  -4   80.60    5.76
  -1   7   4   80.77    5.22
   0  -7  -4   29.31    2.53
   0  -7  -4   27.40    2.78
   0  -7  -4   28.93    2.21
   0   7   4   27.66    2.22
  -1  -7  -4  153.32   10.27
  -1  -7  -4  162.57   10.11
  -1  -7  -4  151.00    9.69
  -2  -7  -4   81.28    5.64
  -2  -7  -4   82.07    5.67
  -2  -7  -4   75.87    5.28
   2   7   4   76.54    5.90
   2   7   4   79.86    5.32
  -3  -7  -4    3.29    0.78
  -3  -7  -4    3.31    0.98
  -3  -7  -4    3.76    0.98
   3   7   4    3.49    0.78
   3   7   4    3.83    1.07
  -4  -7  -4  163.38   10.50
  -4  -7  -4  165.05   10.79
   4   7   4  167.56   10.48
   4   7   4  161.97   10.70
  -5  -7  -4   15.21    1.73
   5   7   4   11.16    1.44
   5   7   4   10.84    1.43
  -6  -7  -4   16.43    1.94
   6   7   4   14.01    1.56
   6   7   4   16.06    1.75
   6   7   4   13.18    1.49
  -7  -7  -4   66.58    5.03
   7   7   4   62.07    4.25
   7   7   4   65.21    4.81
  -8  -7  -4   10.33    1.96
   8   7   4   11.14    1.52
  -9  -7  -4   44.67    4.26
   9   7   4   50.31    4.04
 -10  -7  -4   45.26    4.66
  10   7   4   59.82    4.60
 -12  -7  -4    7.99    2.02
 -13  -7  -4   18.79    3.34
  13   7   4   25.99    2.93
  12  -8  -4    5.47    1.37
  12  -8  -4   12.67    3.19
 -12   8   4    7.31    1.56
  11  -8  -4    5.79    1.34
  11  -8  -4    4.16    2.27
  10  -8  -4   39.74    5.12
 -10   8   4   26.40    3.12
   9  -8  -4    4.30    1.98
   9  -8  -4    3.32    0.98
  -9   8   4    8.27    1.58
   8  -8  -4   26.55    2.33
   8  -8  -4   27.40    3.96
  -8   8   4   21.27    2.64
   7  -8  -4  129.97    8.51
   7  -8  -4  139.21   10.38
  -7   8   4  126.53    8.83
   6  -8  -4    0.49    0.54
   6  -8  -4   -0.94    1.10
  -6   8   4   -0.09    0.72
   5  -8  -4    1.91    1.47
   5  -8  -4    0.97    0.58
  -5   8   4    2.31    0.87
   4  -8  -4  148.00   10.24
   4  -8  -4  130.95    8.73
  -4   8   4  132.03    8.86
   3  -8  -4    2.03    1.37
   3  -8  -4    1.33    0.69
  -3   8   4    2.54    0.74
   2  -8  -4  129.16    9.28
   2  -8  -4  128.76    8.38
  -2   8   4  123.84    8.26
   1  -8  -4   45.65    3.56
   1  -8  -4   41.18    4.09
  -1   8   4   46.11    3.38
   0  -8  -4   16.24    1.84
   0  -8  -4   13.35    2.03
   0  -8  -4   14.56    1.52
   0   8   4   14.81    1.55
  -1  -8  -4   68.55    5.45
  -1  -8  -4   72.77    4.93
  -1  -8  -4   74.48    5.31
   1   8   4   72.90    4.96
  -2  -8  -4   29.08    2.69
  -2  -8  -4   25.29    2.59
  -2  -8  -4   28.76    2.39
   2   8   4   26.14    2.30
  -3  -8  -4   38.85    3.15
  -3  -8  -4   37.26    2.96
  -3  -8  -4   32.14    3.15
   3   8   4   34.91    2.88
   3   8   4   34.57    3.30
  -4  -8  -4  167.54   10.72
   4   8   4  173.77   10.72
   4   8   4  157.59   10.91
  -5  -8  -4    0.02    0.68
   5   8   4    1.23    0.57
   5   8   4    0.65    0.59
  -6  -8  -4   60.46    4.70
   6   8   4   58.13    4.40
   6   8   4   60.71    4.27
   6   8   4   62.15    4.59
  -7  -8  -4   69.68    5.31
   7   8   4   66.07    5.08
  -8  -8  -4    1.75    1.01
   8   8   4    0.68    0.68
  -9  -8  -4   44.51    4.42
   9   8   4   56.21    4.40
 -10  -8  -4   38.31    4.38
  10   8   4   54.98    4.35
 -11  -8  -4   -1.03    0.87
  11   8   4   -0.32    0.52
 -12  -8  -4   12.78    2.54
 -13  -8  -4   30.04    4.40
  13   8   4   35.93    3.74
  12  -9  -4    6.09    2.61
 -12   9   4    4.34    1.74
  11  -9  -4   14.39    3.53
 -11   9   4   18.46    2.67
  10  -9  -4   38.16    5.05
 -10   9   4   30.86    3.37
   9  -9  -4   -0.27    1.66
   8  -9  -4   28.96    4.00
   8  -9  -4   24.77    2.33
  -8   9   4   26.26    2.86
   7  -9  -4   39.96    4.60
   7  -9  -4   31.33    2.82
  -7   9   4   38.58    3.37
   6  -9  -4    1.92    1.67
   6  -9  -4    0.26    0.54
  -6   9   4   -1.06    0.79
   5  -9  -4  170.05   11.87
   5  -9  -4  151.02   10.00
  -5   9   4  152.74   10.31
   4  -9  -4  149.01   10.87
   4  -9  -4  133.50    9.34
  -4   9   4  155.03    9.66
   3  -9  -4   -0.57    1.03
   3  -9  -4    0.04    0.56
  -3   9   4    0.46    0.64
   2  -9  -4   71.62    6.18
   2  -9  -4   73.55    5.36
  -2   9   4   77.20    5.34
   1  -9  -4   39.76    3.42
   1  -9  -4   42.58    4.14
  -1   9   4   40.37    3.27
   0  -9  -4   49.33    3.53
   0  -9  -4   44.07    4.20
   0  -9  -4   44.05    3.75
   0   9   4   48.28    3.50
   0   9   4   45.19    3.51
  -1  -9  -4   62.43    5.21
  -1  -9  -4   69.37    5.07
  -1  -9  -4   66.26    4.66
   1   9   4   66.06    4.66
   1   9   4   63.75    4.66
  -2  -9  -4    1.57    1.04
  -2  -9  -4    2.01    0.74
  -2  -9  -4    2.83    1.09
   2   9   4    2.86    0.84
  -3  -9  -4  111.26    7.48
  -3  -9  -4  104.69    7.25
   3   9   4  105.58    7.81
   3   9   4  106.25    7.23
  -4  -9  -4  103.03    9.26
   4   9   4  130.77   10.07
   4   9   4  131.97    8.32
  -5  -9  -4   -0.44    0.66
   5   9   4   -0.31    0.52
   5   9   4    0.18    0.58
  -6  -9  -4   85.15    5.95
   6   9   4   80.31    5.80
   6   9   4   71.40    5.25
   6   9   4   78.84    5.84
  -7  -9  -4   76.03    5.84
   7   9   4   74.68    5.68
  -8  -9  -4    0.10    0.85
   8   9   4    1.53    0.90
  -9  -9  -4   22.07    3.07
   9   9   4   28.04    2.90
 -10  -9  -4    9.79    2.12
  10   9   4   14.20    2.14
 -11  -9  -4   -2.09    1.05
  11   9   4   -0.98    0.65
 -12  -9  -4   43.73    5.13
  12   9   4   59.51    4.99
  11 -10  -4   14.63    3.39
 -11  10   4   18.49    2.63
  10 -10  -4   21.79    4.42
 -10  10   4   16.39    2.59
   9 -10  -4   -0.36    0.69
   9 -10  -4    5.88    2.29
  -9  10   4    1.03    1.10
   8 -10  -4   51.70    4.21
   8 -10  -4   68.57    6.56
  -8  10   4   63.45    4.99
   7 -10  -4    6.32    1.98
   7 -10  -4    3.78    0.94
  -7  10   4    4.61    2.64
   6 -10  -4    8.16    2.28
   6 -10  -4    4.71    1.03
  -6  10   4    6.35    1.53
   5 -10  -4  130.91    9.81
   5 -10  -4  110.62    7.84
  -5  10   4  121.08    8.32
   4 -10  -4   40.19    4.48
   4 -10  -4   36.65    3.18
  -4  10   4   41.33    3.58
   3 -10  -4   19.45    3.14
   3 -10  -4   15.90    1.94
  -3  10   4   17.60    2.17
   2 -10  -4  143.64   11.93
   2 -10  -4  122.42    8.55
  -2  10   4  124.06    8.57
   1 -10  -4    6.59    1.93
   1 -10  -4    6.28    1.38
  -1  10   4    4.95    1.12
  -1  10   4    6.53    1.04
   0 -10  -4   34.94    3.81
   0 -10  -4   34.00    3.27
   0 -10  -4   36.17    2.98
   0  10   4   35.98    3.04
   0  10   4   34.63    2.89
  -1 -10  -4  136.65    9.23
  -1 -10  -4  132.80    9.46
  -1 -10  -4  138.87    8.80
   1  10   4  128.88    8.74
   1  10   4  131.61    8.79
  -2 -10  -4    1.72    1.03
   2  10   4    2.87    0.86
  -3 -10  -4   54.21    4.38
  -3 -10  -4   53.59    4.18
   3  10   4   52.87    4.13
   3  10   4   49.74    4.66
  -4 -10  -4   68.58    5.29
   4  10   4   70.81    5.67
   4  10   4   73.98    5.34
  -5 -10  -4    6.13    1.37
   5  10   4    8.61    1.34
   5  10   4    5.64    1.43
  -6 -10  -4   83.79    6.10
   6  10   4   83.24    6.05
   6  10   4   75.66    5.37
  -7 -10  -4   49.53    4.26
   7  10   4   45.74    4.09
  -8 -10  -4    3.77    1.32
   8  10   4    7.10    1.66
  -9 -10  -4   61.56    5.34
   9  10   4   61.72    5.19
 -10 -10  -4   10.97    2.54
  10  10   4   15.36    2.31
 -11 -10  -4    0.20    1.49
  11  10   4    2.00    1.13
  10 -11  -4   13.08    3.61
 -10  11   4   10.41    2.11
   9 -11  -4    3.80    2.34
  -9  11   4    1.45    1.13
   8 -11  -4   48.00    5.72
  -8  11   4   44.27    4.18
   7 -11  -4   24.29    4.14
  -7  11   4   12.90    2.28
   6 -11  -4   29.06    3.92
  -6  11   4   20.52    2.81
   5 -11  -4   84.90    7.65
  -5  11   4   87.54    6.54
   4 -11  -4    1.21    1.60
   4 -11  -4    1.20    0.82
  -4  11   4    1.12    1.08
   3 -11  -4    9.65    2.45
   3 -11  -4   13.21    1.76
  -3  11   4   13.75    1.47
  -3  11   4   16.41    2.45
   2 -11  -4   76.61    6.84
   2 -11  -4   78.92    5.77
  -2  11   4   79.28    6.22
  -2  11   4   78.94    5.40
   1 -11  -4    0.83    1.28
   1 -11  -4    1.35    0.93
  -1  11   4    0.89    0.61
  -1  11   4    1.54    0.88
   0 -11  -4   55.65    4.22
   0 -11  -4   49.40    4.93
   0  11   4   54.11    4.08
   0  11   4   54.16    4.26
  -1 -11  -4   43.26    4.18
  -1 -11  -4   46.58    3.61
   1  11   4   39.83    3.53
   1  11   4   40.95    3.46
  -2 -11  -4    3.72    1.04
  -2 -11  -4    3.09    1.29
   2  11   4    3.84    1.06
   2  11   4    3.42    1.00
  -3 -11  -4   28.60    2.79
  -3 -11  -4   26.94    2.95
   3  11   4   24.85    2.56
   3  11   4   26.12    3.23
  -4 -11  -4   17.02    2.13
   4  11   4   12.96    1.95
   4  11   4   13.70    2.18
  -5 -11  -4    7.43    1.59
   5  11   4    4.79    1.32
  -6 -11  -4   66.07    5.33
   6  11   4   66.22    5.30
  -7 -11  -4    4.30    1.61
   7  11   4    4.26    1.37
  -8 -11  -4   19.57    2.94
   8  11   4   20.82    2.51
  -9 -11  -4   19.85    2.89
   9  11   4   21.28    2.77
 -10 -11  -4    2.95    1.55
  10  11   4    5.24    1.64
  10 -12  -4    5.85    2.95
 -10  12   4    4.08    1.29
   9 -12  -4   16.63    3.84
  -9  12   4   13.25    2.42
   8 -12  -4   46.19    5.69
  -8  12   4   40.10    4.16
   7 -12  -4    2.37    2.04
  -7  12   4    2.18    1.31
  -6  12   4   24.55    3.09
   5 -12  -4   53.58    5.60
  -5  12   4   41.40    3.75
  -5  12   4   47.20    4.29
   4 -12  -4   -0.90    1.30
  -4  12   4    0.11    0.96
  -4  12   4   -0.62    0.37
   3 -12  -4   51.99    5.34
  -3  12   4   45.49    3.39
  -3  12   4   42.28    4.05
   2 -12  -4   40.37    4.58
  -2  12   4   34.79    3.47
   1 -12  -4   -1.19    1.11
  -1  12   4   -1.17    0.61
  -1  12   4   -0.31    0.43
   0 -12  -4   69.95    6.14
   0  12   4   68.95    5.30
   0  12   4   69.16    5.05
  -1 -12  -4    4.01    1.16
  -1 -12  -4    0.72    1.42
   1  12   4    3.99    1.10
   1  12   4    2.89    0.96
  -2 -12  -4   41.30    4.20
  -2 -12  -4   44.87    3.72
   2  12   4   42.35    3.64
   2  12   4   39.70    3.63
  -3 -12  -4   91.59    6.88
  -3 -12  -4   92.81    6.61
   3  12   4   93.37    6.63
   3  12   4   85.47    7.30
   3  12   4   87.02    6.53
  -4 -12  -4    7.22    1.54
   4  12   4    8.64    1.76
   4  12   4    6.54    1.65
  -5 -12  -4   14.88    2.35
   5  12   4   14.12    2.05
   5  12   4   13.64    2.76
  -6 -12  -4   52.55    5.11
   6  12   4   57.73    4.83
  -7 -12  -4    0.76    1.22
   7  12   4   -0.36    0.65
  -8 -12  -4   33.79    3.85
   8  12   4   35.71    3.71
  -9 -12  -4   36.14    4.05
   9  12   4   38.29    3.97
   9 -13  -4   21.10    4.66
   8 -13  -4   31.57    5.04
  -8  13   4   21.89    3.21
   7 -13  -4    1.02    1.69
  -7  13   4    0.59    1.15
   6 -13  -4   53.32    5.93
  -6  13   4   41.91    4.41
   5 -13  -4   22.22    3.69
  -5  13   4   18.72    2.79
   4 -13  -4    2.09    1.92
  -4  13   4    2.28    1.26
   3 -13  -4   33.53    4.43
  -3  13   4   32.69    2.67
  -3  13   4   38.62    3.62
   2 -13  -4   12.22    2.75
  -2  13   4   19.68    2.47
  -2  13   4   15.29    1.66
   1 -13  -4    9.12    2.36
  -1  13   4    7.73    1.31
  -1  13   4    8.02    1.73
   0 -13  -4   56.93    5.44
   0  13   4   53.98    4.23
   0  13   4   53.56    4.49
  -1 -13  -4   -0.39    0.74
  -1 -13  -4   -0.45    1.22
   1  13   4   -0.77    0.69
   1  13   4   -0.71    0.45
  -2 -13  -4   16.72    2.40
  -2 -13  -4   16.80    4.25
   2  13   4   17.23    2.40
   2  13   4   18.02    2.12
  -3 -13  -4   39.66    3.64
  -3 -13  -4   36.23    3.85
   3  13   4   35.99    3.53
   3  13   4   33.03    3.28
   3  13   4   33.64    4.11
  -4 -13  -4   -0.79    1.53
   4  13   4   -0.51    0.56
   4  13   4   -2.22    1.03
   4  13   4    0.63    1.58
  -5 -13  -4   31.88    3.63
   5  13   4   36.27    3.61
  -6 -13  -4   35.49    3.92
   6  13   4   42.50    3.98
  -7 -13  -4    2.73    1.45
   7  13   4    2.12    1.19
  -8 -13  -4   26.33    3.40
   8  13   4   24.59    3.18
   7 -14  -4    2.94    2.51
  -7  14   4    6.40    2.00
   6 -14  -4   45.97    5.91
   5 -14  -4    6.94    2.45
  -5  14   4    9.30    2.17
   4 -14  -4    9.80    2.82
  -4  14   4   14.53    2.55
  -3  14   4   34.46    3.63
   2 -14  -4    4.12    1.98
  -2  14   4    1.83    1.03
  -2  14   4    3.44    0.78
   1 -14  -4   32.98    4.20
  -1  14   4   25.20    2.49
  -1  14   4   32.81    3.34
   0 -14  -4   18.36    3.42
   0  14   4   21.43    3.09
   0  14   4   21.31    2.85
  -1 -14  -4   -1.17    1.40
   1  14   4    1.23    0.81
   1  14   4    1.17    1.60
  -2 -14  -4   48.58    4.20
  -2 -14  -4   41.51    4.69
   2  14   4   42.03    5.08
   2  14   4   47.52    4.04
   2  14   4   48.28    4.21
  -3 -14  -4   30.48    3.26
   3  14   4   30.67    3.15
   3  14   4   28.87    3.24
  -4 -14  -4    1.96    1.13
   4  14   4    1.02    1.16
   4  14   4   -0.11    0.67
  -5 -14  -4   32.15    3.61
   5  14   4   28.92    3.31
   5  14   4   34.75    3.77
  -6 -14  -4   10.92    2.08
   6  14   4   14.75    2.37
   6  14   4   10.96    2.13
  -7 -14  -4   -0.21    1.32
   5 -15  -4    2.36    2.20
  -5  15   4    1.55    1.30
   4 -15  -4   14.71    3.66
  -4  15   4    8.29    1.84
   3 -15  -4   40.73    5.05
  -3  15   4   33.65    3.83
   2 -15  -4   -2.56    1.45
  -2  15   4    0.45    0.90
   1 -15  -4   39.85    6.24
  -1  15   4   51.84    4.53
   0 -15  -4   19.75    3.61
   0  15   4   16.72    2.61
   0  15   4   16.17    1.99
  -1 -15  -4   -1.85    1.29
   1  15   4   -0.15    0.90
  -2 -15  -4   31.21    4.08
   2  15   4   30.79    3.03
   2  15   4   29.62    4.42
   2  15   4   30.39    3.48
  -3 -15  -4    7.95    1.84
   3  15   4    9.82    1.93
   3  15   4   13.43    1.98
  -4 -15  -4    8.13    2.01
   4  15   4    5.83    1.80
   4  15   4    7.09    1.66
  -5 -15  -4   50.04    4.74
   2 -16  -4   -2.17    1.66
   1 -16  -4    2.23    1.97
  -1  16   4    7.24    2.08
   0 -16  -4    3.66    2.54
   0  16   4    3.20    1.39
   0  12  -5    0.23    1.12
   0 -12   5   -0.41    2.84
  -1  12  -5   23.45    3.46
   1 -12   5   27.10    4.17
  -2  12  -5    0.52    1.05
   2 -12   5   -1.33    1.72
  -3  12  -5    7.84    2.20
   3 -12   5    4.86    2.30
  -4  12  -5   27.39    3.73
   4 -12   5   25.49    4.55
  -6  12  -5    8.70    2.33
   6 -12   5   15.23    3.93
   3  11  -5    9.28    1.99
   3  11  -5    8.30    2.00
   2  11  -5   48.20    4.79
   2  11  -5   47.22    3.98
   1  11  -5   -1.08    0.89
   1  11  -5    0.93    0.74
   0  11  -5    7.10    1.66
   0  11  -5    8.81    1.39
   0 -11   5   14.62    3.05
  -1  11  -5    8.01    1.91
   1 -11   5    7.16    2.35
  -2  11  -5    3.66    1.41
   2 -11   5    4.61    2.29
  -3  11  -5   31.09    3.56
   3 -11   5   25.09    4.39
  -4  11  -5   29.87    3.63
  -5  11  -5    1.18    1.22
   5 -11   5    1.34    2.12
  -6  11  -5   24.06    3.37
   6 -11   5   18.82    3.98
  -7  11  -5    1.77    1.52
   7 -11   5   -3.21    1.56
  -8  11  -5    9.73    2.48
   8 -11   5   12.75    3.72
  -9  11  -5   14.81    3.03
   9 -11   5   14.30    3.66
   5  10  -5   17.99    2.52
   5  10  -5   22.73    2.97
  -5 -10   5   17.67    2.79
   4  10  -5   -1.51    0.76
   4  10  -5   -1.22    0.64
   3  10  -5   38.99    4.01
   3  10  -5   40.70    3.65
   2  10  -5   29.98    3.49
   2  10  -5   29.02    2.78
   1  10  -5   -1.20    0.68
   1  10  -5    0.28    0.60
  -1 -10   5   -1.63    1.28
   0  10  -5   46.32    3.59
   0  10  -5   43.48    4.31
   0 -10   5   49.38    5.15
  -1  10  -5   12.51    1.43
   1 -10   5   13.89    3.07
  -2  10  -5    1.95    1.14
   2 -10   5    2.14    1.78
  -3  10  -5   41.68    4.34
   3 -10   5   48.96    5.40
  -4  10  -5    6.87    1.80
   4 -10   5   14.24    3.32
  -5  10  -5   18.17    2.89
   5 -10   5   23.80    4.47
  -6  10  -5   45.14    4.66
  -7  10  -5   -1.15    1.04
   7 -10   5   -1.04    1.66
  -8  10  -5   12.71    3.71
   8 -10   5   12.21    3.06
  -9  10  -5   39.02    4.86
   9 -10   5   39.98    5.84
 -10  10  -5   -1.26    1.40
  10 -10   5   -0.39    2.08
   6   9  -5   25.04    3.07
   6   9  -5   26.30    3.33
  -6  -9   5   31.26    3.47
   5   9  -5   22.99    3.21
   5   9  -5   26.48    2.94
  -5  -9   5   31.57    3.39
   4   9  -5    1.14    1.09
   4   9  -5    1.22    0.81
  -4  -9   5   -0.40    1.33
   3   9  -5   41.64    5.34
   3   9  -5   39.64    3.57
   2   9  -5   15.17    2.40
   2   9  -5   17.60    1.94
  -2  -9   5   11.23    2.33
   1   9  -5   14.09    2.15
   1   9  -5   13.00    1.63
  -1  -9   5    8.19    2.12
   0   9  -5   51.13    3.74
   0   9  -5   47.64    4.39
   0  -9   5   48.74    5.00
  -1   9  -5    6.47    1.52
  -1   9  -5   10.64    1.21
   1  -9   5    7.48    2.31
  -2   9  -5   17.65    2.53
  -2   9  -5   16.31    1.51
   2  -9   5   17.69    3.15
  -3   9  -5   42.35    4.13
  -3   9  -5   40.43    2.83
   3  -9   5   48.06    5.16
  -4   9  -5    7.09    1.82
   4  -9   5    9.14    2.63
  -5   9  -5   31.11    3.57
   5  -9   5   33.63    4.51
  -6   9  -5   29.65    3.66
   6  -9   5   39.82    4.89
   7  -9   5    1.67    2.19
  -8   9  -5   10.78    2.50
   8  -9   5   18.19    4.02
  -9   9  -5   29.02    3.95
   9  -9   5   41.64    5.52
 -10   9  -5    0.47    1.44
  10  -9   5    0.77    1.97
  11  -9   5   14.98    3.73
   7   8  -5    3.14    1.37
   7   8  -5    5.26    1.61
  -7  -8   5    4.00    1.42
   6   8  -5   66.31    5.48
   6   8  -5   58.18    5.13
  -6  -8   5   62.27    5.30
   5   8  -5   17.37    2.28
   4   8  -5   24.24    2.55
   4   8  -5   20.98    2.81
  -4  -8   5   21.15    2.76
   3   8  -5   63.19    5.07
   3   8  -5   57.44    4.77
  -3  -8   5   68.66    5.19
  -3  -8   5   60.29    5.42
   2   8  -5   22.52    2.63
   2   8  -5   22.66    2.33
  -2  -8   5   21.25    2.83
   1   8  -5   18.94    1.92
   1   8  -5   17.86    2.26
  -1  -8   5   15.60    2.61
   0   8  -5   46.33    4.00
   0   8  -5   44.57    3.44
   0  -8   5   46.97    4.66
  -1   8  -5    0.22    0.42
  -1   8  -5   -0.36    0.66
   1  -8   5    0.50    1.22
  -2   8  -5   73.34    5.72
  -2   8  -5   69.28    4.77
   2  -8   5   79.51    6.69
  -3   8  -5   64.95    5.33
  -3   8  -5   64.47    4.19
   3  -8   5   64.71    6.14
  -4   8  -5    0.33    0.92
   4  -8   5    0.47    1.47
  -5   8  -5   45.85    4.41
   5  -8   5   51.96    5.57
  -6   8  -5   24.04    3.18
   6  -8   5   23.39    3.82
  -7   8  -5   -0.78    0.92
   7  -8   5   -2.00    1.08
  -8   8  -5   60.47    5.76
   8  -8   5   73.34    7.07
  -9   8  -5    4.18    1.92
   9  -8   5    4.85    2.51
 -10   8  -5    2.91    1.56
  10  -8   5    1.07    1.89
 -11   8  -5   39.31    4.57
  11  -8   5   37.94    5.43
 -12   8  -5    0.62    1.54
  12  -8   5    1.59    2.65
   8   7  -5    3.67    1.42
   8   7  -5    6.28    1.66
  -8  -7   5    5.54    1.66
   7   7  -5   22.29    2.83
   7   7  -5   28.49    4.01
  -7  -7   5   24.70    3.17
   6   7  -5   61.71    5.17
  -6  -7   5   62.68    5.13
   5   7  -5    3.18    1.13
   5   7  -5    5.09    1.30
  -5  -7   5    5.28    1.38
   4   7  -5   48.93    4.03
   4   7  -5   48.63    4.18
  -4  -7   5   42.39    3.63
  -4  -7   5   52.72    4.19
   3   7  -5   68.74    5.13
   3   7  -5   60.28    4.82
  -3  -7   5   63.75    5.06
   2   7  -5    5.82    1.15
   2   7  -5    6.66    1.41
  -2  -7   5    3.65    1.38
  -2  -7   5    7.44    1.47
   1   7  -5   30.10    2.62
   1   7  -5   32.23    2.98
  -1  -7   5   29.31    3.33
   0   7  -5   54.23    3.90
   0   7  -5   55.36    4.37
   0  -7   5   51.54    4.90
  -1   7  -5    0.24    0.39
  -1   7  -5    0.00    0.71
   1  -7   5   -1.22    0.94
  -2   7  -5   35.13    3.29
  -2   7  -5   31.42    2.58
   2  -7   5   39.15    4.10
  -3   7  -5   19.04    1.52
  -3   7  -5   17.02    2.45
  -4   7  -5   20.79    1.33
  -5   7  -5   52.33    4.62
   5  -7   5   51.01    5.46
  -6   7  -5   37.88    3.89
   6  -7   5   42.41    4.90
  -7   7  -5    9.74    2.04
   7  -7   5    8.83    2.60
  -8   7  -5   40.83    4.28
   8  -7   5   50.26    5.58
  -9   7  -5    4.79    1.82
   9  -7   5    4.14    2.17
  10  -7   5   39.89    7.05
 -11   7  -5   20.49    3.43
  11  -7   5   33.38    4.61
 -12   7  -5   -0.96    1.16
  12  -7   5   -2.13    1.76
 -13   7  -5   13.09    2.72
  13  -7   5   15.72    4.31
   9   6  -5   43.06    4.29
  -9  -6   5   45.58    4.38
   8   6  -5    5.75    1.62
   7   6  -5   45.66    4.11
  -7  -6   5   43.30    4.08
   6   6  -5   70.25    5.21
   6   6  -5   55.04    4.90
  -6  -6   5   61.77    5.02
   5   6  -5    0.08    0.84
   5   6  -5    0.26    0.64
  -5  -6   5   -0.03    0.85
   4   6  -5   91.77    6.23
   4   6  -5   79.44    6.07
  -4  -6   5   77.89    5.73
  -4  -6   5   88.64    6.17
   3   6  -5   71.28    5.30
   3   6  -5   68.60    5.18
  -3  -6   5   72.24    5.30
   2   6  -5    3.68    0.93
   2   6  -5    3.12    1.03
  -2  -6   5    3.99    1.11
  -2  -6   5    1.85    1.16
   1   6  -5   68.38    5.01
   1   6  -5   64.78    4.67
  -1  -6   5   65.34    5.36
   0   6  -5   41.21    2.97
   0  -6   5   35.04    3.78
  -1   6  -5   37.83    2.87
   1  -6   5   43.45    4.13
  -2   6  -5  120.48    7.78
   2  -6   5  123.04    9.14
  -3   6  -5   40.26    3.87
  -3   6  -5   39.85    2.73
   3  -6   5   36.84    4.13
  -4   6  -5   23.21    1.66
  -4   6  -5   27.05    2.82
   4  -6   5   29.20    3.60
   4  -6   5   23.27    1.60
  -5   6  -5    9.72    1.77
   5  -6   5    9.92    2.60
  -6   6  -5    8.44    1.77
   6  -6   5   11.61    2.81
  -7   6  -5   69.17    5.98
   7  -6   5   88.61    7.43
  -8   6  -5   34.62    3.70
   8  -6   5   37.03    4.54
  -9   6  -5    2.76    1.28
   9  -6   5    4.28    1.87
 -10   6  -5   30.28    3.65
  10  -6   5   36.71    4.89
 -12   6  -5   -0.35    1.02
  12  -6   5   -1.05    1.60
 -13   6  -5   33.65    4.09
  13  -6   5   30.21    5.05
 -14   6  -5   25.14    3.75
  14  -6   5   26.65    4.85
  10   5  -5   27.40    3.30
 -10  -5   5   30.29    3.61
   9   5  -5   38.58    4.00
  -9  -5   5   38.50    4.44
   8   5  -5    0.71    0.92
  -8  -5   5   -0.32    1.00
   7   5  -5   25.37    2.68
  -7  -5   5   23.33    2.75
   6   5  -5   39.91    3.69
  -6  -5   5   44.57    3.77
   5   5  -5    7.57    1.49
   5   5  -5    6.19    1.35
  -5  -5   5    5.91    1.09
  -5  -5   5    6.77    1.33
   4   5  -5  100.09    6.44
   4   5  -5   78.84    6.20
  -4  -5   5   93.85    6.34
  -4  -5   5   84.31    6.09
   3   5  -5   25.58    2.94
   3   5  -5   37.09    3.01
  -3  -5   5   34.07    2.96
  -3  -5   5   33.76    3.57
   2   5  -5   31.60    2.73
   2   5  -5   29.31    2.57
  -2  -5   5   30.01    2.71
  -2  -5   5   29.90    2.99
   1   5  -5  103.83    7.03
   1   5  -5  100.35    6.84
  -1  -5   5  108.84    7.60
   0   5  -5   45.86    3.29
   0   5  -5   41.21    3.52
   0  -5   5   48.15    4.17
  -1   5  -5   28.88    2.84
  -1   5  -5   34.25    2.50
   1  -5   5   38.16    3.62
  -2   5  -5   96.72    6.07
  -2   5  -5   91.56    6.60
   2  -5   5   97.86    7.41
  -3   5  -5    2.55    0.95
   3  -5   5    4.95    1.72
   3  -5   5    2.83    0.48
  -4   5  -5  105.60    7.17
  -4   5  -5   94.10    6.22
   4  -5   5  107.66    8.09
  -5   5  -5   96.74    7.15
   5  -5   5  105.04    8.19
  -6   5  -5   -1.09    0.60
   6  -5   5   -1.32    0.91
  -7   5  -5   70.45    5.83
   7  -5   5   83.16    7.02
  -8   5  -5   48.22    4.55
   8  -5   5   55.82    5.67
  -9   5  -5    3.82    1.36
   9  -5   5    4.61    1.83
 -10   5  -5   35.84    3.93
  10  -5   5   43.82    5.12
 -11   5  -5    9.17    2.06
  11  -5   5   10.73    2.73
 -12   5  -5    8.19    2.20
 -13   5  -5   50.38    5.20
  13  -5   5   47.28    6.03
 -14   5  -5    5.19    2.05
  14  -5   5    2.91    2.50
 -11  -4   5   -2.13    1.25
  10   4  -5   27.71    3.26
 -10  -4   5   32.70    4.04
   9   4  -5   32.29    3.33
  -9  -4   5   29.53    3.31
  -8  -4   5    7.21    1.60
   7   4  -5   37.47    3.48
  -7  -4   5   39.80    3.56
   6   4  -5   23.50    2.43
  -6  -4   5   18.14    1.91
  -6  -4   5   22.91    2.39
   5   4  -5   23.80    2.49
  -5  -4   5   27.11    2.57
  -5  -4   5   24.34    2.29
   4   4  -5  177.44   11.79
   4   4  -5  200.82   11.81
  -4  -4   5  177.49   11.71
  -4  -4   5  179.71   11.80
   3   4  -5    8.83    1.29
   3   4  -5    9.96    1.42
  -3  -4   5    7.71    1.54
  -3  -4   5    8.13    1.31
   2   4  -5   32.60    2.65
   2   4  -5   31.15    2.67
  -2  -4   5   31.95    2.70
   1   4  -5   31.67    2.59
   1   4  -5   30.73    2.45
  -1  -4   5   28.50    3.01
   0   4  -5   -0.33    0.42
   0   4  -5    0.21    0.35
   0  -4   5   -0.37    0.69
  -1   4  -5  163.30   10.74
  -1   4  -5  174.99   10.45
   1  -4   5  168.26   11.51
  -2   4  -5  227.01   13.36
  -2   4  -5  212.21   13.76
   2  -4   5  219.23   14.59
  -3   4  -5    0.46    0.64
  -3   4  -5    0.84    0.37
   3  -4   5    1.31    0.34
   3  -4   5    0.23    0.77
  -4   4  -5   48.85    3.25
  -4   4  -5   48.08    3.88
   4  -4   5   51.48    4.68
  -5   4  -5   31.33    2.94
  -5   4  -5   32.30    2.13
   5  -4   5   31.19    3.65
   5  -4   5   30.46    2.02
  -6   4  -5   16.54    2.15
   6  -4   5   17.59    1.16
   6  -4   5   18.97    2.80
   6  -4   5   16.59    1.15
   7  -4   5   63.81    3.77
   7  -4   5   57.85    3.92
   7  -4   5   64.44    7.66
  -8   4  -5   37.14    3.71
   8  -4   5   37.09    4.33
   8  -4   5   37.35    2.38
  -9   4  -5   22.92    2.91
   9  -4   5   22.35    3.55
   9  -4   5   27.19    1.90
   9  -4   5   22.91    1.69
 -10   4  -5   52.32    4.84
  10  -4   5   44.54    5.42
  10  -4   5   53.77    3.39
 -11   4  -5   12.85    2.37
  11  -4   5   13.24    2.92
 -12   4  -5   23.97    3.33
  12  -4   5   23.03    1.93
  12  -4   5   23.83    4.04
 -13   4  -5   27.45    3.68
  13  -4   5   28.37    5.15
 -14   4  -5   -0.70    1.28
  11   3  -5    6.81    1.85
  10   3  -5   28.11    3.13
 -10  -3   5   27.06    3.16
   9   3  -5    7.85    1.71
  -9  -3   5    3.61    1.35
   8   3  -5   13.30    2.00
  -8  -3   5   14.24    2.13
   7   3  -5   68.31    5.11
  -7  -3   5   69.55    5.03
  -7  -3   5   58.13    4.42
   6   3  -5   11.00    1.64
  -6  -3   5    8.50    1.45
  -6  -3   5   10.91    1.56
   5   3  -5  150.99   10.40
  -5  -3   5  172.22   10.47
  -5  -3   5  155.29   10.27
   4   3  -5  135.73    9.08
  -4  -3   5  143.33    9.28
  -4  -3   5  136.23    8.94
   3   3  -5   19.98    1.82
   3   3  -5   20.25    1.92
  -3  -3   5   16.75    2.11
  -3  -3   5   19.07    1.85
   2   3  -5  101.28    6.87
   2   3  -5  106.78    6.84
  -2  -3   5  103.22    7.38
  -2  -3   5  107.27    6.85
   1   3  -5   51.48    3.75
   1   3  -5   56.29    3.79
  -1  -3   5   46.20    4.62
  -1  -3   5   56.51    3.81
   0   3  -5    9.21    1.23
   0   3  -5   11.64    1.14
   0  -3   5   10.10    1.72
  -1   3  -5  296.44   18.46
  -1   3  -5  321.96   18.27
   1  -3   5  287.89   19.23
  -2   3  -5  210.02   11.90
  -2   3  -5  181.28   12.14
   2  -3   5  191.12   13.02
  -3   3  -5   20.72    1.61
  -3   3  -5   18.24    1.91
   3  -3   5   22.63    2.67
   3  -3   5   18.84    1.50
  -4   3  -5  161.24   11.12
  -4   3  -5  178.93   10.68
   4  -3   5  176.73   12.06
   4  -3   5  180.41   10.56
  -5   3  -5   53.51    4.44
  -5   3  -5   62.17    3.94
   5  -3   5   64.97    3.89
   5  -3   5   54.88    5.14
  -6   3  -5   27.88    2.87
   6  -3   5   34.10    3.63
   6  -3   5   29.50    2.08
   6  -3   5   33.58    2.17
  -7   3  -5   43.84    3.90
   7  -3   5   42.36    2.97
   7  -3   5   45.25    4.68
   7  -3   5   51.10    3.14
  -8   3  -5    3.87    1.31
   8  -3   5    5.60    0.69
  -9   3  -5   67.00    5.59
   9  -3   5   69.94    6.47
   9  -3   5   70.66    4.52
 -10   3  -5   70.13    6.11
  10  -3   5   77.30    4.93
  10  -3   5   75.98    7.02
 -11   3  -5    3.40    1.38
  11  -3   5    1.42    1.59
  11  -3   5    3.95    0.75
 -12   3  -5   40.65    4.45
  12  -3   5   50.30    5.49
  12  -3   5   45.00    3.33
 -13   3  -5   29.23    3.71
  13  -3   5   28.81    4.39
  13  -3   5   27.50    2.45
 -14   3  -5   -0.14    1.22
 -15   3  -5    8.86    2.40
  15  -3   5    8.44    2.70
  11   2  -5   21.37    2.78
 -11  -2   5   19.43    2.79
  10   2  -5   61.33    5.12
 -10  -2   5   61.78    5.18
   9   2  -5    2.79    1.13
  -9  -2   5    1.48    1.03
   8   2  -5   22.48    2.48
  -8  -2   5   27.80    2.83
  -8  -2   5   21.94    2.54
   7   2  -5   46.48    3.93
  -7  -2   5   48.58    3.85
  -7  -2   5   46.48    3.91
   6   2  -5   12.35    1.66
  -6  -2   5   11.92    1.78
  -6  -2   5   10.81    1.57
   5   2  -5  135.41    9.44
  -5  -2   5  142.82    9.04
  -5  -2   5  140.96    9.37
   4   2  -5   54.13    4.11
  -4  -2   5   58.00    4.00
  -4  -2   5   54.41    4.36
   3   2  -5    1.14    0.51
  -3  -2   5    0.46    0.68
  -3  -2   5    1.20    0.54
   2   2  -5   95.34    6.51
   2   2  -5  104.15    6.42
  -2  -2   5  103.24    6.44
  -2  -2   5   95.02    6.99
   1   2  -5  103.20    6.75
   1   2  -5  105.03    6.83
  -1  -2   5  116.70    6.82
  -1  -2   5   98.25    7.41
   0   2  -5    3.38    0.66
   0   2  -5    4.17    0.74
   0  -2   5    2.13    1.63
  -1   2  -5  114.64    6.75
  -1   2  -5   98.52    6.80
   1  -2   5  105.96    7.66
  -2   2  -5   25.84    2.31
  -2   2  -5   31.14    2.18
   2  -2   5   30.17    3.10
  -3   2  -5  126.86    8.69
  -3   2  -5  142.92    8.48
   3  -2   5  147.99    8.41
   3  -2   5  123.90    9.46
  -4   2  -5  204.44   13.82
  -4   2  -5  232.87   13.53
   4  -2   5  244.68   13.42
   4  -2   5  201.52   14.61
  -5   2  -5   21.36    2.28
  -5   2  -5   23.00    1.93
   5  -2   5   28.30    1.88
   5  -2   5   22.80    2.86
  -6   2  -5   14.64    1.84
  -6   2  -5   11.23    1.26
   6  -2   5   12.57    1.10
   6  -2   5   16.18    1.52
   6  -2   5   12.73    2.12
  -7   2  -5   91.47    6.83
   7  -2   5  100.76    7.65
   7  -2   5   97.62    6.08
  -8   2  -5    0.83    0.83
   8  -2   5    1.57    1.17
   8  -2   5    0.84    0.38
  -9   2  -5   52.27    4.55
   9  -2   5   52.24    3.61
 -10   2  -5   16.01    2.45
  10  -2   5   14.45    1.49
  10  -2   5   17.37    3.36
 -11   2  -5   21.60    2.89
  11  -2   5   24.99    3.62
  11  -2   5   20.54    1.93
 -12   2  -5   62.30    5.57
  12  -2   5   60.43    4.39
  12  -2   5   59.15    6.08
 -13   2  -5   40.77    6.12
  13  -2   5   28.65    4.13
 -14   2  -5    3.88    1.74
  14  -2   5    1.47    1.70
  14  -2   5    5.42    1.15
 -15   2  -5   29.13    4.15
  15  -2   5   17.64    3.82
  15  -2   5   28.02    2.72
  12   1  -5    0.20    1.03
  11   1  -5   31.08    3.26
 -11  -1   5   25.27    3.18
  10   1  -5   34.77    3.36
 -10  -1   5   29.67    3.28
   9   1  -5    1.03    0.75
  -9  -1   5   -1.61    1.38
  -9  -1   5    1.17    0.92
   8   1  -5   36.54    3.34
  -8  -1   5   37.48    3.28
  -8  -1   5   35.67    3.75
   7   1  -5   88.10    6.48
  -7  -1   5   99.42    7.89
  -7  -1   5   87.93    6.29
   6   1  -5   40.61    3.35
  -6  -1   5   38.02    3.11
   5   1  -5   52.62    4.00
  -5  -1   5   53.86    4.49
  -5  -1   5   51.91    3.79
   4   1  -5   38.55    3.09
  -4  -1   5   40.89    3.44
  -4  -1   5   38.24    2.88
   3   1  -5   21.40    2.08
  -3  -1   5   25.53    2.49
  -3  -1   5   28.24    2.08
   2   1  -5  182.75   11.15
   2   1  -5  183.07   11.38
  -2  -1   5  190.95   11.19
  -2  -1   5  172.93   11.83
   1   1  -5   25.26    1.86
   1   1  -5   25.12    1.99
  -1  -1   5   22.17    2.43
   0   1  -5   38.99    2.73
   0  -1   5   38.99    3.49
  -1   1  -5   89.11    5.28
  -1   1  -5   79.87    5.26
   1  -1   5   69.16    7.25
  -2   1  -5    0.29    0.36
  -2   1  -5    0.00    0.27
   2  -1   5   -0.15    0.63
  -3   1  -5  116.27    8.05
  -3   1  -5  118.73    7.65
   3  -1   5  113.90    8.63
   3  -1   5  137.84    7.91
  -4   1  -5  137.06    8.86
  -4   1  -5  151.87    8.69
   4  -1   5  122.30    9.53
  -5   1  -5    0.97    0.61
  -5   1  -5    0.83    0.46
   5  -1   5    0.48    0.74
  -6   1  -5  114.67    7.88
  -6   1  -5  124.39    7.61
   6  -1   5  115.77    8.58
   6  -1   5  113.92    7.30
  -7   1  -5   40.63    3.58
   7  -1   5   43.34    3.00
   7  -1   5   43.91    4.22
  -8   1  -5    2.33    1.07
   8  -1   5    2.79    0.64
   8  -1   5    1.40    1.07
  -9   1  -5  127.00    8.88
   9  -1   5  127.62    8.05
   9  -1   5  122.83    9.47
 -10   1  -5   34.25    3.66
  10  -1   5   35.92    2.81
 -11   1  -5   23.83    3.15
  11  -1   5   24.57    3.45
  11  -1   5   25.05    2.24
 -12   1  -5   45.24    4.72
  12  -1   5   52.14    3.92
  12  -1   5   55.54    5.51
  13  -1   5   21.48    3.37
  13  -1   5   20.04    2.17
 -14   1  -5   12.03    2.63
  14  -1   5   11.31    2.72
  14  -1   5   13.94    1.81
 -15   1  -5   42.37    4.86
  15  -1   5   29.59    4.76
  15  -1   5   37.20    3.35
  12   0  -5   -0.28    0.83
 -12   0   5   -2.75    1.12
  11   0  -5   45.34    3.96
 -11   0   5   33.53    3.75
  10   0  -5   17.35    2.58
 -10   0   5   16.47    2.35
 -10   0   5   14.12    2.86
   9   0  -5   -0.13    0.65
  -9   0   5   -0.89    0.72
   8   0  -5   29.79    2.94
  -8   0   5   33.29    3.60
  -8   0   5   31.55    2.91
   7   0  -5    3.80    1.04
  -7   0   5    5.10    1.67
  -7   0   5    2.95    0.91
   6   0  -5   80.86    5.68
  -6   0   5   74.74    5.82
  -6   0   5   67.02    5.00
   5   0  -5  118.05    8.24
  -5   0   5  125.77    8.00
  -5   0   5  135.78    8.87
   4   0  -5    0.40    0.44
  -4   0   5    0.82    0.42
   3   0  -5   64.92    4.44
  -3   0   5   62.72    4.14
  -3   0   5   64.11    4.88
   2   0  -5  139.32    9.93
   2   0  -5  175.85   10.32
   2   0  -5  176.82    9.99
  -2   0   5  176.32   10.01
  -2   0   5  154.27   10.73
   1   0  -5   16.01    1.43
   1   0  -5   13.01    1.21
   1   0  -5   16.70    1.24
  -1   0   5   16.33    1.89
   0   0  -5  381.64   22.88
   0   0  -5  376.60   22.90
   0   0  -5  407.18   23.11
   0   0   5  374.00   23.77
  -1   0  -5   95.42    6.52
  -1   0  -5  112.56    6.67
   1   0   5  107.49    6.56
   1   0   5  103.74    7.42
  -2   0  -5    2.31    0.54
  -2   0  -5    2.18    0.53
   2   0   5    2.57    1.01
  -3   0  -5  332.49   19.59
  -3   0  -5  330.41   19.63
   3   0   5  308.80   20.48
  -4   0  -5   86.71    5.49
  -4   0  -5   85.25    5.57
   4   0   5   74.02    6.18
  -5   0  -5    4.04    0.86
  -5   0  -5    3.65    0.89
   5   0   5    5.24    1.42
  -6   0  -5  232.89   16.99
  -6   0  -5  288.97   17.23
   6   0   5  280.66   16.75
   6   0   5  308.61   18.11
  -7   0  -5   33.18    3.04
   7   0   5   37.12    3.59
   7   0   5   31.80    2.49
  -8   0  -5   28.16    2.97
   8   0   5   34.58    3.55
   8   0   5   30.33    2.42
  -9   0  -5   95.58    8.54
   9   0   5  113.71    8.27
   9   0   5  105.69    6.94
 -10   0  -5    1.61    1.05
  10   0   5    0.61    1.13
  10   0   5    2.62    0.80
 -11   0  -5   13.85    2.39
  11   0   5   14.42    1.70
 -12   0  -5  104.01    7.95
  12   0   5  107.58    8.43
  12   0   5   96.56    6.97
 -13   0  -5    1.38    1.20
  13   0   5    1.38    1.45
  13   0   5    0.79    0.74
 -14   0  -5   26.83    3.68
  14   0   5   25.30    2.61
  14   0   5   19.60    3.68
 -15   0  -5   16.96    3.15
  15   0   5   10.98    2.59
  15   0   5   16.22    2.22
  12  -1  -5    5.41    1.49
 -12   1   5    3.00    1.39
  11  -1  -5   49.92    4.19
 -11   1   5   44.11    5.59
 -11   1   5   38.48    3.98
  10  -1  -5    9.49    1.81
 -10   1   5    7.35    2.51
 -10   1   5    4.20    2.03
   9  -1  -5   19.58    2.15
  -9   1   5   15.88    2.17
  -9   1   5   18.02    3.25
   8  -1  -5  168.62   11.23
  -8   1   5  156.04   10.94
  -8   1   5  193.69   12.51
   7  -1  -5    1.19    0.70
  -7   1   5    0.40    1.17
  -7   1   5    0.44    0.52
   6  -1  -5   40.84    3.24
  -6   1   5   36.47    2.95
  -6   1   5   43.71    4.04
   5  -1  -5   36.03    2.82
  -5   1   5   31.59    2.46
  -5   1   5   34.60    3.39
   4  -1  -5    3.30    0.78
   4  -1  -5    2.77    0.52
  -4   1   5    3.22    1.10
  -4   1   5    2.31    0.49
   3  -1  -5  146.61    9.16
   3  -1  -5  161.56    9.61
  -3   1   5  145.85    9.17
  -3   1   5  154.55   10.71
   2  -1  -5   83.62    4.78
   2  -1  -5   79.62    5.17
   2  -1  -5   67.58    4.75
  -2   1   5   74.82    5.69
  -2   1   5   82.36    4.79
   1  -1  -5   42.70    2.80
   1  -1  -5   40.68    2.41
   1  -1  -5   31.67    2.36
  -1   1   5   35.55    3.19
   0  -1  -5  482.10   28.83
   0  -1  -5  509.38   29.19
   0  -1  -5  474.93   28.88
   0   1   5  546.77   28.90
   0   1   5  426.89   29.66
  -1  -1  -5   78.21    4.84
  -1  -1  -5   69.73    4.60
   1   1   5   68.73    5.36
   1   1   5   74.88    4.75
  -2  -1  -5    5.17    0.76
  -2  -1  -5    6.59    0.82
   2   1   5    5.22    0.74
   2   1   5    6.27    1.37
  -3  -1  -5  148.53    8.62
  -3  -1  -5  126.07    8.42
   3   1   5  130.66    9.27
  -4  -1  -5  221.22   14.88
  -4  -1  -5  247.41   14.62
   4   1   5  241.53   15.49
  -5  -1  -5   27.49    2.41
  -5  -1  -5   30.12    2.45
   5   1   5   28.28    2.99
  -6  -1  -5   73.62    5.02
  -6  -1  -5   58.40    4.82
   6   1   5   73.41    5.63
   6   1   5   73.84    4.67
  -7  -1  -5   10.25    1.63
   7   1   5    9.05    1.08
   7   1   5    9.41    1.88
  -8  -1  -5   45.67    4.07
   8   1   5   52.05    3.73
   8   1   5   56.42    4.70
   9   1   5  104.12    7.64
   9   1   5   93.51    6.55
 -10  -1  -5    0.20    0.75
  10   1   5   -1.31    0.84
  10   1   5    0.13    0.52
 -11  -1  -5   46.13    4.33
  11   1   5   41.01    4.43
  11   1   5   43.55    3.60
 -12  -1  -5   70.59    5.96
  12   1   5   69.82    5.23
 -13  -1  -5   -1.31    1.51
  13   1   5   -1.81    1.11
  13   1   5   -0.04    0.58
 -14  -1  -5   34.24    4.11
  14   1   5   30.68    3.87
  14   1   5   31.38    3.09
 -15  -1  -5    6.89    2.23
  15   1   5    7.37    1.55
  15   1   5    5.09    1.95
  12  -2  -5   13.27    2.09
 -12   2   5   10.25    4.19
  11  -2  -5   59.60    4.98
  11  -2  -5   51.35    5.09
 -11   2   5   55.25    6.41
 -11   2   5   41.94    4.28
  10  -2  -5    6.49    2.11
  10  -2  -5    8.73    1.70
 -10   2   5    8.22    2.90
   9  -2  -5   44.92    4.61
   9  -2  -5   50.85    4.07
  -9   2   5   54.45    5.63
  -9   2   5   44.74    3.91
   8  -2  -5   47.94    3.93
   8  -2  -5   47.14    4.52
  -8   2   5   44.54    3.75
  -8   2   5   61.72    5.61
   7  -2  -5   -0.23    0.46
   7  -2  -5   -0.97    0.80
  -7   2   5   -0.33    0.43
  -7   2   5   -1.80    0.96
   6  -2  -5  189.04   11.94
   6  -2  -5  186.63   12.51
  -6   2   5  212.25   13.25
  -6   2   5  168.41   11.55
   5  -2  -5   74.33    5.63
   5  -2  -5   76.48    5.13
  -5   2   5   67.73    4.72
  -5   2   5   75.99    6.03
   4  -2  -5    0.56    0.44
   4  -2  -5    0.50    0.65
   4  -2  -5    0.21    0.28
  -4   2   5    0.42    0.70
  -4   2   5    0.38    0.25
   3  -2  -5  172.92   10.80
   3  -2  -5  154.18    9.76
   3  -2  -5  180.83   10.32
  -3   2   5  142.51    9.75
  -3   2   5  172.84   11.11
   2  -2  -5   86.38    5.22
   2  -2  -5   91.53    5.76
  -2   2   5   84.06    6.82
   1  -2  -5   96.69    5.87
  -1   2   5   80.76    6.34
   0  -2  -5  376.95   24.79
   0  -2  -5  452.26   25.28
   0   2   5  379.05   25.75
   0   2   5  473.74   24.82
  -1  -2  -5   29.99    2.00
  -1  -2  -5   28.77    2.26
   1   2   5   31.95    2.05
   1   2   5   26.35    2.64
  -2  -2  -5   30.61    2.11
  -2  -2  -5   31.25    2.38
   2   2   5   26.86    2.68
   2   2   5   28.33    2.13
  -3  -2  -5   50.54    3.57
  -3  -2  -5   49.35    3.36
   3   2   5   45.21    3.95
  -4  -2  -5  104.01    6.86
  -4  -2  -5  110.32    6.76
   4   2   5   93.13    7.26
  -5  -2  -5  165.57   11.33
  -5  -2  -5  182.29   11.32
   5   2   5  193.71   12.40
  -6  -2  -5  192.37   12.31
  -6  -2  -5  205.85   12.43
   6   2   5  195.61   12.04
   6   2   5  184.40   12.81
  -7  -2  -5   22.04    2.38
   7   2   5   25.67    2.73
   7   2   5   24.06    2.05
  -8  -2  -5   30.64    2.94
   8   2   5   28.77    2.51
   8   2   5   32.83    3.21
  -9  -2  -5    1.53    1.00
   9   2   5    0.58    0.86
   9   2   5    1.27    0.70
 -10  -2  -5    4.95    1.42
  10   2   5    6.76    1.79
  10   2   5    6.01    1.23
 -11  -2  -5  151.73   10.58
  11   2   5  156.42   10.00
  11   2   5  142.82   10.57
 -12  -2  -5   29.02    3.63
  12   2   5   35.13    3.07
  12   2   5   27.31    3.45
 -13  -2  -5    0.79    1.58
  13   2   5    1.83    0.87
  13   2   5    0.96    1.36
 -14  -2  -5   21.19    3.33
  14   2   5   16.21    3.02
  14   2   5   23.22    2.66
 -15  -2  -5    1.80    1.72
  15   2   5    4.53    1.33
  12  -3  -5   17.08    2.38
  12  -3  -5   14.70    3.45
 -12   3   5   21.51    4.77
 -12   3   5    8.43    2.98
  11  -3  -5   48.31    4.32
  11  -3  -5   46.84    5.27
 -11   3   5   50.37    5.37
 -11   3   5   67.10    7.11
  10  -3  -5   -0.28    1.38
  10  -3  -5    1.95    0.95
 -10   3   5    0.49    2.12
 -10   3   5   -0.05    0.75
   9  -3  -5   57.52    4.35
   9  -3  -5   40.69    6.76
  -9   3   5   51.22    4.12
  -9   3   5   54.58    8.25
   8  -3  -5   17.72    1.99
   8  -3  -5   15.80    2.74
  -8   3   5   15.42    1.83
   7  -3  -5    7.03    2.00
   7  -3  -5    5.21    1.34
  -7   3   5    4.53    0.94
   6  -3  -5   70.11    4.88
   6  -3  -5   74.44    5.77
  -6   3   5   62.88    4.54
   5  -3  -5   59.69    4.69
   5  -3  -5   48.60    3.48
   5  -3  -5   56.94    3.94
  -5   3   5   52.30    3.55
   4  -3  -5   23.31    2.57
   4  -3  -5   21.86    1.61
   4  -3  -5   23.85    1.98
  -4   3   5   18.99    1.51
  -4   3   5   22.28    2.76
   3  -3  -5  192.58   11.96
   3  -3  -5  208.59   12.54
   3  -3  -5  200.76   13.13
  -3   3   5  208.20   13.54
   2  -3  -5    2.98    0.70
   2  -3  -5    4.11    1.08
  -2   3   5    2.93    1.15
   1  -3  -5   25.03    2.78
   1  -3  -5   35.68    2.60
  -1   3   5   26.97    3.05
   0  -3  -5  101.89    6.22
   0   3   5   97.84    5.71
   0   3   5   82.87    6.66
  -1  -3  -5   13.94    1.12
  -1  -3  -5   17.09    1.53
   1   3   5   16.23    1.22
   1   3   5   15.14    1.85
  -2  -3  -5   83.74    5.24
  -2  -3  -5   79.52    5.58
   2   3   5   88.64    5.32
   2   3   5   80.50    5.96
  -3  -3  -5  227.98   13.62
   3   3   5  219.42   14.30
  -4  -3  -5    1.50    0.67
   4   3   5    2.07    0.87
  -5  -3  -5  102.33    6.41
   5   3   5   98.06    6.90
   5   3   5   86.58    6.12
  -6  -3  -5   35.78    2.93
  -6  -3  -5   32.15    2.94
   6   3   5   36.66    3.68
   6   3   5   34.33    2.66
  -7  -3  -5   21.98    2.28
   7   3   5   22.41    2.46
   7   3   5   19.37    1.88
  -8  -3  -5   73.29    5.56
   8   3   5   76.43    5.71
   8   3   5   71.19    5.14
  -9  -3  -5    5.37    1.37
   9   3   5    4.98    1.07
   9   3   5    3.56    1.31
 -10  -3  -5   44.12    3.97
  10   3   5   39.19    3.35
  10   3   5   37.03    3.71
 -11  -3  -5  122.82    8.86
  11   3   5  118.84    8.61
  11   3   5  120.12    8.29
 -12  -3  -5    6.64    1.70
  12   3   5    5.97    1.60
  12   3   5   10.90    1.65
 -13  -3  -5   14.65    3.09
  13   3   5   19.95    2.77
  13   3   5   25.56    2.64
 -14  -3  -5   49.69    5.45
  14   3   5   57.35    4.76
 -15  -3  -5   -2.30    1.34
  15   3   5    0.23    0.88
  12  -4  -5   37.89    5.09
  12  -4  -5   60.43    4.54
 -12   4   5   58.87    7.20
 -12   4   5   46.49    4.39
  11  -4  -5   37.43    5.09
  11  -4  -5   58.44    4.34
  10  -4  -5   -0.57    0.64
  10  -4  -5   -1.87    1.34
 -10   4   5   -0.56    0.72
   9  -4  -5   32.09    2.92
   9  -4  -5   28.75    3.93
  -9   4   5   29.28    2.84
   8  -4  -5   -0.37    2.43
   8  -4  -5    1.51    0.76
  -8   4   5    0.88    0.62
   7  -4  -5   71.35    5.16
   7  -4  -5   73.65    6.26
   6  -4  -5  167.50   10.48
   6  -4  -5  167.00   11.50
  -6   4   5  156.68   10.15
   5  -4  -5   20.72    1.73
   5  -4  -5   28.03    3.06
   5  -4  -5   25.24    2.16
  -5   4   5   24.53    1.86
   4  -4  -5   81.13    5.02
   4  -4  -5   75.44    5.78
   4  -4  -5   66.87    4.53
  -4   4   5   67.77    4.50
   3  -4  -5   77.23    5.01
   3  -4  -5   72.49    5.65
   3  -4  -5   72.81    4.44
  -3   4   5   71.59    4.50
   2  -4  -5   27.73    2.79
   2  -4  -5   29.88    2.34
  -2   4   5   28.53    3.05
   1  -4  -5  379.10   24.71
   1  -4  -5  446.22   24.33
  -1   4   5  387.18   25.09
  -1   4   5  396.71   23.71
   0  -4  -5  155.55   10.19
   0  -4  -5  149.95    9.24
   0   4   5  154.86   10.51
   0   4   5  158.70    9.29
  -1  -4  -5    4.08    0.55
  -1  -4  -5    4.35    1.06
   1   4   5    3.80    1.15
   1   4   5    3.51    0.55
  -2  -4  -5  248.04   14.63
   2   4   5  246.07   15.47
   2   4   5  234.72   14.65
  -3  -4  -5  175.81   11.15
  -3  -4  -5  193.13   11.60
   3   4   5  177.53   11.80
  -4  -4  -5    0.19    0.37
  -4  -4  -5    0.09    0.45
   4   4   5    1.01    0.58
  -5  -4  -5  144.69    9.05
  -5  -4  -5  145.59    9.28
   5   4   5  136.66    9.45
   5   4   5  136.76    8.90
  -6  -4  -5   49.93    3.92
  -6  -4  -5   49.07    3.79
   6   4   5   46.24    3.54
   6   4   5   50.23    4.07
  -7  -4  -5   48.11    3.93
   7   4   5   49.53    3.68
  -8  -4  -5   39.26    3.62
   8   4   5   40.96    3.32
   8   4   5   42.99    3.65
  -9  -4  -5   75.50    5.76
   9   4   5   71.20    5.46
   9   4   5   69.50    5.20
 -10  -4  -5   26.18    3.15
  10   4   5   28.76    2.88
  10   4   5   30.79    2.83
 -11  -4  -5   66.56    5.77
  11   4   5   65.94    5.26
  11   4   5   73.29    5.38
 -12  -4  -5    0.36    0.98
  12   4   5   -0.79    0.91
  12   4   5    1.08    0.81
 -13  -4  -5   17.21    3.12
  13   4   5   20.08    2.88
 -14  -4  -5   25.18    3.84
  14   4   5   24.06    2.89
 -15  -4  -5   -0.26    1.41
  15   4   5    0.96    0.97
  12  -5  -5   54.09    4.46
  12  -5  -5   37.04    5.11
 -12   5   5   39.67    4.71
  11  -5  -5   14.77    3.16
  11  -5  -5   18.48    2.15
 -11   5   5   14.09    3.09
  10  -5  -5   13.89    1.81
  10  -5  -5   12.47    3.09
 -10   5   5   10.14    1.86
   9  -5  -5   53.87    5.60
   9  -5  -5   57.18    4.39
  -9   5   5   56.56    4.40
   8  -5  -5    5.74    1.19
   8  -5  -5    5.92    1.96
  -8   5   5    5.93    1.23
   7  -5  -5   16.09    4.59
   7  -5  -5   21.06    2.10
  -7   5   5   23.13    2.57
   6  -5  -5   68.85    6.14
   6  -5  -5   71.82    5.04
  -6   5   5   72.52    4.85
   5  -5  -5    0.23    0.42
   5  -5  -5   -0.31    0.92
   5  -5  -5    0.05    0.32
  -5   5   5    0.34    0.42
   4  -5  -5  188.47   12.28
   4  -5  -5  187.56   11.83
   4  -5  -5  190.77   13.24
  -4   5   5  220.20   12.03
   3  -5  -5  109.24    8.37
   3  -5  -5  126.54    7.68
  -3   5   5  121.53    7.25
  -3   5   5  113.16    7.15
   2  -5  -5    2.10    0.86
   2  -5  -5    1.61    0.57
  -2   5   5    1.48    0.39
  -2   5   5    1.49    0.29
   1  -5  -5  215.86   12.60
   1  -5  -5  201.24   13.11
  -1   5   5  178.56   12.05
  -1   5   5  212.04   12.11
   0  -5  -5   59.71    3.83
   0  -5  -5   49.84    3.21
   0  -5  -5   48.49    3.98
   0   5   5   45.78    3.24
   0   5   5   47.56    4.25
  -1  -5  -5   12.38    1.16
  -1  -5  -5   17.73    1.86
   1   5   5   13.23    1.20
   1   5   5   14.06    1.88
  -2  -5  -5  323.14   20.29
  -2  -5  -5  360.17   20.84
   2   5   5  332.94   21.66
  -3  -5  -5    8.10    1.30
   3   5   5    6.70    1.23
  -4  -5  -5   66.06    4.70
  -4  -5  -5   63.41    4.35
   4   5   5   62.70    4.76
   4   5   5   60.12    4.31
  -5  -5  -5  217.61   12.98
  -5  -5  -5  204.65   13.19
   5   5   5  201.69   13.28
   5   5   5  203.65   12.85
  -6  -5  -5   14.31    1.92
  -6  -5  -5   16.59    1.81
   6   5   5   15.64    1.87
   6   5   5   14.25    1.56
  -7  -5  -5   19.48    2.27
   7   5   5   19.25    1.96
   7   5   5   20.52    2.22
  -8  -5  -5   60.60    6.19
   8   5   5   69.36    5.07
  -9  -5  -5    0.98    0.88
   9   5   5   -0.43    0.95
   9   5   5    0.13    0.57
 -10  -5  -5   43.91    4.23
  10   5   5   43.97    3.76
 -11  -5  -5   19.92    2.96
  11   5   5   21.07    2.42
 -12  -5  -5    0.19    1.13
  12   5   5   -0.65    0.64
 -13  -5  -5   47.68    5.08
  13   5   5   52.30    4.56
 -14  -5  -5    5.42    1.95
  14   5   5    9.17    1.93
  12  -6  -5   32.59    3.25
  11  -6  -5   -2.36    1.58
  11  -6  -5    0.50    0.68
  10  -6  -5   22.96    2.39
  10  -6  -5   20.84    3.47
 -10   6   5   18.60    2.41
   9  -6  -5   67.03    4.96
   9  -6  -5   65.59    6.39
  -9   6   5   62.96    4.90
   8  -6  -5   -0.17    1.66
   8  -6  -5    1.62    0.83
  -8   6   5   -0.22    0.53
   7  -6  -5   28.67    2.51
   7  -6  -5   24.06    3.66
  -7   6   5   27.98    2.50
   6  -6  -5   14.46    3.61
   6  -6  -5   12.95    1.64
  -6   6   5   15.36    1.72
   5  -6  -5   13.43    1.56
   5  -6  -5   14.33    2.47
  -5   6   5   12.01    1.42
   4  -6  -5  115.64    8.61
   4  -6  -5  148.48   10.09
   4  -6  -5  151.23    8.90
   3  -6  -5   51.47    4.46
   3  -6  -5   46.07    3.50
  -3   6   5   44.28    3.12
  -3   6   5   49.60    3.29
   2  -6  -5   37.87    3.04
   2  -6  -5   41.88    3.78
  -2   6   5   40.96    2.77
  -2   6   5   38.55    2.68
   1  -6  -5  264.86   15.14
   1  -6  -5  235.73   15.62
  -1   6   5  206.74   14.56
  -1   6   5  265.04   14.69
   0  -6  -5   25.70    1.89
   0  -6  -5   29.50    2.43
   0  -6  -5   24.04    2.56
   0   6   5   21.83    2.71
  -1  -6  -5   42.49    3.04
  -1  -6  -5   43.37    3.66
  -1  -6  -5   46.61    3.57
   1   6   5   45.90    4.01
  -2  -6  -5  245.15   14.96
  -2  -6  -5  236.75   14.98
   2   6   5  229.50   15.29
  -3  -6  -5   38.68    3.28
  -3  -6  -5   39.92    2.95
  -4  -6  -5   54.43    3.86
  -4  -6  -5   54.54    4.20
   4   6   5   53.30    3.84
   4   6   5   51.24    4.21
  -5  -6  -5   93.05    6.67
  -5  -6  -5  100.92    6.43
   5   6   5   91.36    6.60
   5   6   5   91.18    6.29
  -6  -6  -5    2.14    0.81
   6   6   5    1.45    0.58
   6   6   5    2.55    0.85
  -7  -6  -5   62.40    4.80
   7   6   5   66.86    4.81
   7   6   5   57.86    4.53
  -8  -6  -5   70.41    5.91
   8   6   5   83.28    5.73
   8   6   5   85.33    5.83
  -9  -6  -5    4.34    1.35
   9   6   5    6.77    1.37
   9   6   5    5.52    1.07
 -10  -6  -5   64.11    5.38
  10   6   5   63.09    4.89
  10   6   5   59.58    4.35
 -11  -6  -5   23.23    3.04
  11   6   5   18.35    2.26
 -12  -6  -5    1.84    1.29
  12   6   5    4.96    1.30
 -13  -6  -5   16.65    3.22
  13   6   5   18.20    2.48
 -14  -6  -5    3.38    1.81
  14   6   5    4.02    1.45
  12  -7  -5   23.46    3.99
  11  -7  -5   -0.71    0.56
  10  -7  -5   28.56    2.74
  10  -7  -5   27.52    4.19
 -10   7   5   26.76    2.83
   9  -7  -5   43.50    5.04
   9  -7  -5   39.44    3.48
  -9   7   5   43.57    3.59
   8  -7  -5   18.13    3.55
   8  -7  -5   15.87    1.92
  -8   7   5   16.72    2.07
   7  -7  -5   98.26    8.01
   7  -7  -5   85.64    6.24
  -7   7   5   92.37    6.29
   6  -7  -5   15.66    1.73
   6  -7  -5   12.88    2.71
  -6   7   5   12.84    1.68
   5  -7  -5   31.27    6.42
   5  -7  -5   21.51    2.14
   4  -7  -5  131.84    8.51
   4  -7  -5  130.49    9.75
  -4   7   5  130.08    8.35
   3  -7  -5   55.09    4.93
   3  -7  -5   51.78    3.94
  -3   7   5   55.22    3.79
   2  -7  -5   76.68    5.12
   2  -7  -5   68.81    5.80
  -2   7   5   70.02    4.78
   1  -7  -5  151.50   10.67
   1  -7  -5  147.51   10.03
  -1   7   5  166.97    9.74
   0  -7  -5    0.02    0.52
   0  -7  -5    0.25    0.68
   0  -7  -5   -0.04    0.36
   0   7   5    0.67    0.48
  -1  -7  -5  109.21    7.22
  -1  -7  -5   99.65    7.29
  -1  -7  -5  104.42    6.65
   1   7   5  102.99    7.71
  -2  -7  -5  197.48   12.12
  -2  -7  -5  183.83   11.57
  -2  -7  -5  182.03   12.08
   2   7   5  183.73   12.47
  -3  -7  -5    3.14    0.95
  -3  -7  -5    4.33    0.86
   3   7   5    3.77    1.13
   3   7   5    4.32    0.84
  -4  -7  -5   64.31    5.03
  -4  -7  -5   70.09    4.74
   4   7   5   64.19    4.67
  -5  -7  -5   89.51    6.27
  -5  -7  -5   87.01    5.92
   5   7   5   83.01    5.83
   5   7   5   81.26    6.08
  -6  -7  -5    0.76    0.65
   6   7   5    0.48    0.50
   6   7   5   -0.13    0.59
  -7  -7  -5   39.42    3.56
   7   7   5   39.21    3.35
   7   7   5   44.50    3.48
  -8  -7  -5    2.78    1.13
   8   7   5    3.22    0.86
   8   7   5    3.41    1.04
   8   7   5    1.74    1.18
  -9  -7  -5   35.18    3.63
   9   7   5   41.81    3.46
   9   7   5   35.96    2.71
 -10  -7  -5   51.32    4.98
  10   7   5   62.69    4.81
 -11  -7  -5    7.75    2.15
  11   7   5   14.47    2.04
 -12  -7  -5    9.65    2.18
  12   7   5   13.48    2.10
 -13  -7  -5   19.06    3.52
  13   7   5   27.46    3.11
  12  -8  -5    7.57    1.36
  12  -8  -5    4.49    2.43
  11  -8  -5    0.13    0.75
  11  -8  -5    0.09    1.69
  10  -8  -5   40.77    3.45
  10  -8  -5   40.93    6.56
 -10   8   5   36.77    3.52
   9  -8  -5    6.97    1.35
   9  -8  -5    6.97    2.61
  -9   8   5    4.50    1.31
   8  -8  -5   25.50    3.76
   8  -8  -5   21.91    2.33
  -8   8   5   24.89    2.51
   7  -8  -5   54.70    5.67
   7  -8  -5   49.04    3.90
  -7   8   5   52.34    4.07
   6  -8  -5   11.82    1.57
   6  -8  -5   14.96    3.08
  -6   8   5   11.70    1.69
   5  -8  -5    9.04    2.52
   5  -8  -5    9.81    1.37
  -5   8   5   10.04    1.49
   4  -8  -5   25.86    2.39
  -4   8   5   28.05    2.43
   3  -8  -5    0.46    1.11
   3  -8  -5    0.48    0.55
  -3   8   5    0.09    0.44
   2  -8  -5  103.92    7.47
   2  -8  -5  113.28    8.44
  -2   8   5  118.42    7.34
   1  -8  -5   61.06    4.70
   1  -8  -5   62.17    5.31
  -1   8   5   63.95    4.38
   0  -8  -5   18.24    2.44
   0  -8  -5   21.49    1.80
   0  -8  -5   18.84    2.14
   0   8   5   20.18    1.81
  -1  -8  -5  120.61    8.28
  -1  -8  -5  123.51    7.75
  -1  -8  -5  118.73    8.46
  -2  -8  -5  118.46    8.48
  -2  -8  -5  128.35    8.06
  -2  -8  -5  122.78    8.55
   2   8   5  124.88    8.12
   2   8   5  129.10    9.03
  -3  -8  -5   15.75    1.72
  -3  -8  -5   13.86    1.96
   3   8   5   13.12    1.96
   3   8   5   14.20    1.59
  -4  -8  -5  109.81    7.66
  -4  -8  -5  109.35    7.24
   4   8   5  105.63    7.20
   4   8   5  104.56    7.65
  -5  -8  -5   28.74    2.72
   5   8   5   28.80    2.59
   5   8   5   27.73    3.67
  -6  -8  -5   19.10    2.20
   6   8   5   17.78    1.94
   6   8   5   18.06    2.09
  -7  -8  -5  106.93    7.43
   7   8   5  103.86    7.27
   7   8   5  102.76    7.04
  -8  -8  -5    1.65    0.99
   8   8   5    0.26    0.87
   8   8   5    3.42    1.10
   8   8   5    2.07    0.60
  -9  -8  -5   30.68    3.57
   9   8   5   37.00    3.33
 -10  -8  -5   54.13    5.08
  10   8   5   60.97    4.85
 -11  -8  -5   -0.04    1.18
  11   8   5   -0.65    0.44
 -12  -8  -5    7.30    2.31
  12   8   5   12.76    2.04
 -13  -8  -5   29.81    4.22
  13   8   5   33.18    3.63
  11  -9  -5    2.36    1.07
  11  -9  -5    2.83    2.32
  10  -9  -5   35.34    3.14
  10  -9  -5   37.81    4.96
 -10   9   5   31.82    3.31
   9  -9  -5    0.80    0.81
   9  -9  -5    3.00    2.34
  -9   9   5    0.94    0.87
   8  -9  -5   32.12    4.55
   8  -9  -5   28.46    2.68
  -8   9   5   25.93    2.84
   7  -9  -5   53.41    5.66
   7  -9  -5   52.81    3.97
  -7   9   5   48.32    4.11
   6  -9  -5   11.92    2.81
   6  -9  -5    8.73    1.45
  -6   9   5   10.96    1.70
   5  -9  -5   33.05    2.89
   5  -9  -5   37.52    4.36
  -5   9   5   35.48    3.07
   4  -9  -5   95.37    7.57
   4  -9  -5   75.74    5.84
  -4   9   5   88.46    5.99
   3  -9  -5    0.89    1.32
   3  -9  -5    2.90    0.90
  -3   9   5    2.27    0.87
   2  -9  -5   85.11    6.46
   2  -9  -5   98.86    7.55
  -2   9   5   95.21    6.34
   1  -9  -5   38.43    3.34
   1  -9  -5   36.36    3.83
  -1   9   5   36.74    2.98
   0  -9  -5    1.16    0.57
   0  -9  -5    1.31    0.92
   0  -9  -5    0.53    0.72
   0   9   5    0.89    0.61
  -1  -9  -5   83.40    6.37
  -1  -9  -5   83.79    6.18
  -1  -9  -5   80.66    5.61
   1   9   5   85.14    5.75
  -2  -9  -5    9.12    1.41
  -2  -9  -5    8.18    1.74
  -2  -9  -5    9.74    1.76
   2   9   5    9.69    1.32
   2   9   5    9.38    2.05
  -3  -9  -5   27.42    3.00
  -3  -9  -5   34.09    2.79
  -3  -9  -5   30.48    2.94
   3   9   5   26.85    3.12
   3   9   5   29.13    2.65
  -4  -9  -5  149.94    9.53
   4   9   5  140.19   10.01
   4   9   5  143.03    9.51
  -5  -9  -5   23.88    2.68
   5   9   5   27.28    2.57
   5   9   5   28.67    2.97
  -6  -9  -5    6.03    1.36
   6   9   5    9.28    1.45
   6   9   5    8.67    1.55
  -7  -9  -5   45.05    3.81
   7   9   5   39.77    3.59
   7   9   5   39.77    3.15
  -8  -9  -5   -1.07    0.75
   8   9   5    0.40    0.72
  -9  -9  -5   36.76    3.94
   9   9   5   44.36    3.83
 -10  -9  -5   29.44    3.56
  10   9   5   37.18    3.53
 -11  -9  -5   -1.41    0.96
  11   9   5    0.40    0.83
 -12  -9  -5   12.57    2.54
  11 -10  -5   14.48    4.11
  10 -10  -5   23.82    4.67
 -10  10   5   14.91    2.42
   9 -10  -5   -0.33    0.74
   9 -10  -5    0.41    1.78
  -9  10   5   -0.44    0.85
   8 -10  -5   10.71    1.64
  -8  10   5    8.53    1.60
   7 -10  -5   24.03    2.44
   7 -10  -5   27.80    3.99
  -7  10   5   26.34    2.76
   6 -10  -5   14.34    1.77
   6 -10  -5   14.35    2.97
  -6  10   5   13.61    2.12
   5 -10  -5   59.43    4.56
   5 -10  -5   64.13    6.17
  -5  10   5   63.27    4.83
   4 -10  -5    2.52    1.54
   4 -10  -5    0.44    0.75
  -4  10   5    1.41    0.88
   3 -10  -5   62.41    5.62
   3 -10  -5   47.91    4.25
  -3  10   5   59.39    4.43
   2 -10  -5  105.60    8.61
   2 -10  -5  104.00    7.64
  -2  10   5  123.08    8.00
   1 -10  -5   26.07    3.40
   1 -10  -5   28.22    2.88
  -1  10   5   27.24    2.50
   0 -10  -5   24.86    2.25
   0 -10  -5   22.83    3.00
   0 -10  -5   21.57    2.60
   0  10   5   24.24    2.25
   0  10   5   21.82    2.17
  -1 -10  -5   91.92    7.07
  -1 -10  -5   93.02    6.87
  -1 -10  -5   92.18    6.28
   1  10   5   93.82    6.40
   1  10   5   90.74    6.30
  -2 -10  -5    3.76    1.39
  -2 -10  -5    4.41    1.13
  -2 -10  -5    7.05    1.74
   2  10   5    5.63    1.76
   2  10   5    5.32    1.19
  -3 -10  -5  130.02    8.99
  -3 -10  -5  128.54    9.04
  -3 -10  -5  130.12    9.17
   3  10   5  128.06    8.65
   3  10   5  127.71    9.44
  -4 -10  -5  113.93    7.64
   4  10   5  103.92    8.13
   4  10   5  113.53    7.67
  -5 -10  -5    6.40    1.35
   5  10   5    7.92    1.49
   5  10   5    7.24    1.62
  -6 -10  -5   34.72    3.31
   6  10   5   33.13    3.40
   6  10   5   36.03    3.29
  -7 -10  -5   30.88    3.15
   7  10   5   29.21    2.90
   7  10   5   24.57    2.20
  -8 -10  -5    1.03    0.96
   8  10   5    0.97    0.77
  -9 -10  -5   57.00    5.54
   9  10   5   66.06    5.32
 -10 -10  -5    9.05    2.16
  10  10   5   15.53    2.22
 -11 -10  -5    0.65    1.31
  11  10   5    3.98    1.48
 -12 -10  -5   38.99    4.77
  12  10   5   45.27    4.27
  10 -11  -5   12.01    3.53
 -10  11   5    9.63    1.87
   9 -11  -5    1.82    2.00
  -9  11   5    1.93    1.51
   8 -11  -5   62.27    6.53
   8 -11  -5   51.43    4.14
  -8  11   5   50.53    4.46
   7 -11  -5   12.77    1.76
   7 -11  -5   12.32    4.63
  -7  11   5    9.74    1.84
   6 -11  -5    6.02    1.25
   6 -11  -5    8.08    2.52
   5 -11  -5   70.40    5.58
   5 -11  -5   93.91    7.64
  -5  11   5   79.38    6.01
   4 -11  -5    1.22    0.79
   4 -11  -5   -1.03    1.38
  -4  11   5    0.94    0.95
   3 -11  -5   38.32    4.38
   3 -11  -5   31.87    3.19
  -3  11   5   38.98    3.39
   2 -11  -5   42.84    3.91
   2 -11  -5   45.74    4.85
  -2  11   5   49.41    3.91
   1 -11  -5    5.65    1.84
   1 -11  -5    6.54    1.54
  -1  11   5    7.37    1.29
  -1  11   5    5.56    1.24
   0 -11  -5   71.60    6.05
   0 -11  -5   91.42    5.94
   0  11   5   74.77    5.60
  -1 -11  -5  161.23   11.61
  -1 -11  -5  169.43   11.43
  -1 -11  -5  166.61   10.78
   1  11   5  164.98   10.81
   1  11   5  172.01   10.91
  -2 -11  -5    3.14    1.38
  -2 -11  -5    6.97    1.38
   2  11   5    6.31    1.91
   2  11   5    5.24    1.25
   2  11   5    4.57    1.19
  -3 -11  -5   30.66    3.25
  -3 -11  -5   30.84    2.89
   3  11   5   26.40    3.40
   3  11   5   29.94    2.85
  -4 -11  -5   32.07    3.10
   4  11   5   33.48    3.11
   4  11   5   32.34    3.60
  -5 -11  -5    5.63    1.39
   5  11   5    6.53    1.48
   5  11   5    5.22    1.33
  -6 -11  -5   29.06    2.98
   6  11   5   26.45    2.84
   6  11   5   24.49    3.65
  -7 -11  -5   36.77    3.71
   7  11   5   41.49    3.71
  -8 -11  -5    3.27    1.26
  -9 -11  -5   46.14    4.54
   9  11   5   50.56    4.50
 -10 -11  -5    2.23    1.64
  10  11   5    3.04    1.37
 -11 -11  -5   -0.07    1.27
  11  11   5    2.78    1.37
   9 -12  -5    7.42    2.66
  -9  12   5    3.47    1.24
   8 -12  -5   40.01    5.55
  -8  12   5   41.72    3.95
   7 -12  -5   26.09    4.36
  -7  12   5   16.65    2.68
   6 -12  -5   41.28    5.92
   6 -12  -5   26.35    2.63
  -6  12   5   26.30    3.17
   5 -12  -5   37.67    3.29
   5 -12  -5   41.27    5.03
  -5  12   5   38.65    3.80
   4 -12  -5    1.05    1.66
   4 -12  -5   -0.47    0.74
  -4  12   5    0.17    0.90
   3 -12  -5   23.30    3.69
   3 -12  -5   19.70    2.47
  -3  12   5   21.21    2.65
  -3  12   5   25.87    2.20
   2 -12  -5   27.68    3.86
   2 -12  -5   23.01    2.78
  -2  12   5   21.86    2.64
  -2  12   5   27.05    2.41
   1 -12  -5   -0.09    0.95
  -1  12   5    0.23    0.78
  -1  12   5   -0.23    0.52
   0 -12  -5   61.39    5.27
   0 -12  -5   65.64    5.90
   0  12   5   61.61    4.88
   0  12   5   65.41    4.82
  -1 -12  -5   31.29    2.91
  -1 -12  -5   31.33    3.62
   1  12   5   27.78    2.90
   1  12   5   31.34    2.92
  -2 -12  -5   20.20    2.26
  -2 -12  -5   18.70    2.74
   2  12   5   18.56    3.07
   2  12   5   16.12    2.11
   2  12   5   19.37    2.21
  -3 -12  -5   44.78    3.83
  -3 -12  -5   49.26    4.37
   3  12   5   43.54    3.81
   3  12   5   37.95    4.51
   3  12   5   44.14    3.78
  -4 -12  -5   12.87    2.02
   4  12   5   12.66    2.55
   4  12   5   14.96    2.02
  -5 -12  -5    9.23    1.91
   5  12   5    9.23    1.92
   5  12   5    9.93    1.88
  -6 -12  -5   32.91    3.41
   6  12   5   31.65    3.32
  -7 -12  -5    4.52    1.40
  -8 -12  -5   23.51    3.14
   8  12   5   21.94    2.85
  -9 -12  -5   21.19    3.03
   9  12   5   23.64    2.96
 -10 -12  -5    2.66    1.68
  10  12   5    0.90    1.08
   8 -13  -5    8.02    2.83
  -8  13   5   10.75    2.05
   7 -13  -5    0.24    1.91
  -7  13   5   -0.84    1.04
   6 -13  -5   27.19    4.41
  -6  13   5   23.23    3.03
   5 -13  -5   26.39    4.10
  -5  13   5   23.20    2.99
   4 -13  -5   11.66    3.08
   4 -13  -5    5.30    1.33
  -4  13   5    7.38    1.65
  -4  13   5    9.23    1.27
   3 -13  -5   55.33    5.75
   3 -13  -5   43.16    4.06
  -3  13   5   54.87    3.84
  -3  13   5   49.11    4.44
   2 -13  -5   14.65    3.15
  -2  13   5   17.69    1.92
  -2  13   5   20.97    2.54
   1 -13  -5    2.43    1.57
  -1  13   5    6.27    1.50
  -1  13   5    4.38    1.12
   0 -13  -5   69.22    6.25
   0  13   5   66.72    5.15
   0  13   5   67.51    5.25
  -1 -13  -5    6.10    1.37
  -1 -13  -5    5.80    1.78
   1  13   5    5.66    1.35
   1  13   5    3.58    1.09
  -2 -13  -5   24.61    2.66
  -2 -13  -5   24.66    3.33
   2  13   5   27.76    3.85
   2  13   5   23.38    2.63
   2  13   5   24.41    2.73
  -3 -13  -5   85.66    6.15
  -3 -13  -5   85.85    6.67
   3  13   5   71.70    6.91
   3  13   5   79.16    6.13
   3  13   5   80.34    6.09
  -4 -13  -5   -0.58    0.88
   4  13   5   -0.81    0.69
   4  13   5   -1.82    1.14
   4  13   5    0.12    0.63
  -5 -13  -5   10.17    2.11
   5  13   5   14.40    2.10
  -6 -13  -5   33.84    3.69
  -7 -13  -5    1.29    1.32
   7  13   5   -1.72    0.74
  -8 -13  -5   34.77    4.05
   8  13   5   38.38    3.97
  -9 -13  -5    8.65    1.86
   7 -14  -5    5.88    2.85
  -7  14   5    2.86    1.42
   6 -14  -5   33.78    5.06
  -6  14   5   23.78    3.29
   5 -14  -5   23.59    4.22
  -5  14   5   20.60    2.90
   4 -14  -5    1.45    1.77
  -4  14   5    2.11    1.21
  -3  14   5   24.32    2.76
  -3  14   5   24.68    3.01
   2 -14  -5    3.03    2.03
  -2  14   5    2.77    1.09
  -2  14   5    1.89    0.80
   1 -14  -5   32.02    4.16
  -1  14   5   27.68    2.99
  -1  14   5   24.35    2.53
   0 -14  -5   31.75    4.16
   0  14   5   34.25    3.40
   0  14   5   34.73    3.12
  -1 -14  -5    0.13    1.52
   1  14   5   -0.44    0.83
   1  14   5   -0.32    0.58
  -2 -14  -5   41.41    4.51
   2  14   5   39.00    4.99
   2  14   5   43.53    3.80
  -3 -14  -5   60.18    4.98
  -3 -14  -5   62.93    5.53
   3  14   5   63.80    5.08
   3  14   5   52.51    4.75
   3  14   5   53.41    5.77
  -4 -14  -5    0.93    1.09
   4  14   5    0.28    0.86
   4  14   5   -1.00    1.40
   4  14   5    1.50    1.09
  -5 -14  -5   36.31    3.77
   5  14   5   32.68    4.07
   5  14   5   34.23    3.75
  -6 -14  -5   22.63    3.11
   6  14   5   21.78    2.88
  -7 -14  -5    2.87    1.56
   7  14   5    3.39    1.47
   5 -15  -5    1.90    2.59
  -5  15   5    6.51    1.85
   4 -15  -5   25.44    4.51
  -4  15   5   27.99    3.43
   3 -15  -5   52.57    5.98
  -3  15   5   45.73    4.53
   2 -15  -5    0.12    1.70
  -2  15   5    0.31    0.94
  -1  15   5   29.96    3.20
  -1  15   5   25.19    2.81
   0 -15  -5   16.53    3.32
   0  15   5   20.24    2.58
   0  15   5   19.67    2.26
  -1 -15  -5   -0.23    1.58
   1  15   5    0.10    0.78
   1  15   5   -0.84    1.50
   1  15   5   -0.96    0.75
  -2 -15  -5   60.73    5.66
  -2 -15  -5   65.55    5.20
   2  15   5   52.98    4.78
   2  15   5   47.41    5.81
   2  15   5   52.94    4.61
  -3 -15  -5   35.10    3.47
   3  15   5   31.72    3.42
   3  15   5   29.56    3.28
   3  15   5   27.40    4.28
  -4 -15  -5   -0.35    1.17
   4  15   5   -0.60    0.88
   4  15   5   -0.96    1.00
  -5 -15  -5   31.97    3.66
   5  15   5   30.42    3.48
   5  15   5   28.32    3.60
   2 -16  -5   -1.30    1.83
  -2  16   5   -0.58    1.07
   1 -16  -5   15.63    3.40
  -1  16   5   18.71    2.79
   0 -16  -5   10.45    2.71
   0  16   5   10.93    2.01
  -1 -16  -5   -1.97    1.55
   1  16   5   -0.59    0.66
   1  16   5   -0.30    1.62
   1  16   5   -1.60    0.96
  -2 -16  -5    8.19    3.42
   2  16   5    3.92    3.14
   2  16   5    9.58    1.94
   1  11  -6    3.81    1.36
   1  11  -6    3.79    1.11
   0  11  -6   11.85    2.30
   0 -11   6   11.65    3.27
  -1  11  -6   21.74    3.08
   1 -11   6   24.01    4.21
  -2  11  -6   -1.18    1.03
   2 -11   6   -1.93    1.73
  -3  11  -6    4.50    1.50
  -4  11  -6   10.72    2.24
   4 -11   6    7.25    2.49
  -5  11  -6   -0.03    1.50
   5 -11   6   -0.89    1.59
  -6  11  -6   37.91    4.56
   6 -11   6   38.85    5.58
  -7  11  -6   24.10    4.01
   7 -11   6   28.18    4.92
   3  10  -6    5.17    1.64
   3  10  -6    4.77    1.37
   2  10  -6   27.56    3.29
   1  10  -6    0.39    0.98
   1  10  -6    0.92    0.84
  -1 -10   6    0.45    1.85
   0  10  -6   20.22    2.12
   0  10  -6   22.50    2.99
   0 -10   6   18.87    3.59
  -1  10  -6   13.52    1.52
   1 -10   6   10.25    3.03
  -2  10  -6    2.35    1.23
   2 -10   6    2.69    1.74
  -3  10  -6   26.63    3.54
   3 -10   6   34.18    4.45
  -4  10  -6   24.36    3.36
   4 -10   6   22.95    4.15
  -5  10  -6    3.37    1.73
   5 -10   6    5.77    4.08
  -6  10  -6   11.15    2.61
   6 -10   6    8.40    2.68
  -7  10  -6   -1.17    1.38
   7 -10   6   -2.01    1.76
  -8  10  -6   18.33    3.38
   8 -10   6    8.31    2.71
  -9  10  -6   41.63    4.88
   9 -10   6   33.09    5.53
   5   9  -6   27.75    3.43
   5   9  -6   25.98    2.99
   4   9  -6   -0.38    0.79
   4   9  -6   -0.94    0.91
   3   9  -6   17.26    2.16
   3   9  -6   15.89    2.67
   2   9  -6   11.30    1.62
  -2  -9   6    9.31    2.26
   1   9  -6    6.38    1.26
   1   9  -6    7.63    2.37
  -1  -9   6    2.88    1.83
   0   9  -6   40.51    3.53
   0  -9   6   41.86    4.73
  -1   9  -6    6.56    1.81
  -1   9  -6    7.06    1.15
   1  -9   6    7.63    2.37
  -2   9  -6   21.77    1.89
  -2   9  -6   21.18    2.88
   2  -9   6   21.90    3.62
  -3   9  -6   63.08    5.86
   3  -9   6   67.19    6.53
   4  -9   6    6.16    2.41
   5  -9   6   31.76    4.64
  -6   9  -6   35.09    4.21
   6  -9   6   46.60    5.69
  -7   9  -6    0.77    1.42
   7  -9   6    4.81    2.40
  -8   9  -6   32.05    4.10
   8  -9   6   41.77    5.62
  -9   9  -6   31.77    4.14
   9  -9   6   38.17    5.54
 -10   9  -6    0.61    1.40
  10  -9   6   -1.77    1.64
 -11   9  -6   25.42    3.78
  11  -9   6   15.42    3.87
   6   8  -6   49.46    4.61
   6   8  -6   41.96    4.23
  -6  -8   6   50.37    4.52
   5   8  -6   13.12    2.32
   5   8  -6   14.71    2.22
  -5  -8   6   11.71    2.18
   4   8  -6    2.03    0.96
   3   8  -6   75.42    5.76
   3   8  -6   76.96    6.05
   2   8  -6    5.96    1.36
  -2  -8   6    5.88    1.88
   1   8  -6   15.14    2.33
   1   8  -6   18.68    2.01
  -1  -8   6   16.43    2.92
   0   8  -6   44.16    3.38
   0   8  -6   39.06    3.79
   0  -8   6   43.88    4.65
  -1   8  -6    4.54    1.22
  -1   8  -6    4.89    0.95
   1  -8   6    6.30    1.99
  -2   8  -6   41.42    3.12
  -2   8  -6   41.63    3.93
   2  -8   6   48.28    4.95
  -3   8  -6   62.52    4.68
  -3   8  -6   55.85    4.97
   3  -8   6   58.57    6.14
  -4   8  -6    1.41    1.14
   4  -8   6    1.84    1.71
  -5   8  -6   65.03    5.73
   5  -8   6   72.62    6.88
  -6   8  -6   24.08    3.30
   6  -8   6   34.37    4.59
  -7   8  -6   -0.78    0.93
   7  -8   6    1.22    1.68
  -8   8  -6   20.94    3.69
  -9   8  -6   39.29    4.55
   9  -8   6   41.87    5.53
 -10   8  -6    4.50    1.70
  10  -8   6    7.08    2.78
 -11   8  -6   23.21    3.38
  11  -8   6   13.69    3.62
 -12   8  -6    8.55    2.32
  12  -8   6    6.89    2.71
   7   7  -6    4.39    1.53
   7   7  -6    7.06    1.80
  -7  -7   6    6.20    1.60
   6   7  -6   45.74    4.13
   6   7  -6   44.04    5.31
  -6  -7   6   40.20    4.28
   5   7  -6   25.50    2.88
   5   7  -6   27.31    3.11
  -5  -7   6   25.21    2.84
   4   7  -6   19.08    2.55
   4   7  -6   18.82    2.26
  -4  -7   6   18.28    2.37
   3   7  -6   58.92    4.50
   3   7  -6   56.34    4.65
  -3  -7   6   51.32    4.60
   2   7  -6   14.47    1.97
   2   7  -6   14.58    1.78
  -2  -7   6   11.14    2.24
   1   7  -6   23.52    2.58
  -1  -7   6   23.13    3.14
   0   7  -6   30.66    2.50
   0   7  -6   29.02    2.91
   0  -7   6   26.49    3.57
  -1   7  -6    0.76    0.76
  -1   7  -6   -0.59    0.35
   1  -7   6   -0.23    1.15
  -2   7  -6   66.76    4.66
  -2   7  -6   67.49    5.42
   2  -7   6   78.97    7.30
  -3   7  -6   34.98    2.57
  -3   7  -6   31.90    3.35
   3  -7   6   35.75    4.32
  -4   7  -6    6.98    1.61
  -4   7  -6    6.26    0.72
   4  -7   6    6.06    2.11
  -5   7  -6   82.27    6.61
   5  -7   6   91.99    7.89
  -6   7  -6   27.75    3.43
   6  -7   6   31.26    4.30
  -7   7  -6    5.50    1.66
   7  -7   6   10.64    2.75
  -8   7  -6   34.66    3.91
   8  -7   6   40.65    4.95
 -10   7  -6    5.97    1.94
  10  -7   6   11.25    3.23
 -11   7  -6   29.20    3.73
  11  -7   6   30.35    4.96
 -12   7  -6   -1.10    1.14
 -13   7  -6   12.32    2.66
  13  -7   6   16.45    3.89
   8   6  -6    2.48    1.38
   8   6  -6    6.59    1.69
  -8  -6   6    5.34    1.55
   7   6  -6   17.02    2.47
   7   6  -6   19.87    2.71
  -7  -6   6   25.76    2.95
   6   6  -6   24.23    3.17
   6   6  -6   27.29    2.98
  -6  -6   6   31.78    3.11
   5   6  -6   18.50    2.31
   5   6  -6   21.20    2.45
  -5  -6   6   18.42    2.37
   4   6  -6   40.03    3.54
   4   6  -6   36.60    3.37
  -4  -6   6   40.56    3.45
  -4  -6   6   30.65    3.97
   3   6  -6   65.12    5.10
   3   6  -6   70.35    5.28
  -3  -6   6   64.62    5.35
  -3  -6   6   74.22    5.29
   2   6  -6   -0.45    0.65
   2   6  -6    0.37    0.60
   1   6  -6   23.83    2.63
   1   6  -6   27.31    2.40
  -1  -6   6   28.69    3.28
   0   6  -6   31.41    2.59
   0   6  -6   31.84    3.02
   0  -6   6   31.98    3.62
  -1   6  -6   16.14    2.15
  -1   6  -6   19.01    1.72
   1  -6   6   18.98    2.80
  -2   6  -6   76.97    5.94
  -2   6  -6   80.89    5.34
   2  -6   6   85.81    6.95
  -3   6  -6   81.22    5.19
  -3   6  -6   72.58    5.91
   3  -6   6   86.07    9.23
  -4   6  -6   23.27    1.82
  -4   6  -6   24.55    2.75
   4  -6   6   23.00    1.71
   4  -6   6   31.12    3.81
  -5   6  -6   90.72    6.96
   5  -6   6   98.25    8.17
  -6   6  -6   10.46    2.00
  -7   6  -6   19.90    2.76
   7  -6   6   25.35    3.88
  -8   6  -6   42.80    4.19
  -9   6  -6    1.19    1.19
   9  -6   6    0.68    1.50
 -10   6  -6   25.06    3.35
  10  -6   6   30.50    4.48
 -11   6  -6   33.50    4.05
  11  -6   6   40.93    5.47
 -12   6  -6    0.52    1.19
  12  -6   6   -0.97    1.69
 -13   6  -6   17.32    3.08
  13  -6   6   11.23    3.55
   9   5  -6   32.23    3.65
  -9  -5   6   39.77    3.90
   8   5  -6   -0.39    1.00
   8   5  -6   -0.83    0.72
  -8  -5   6   -1.13    0.97
   7   5  -6   23.17    2.73
   7   5  -6   18.88    2.51
  -7  -5   6   24.88    2.76
   6   5  -6   34.11    3.44
   6   5  -6   39.80    3.60
  -6  -5   6   38.35    3.52
   5   5  -6    4.55    1.21
   5   5  -6    4.49    1.27
  -5  -5   6    4.29    1.21
   4   5  -6   45.43    3.71
   4   5  -6   41.91    3.69
  -4  -5   6   44.42    3.69
   3   5  -6   30.78    2.76
   3   5  -6   25.09    2.54
  -3  -5   6   31.35    2.77
  -3  -5   6   24.27    2.82
   2   5  -6   18.39    1.97
  -2  -5   6   15.79    2.40
   1   5  -6   88.04    5.86
   1   5  -6   80.74    5.96
  -1  -5   6   86.20    6.66
   0   5  -6    8.14    1.06
   0   5  -6    4.61    1.07
   0  -5   6    6.55    1.80
  -1   5  -6   33.67    3.04
  -1   5  -6   37.00    2.75
   1  -5   6   36.53    3.85
  -2   5  -6   68.69    4.65
  -2   5  -6   71.22    5.22
   2  -5   6   68.72    6.01
  -3   5  -6    3.24    0.68
  -3   5  -6    0.84    0.84
   3  -5   6    2.49    1.37
  -4   5  -6  111.62    7.34
   4  -5   6  127.25    9.28
  -5   5  -6  110.26    7.13
  -5   5  -6  115.09    8.18
   5  -5   6  129.29    9.42
  -6   5  -6    0.23    0.85
   6  -5   6    1.00    1.39
  -7   5  -6  148.40   10.93
   7  -5   6  177.10   12.45
  -8   5  -6   33.03    3.80
   8  -5   6   42.02    4.82
  -9   5  -6    1.34    1.14
   9  -5   6    4.40    2.15
 -10   5  -6   48.73    4.66
  10  -5   6   50.91    5.81
 -11   5  -6   42.48    6.02
  11  -5   6   53.56    6.17
 -12   5  -6    6.96    2.06
  12  -5   6    3.18    2.01
 -13   5  -6   28.37    3.94
  13  -5   6   29.56    4.93
 -14   5  -6    4.09    1.76
  14  -5   6    4.01    2.47
  10   4  -6   31.94    3.61
 -10  -4   6   32.97    3.68
   9   4  -6   24.57    3.00
  -9  -4   6   26.31    3.08
   8   4  -6    4.06    1.32
  -8  -4   6    4.98    1.43
   7   4  -6   40.88    3.91
  -7  -4   6   43.57    3.78
   6   4  -6   38.51    3.35
   6   4  -6   34.91    3.32
  -6  -4   6   31.46    3.06
  -6  -4   6   39.47    3.39
   5   4  -6    0.01    0.58
   5   4  -6    0.93    0.82
  -5  -4   6   -0.05    0.85
  -5  -4   6   -0.27    0.70
   4   4  -6   80.33    5.75
   4   4  -6   73.97    5.78
  -4  -4   6   88.08    5.82
   3   4  -6   22.24    2.23
   3   4  -6   21.29    2.16
  -3  -4   6   23.05    2.21
  -3  -4   6   18.37    2.46
   2   4  -6   38.43    3.20
   2   4  -6   42.56    3.26
  -2  -4   6   37.02    3.73
  -2  -4   6   42.43    3.30
   1   4  -6  159.60    9.77
   1   4  -6  147.42    9.78
  -1  -4   6  148.90   10.53
   0   4  -6   24.01    2.14
   0   4  -6   20.83    1.88
   0  -4   6   18.72    2.63
  -1   4  -6   34.02    2.88
  -1   4  -6   33.91    2.58
   1  -4   6   34.05    3.64
  -2   4  -6  127.43    7.75
  -2   4  -6  114.64    8.09
   2  -4   6  123.95    9.11
  -3   4  -6   -0.15    0.56
  -3   4  -6    0.21    0.35
   3  -4   6    0.13    0.90
  -4   4  -6  157.71   10.60
  -4   4  -6  158.56   10.00
   4  -4   6  171.78   11.80
  -5   4  -6  174.41   11.73
   5  -4   6  176.25   10.83
   5  -4   6  189.96   12.92
  -6   4  -6    4.15    2.05
  -6   4  -6    2.32    0.47
   6  -4   6    4.39    2.63
   6  -4   6    2.14    0.38
  -7   4  -6   87.54    6.89
   7  -4   6  104.24    8.12
   7  -4   6   91.44    5.66
  -8   4  -6   38.07    3.66
   8  -4   6   42.22    4.80
   8  -4   6   32.99    2.27
  -9   4  -6    2.75    1.50
   9  -4   6    1.46    0.60
   9  -4   6    1.97    0.36
   9  -4   6    2.37    1.65
 -10   4  -6   38.17    4.03
  10  -4   6   45.93    5.23
  10  -4   6   39.56    2.66
 -11   4  -6   10.73    2.23
  11  -4   6   10.82    1.08
  11  -4   6   12.34    3.14
 -12   4  -6    5.68    2.09
  12  -4   6    4.40    2.14
 -13   4  -6   32.08    4.00
  13  -4   6   36.02    5.14
 -14   4  -6   -1.25    1.06
  14  -4   6    0.21    1.63
  10   3  -6   46.28    4.53
 -10  -3   6   52.77    4.50
   9   3  -6   10.09    1.97
  -9  -3   6    6.93    1.51
   8   3  -6   13.05    2.06
  -8  -3   6   13.78    2.15
   7   3  -6   57.40    4.74
  -7  -3   6   53.32    4.72
  -7  -3   6   62.34    4.58
   6   3  -6   20.71    2.31
  -6  -3   6   15.21    2.53
  -6  -3   6   22.55    2.46
   5   3  -6    8.48    1.54
  -5  -3   6    9.86    1.52
  -5  -3   6    9.35    2.80
   4   3  -6   72.24    4.74
   4   3  -6   56.12    4.69
  -4  -3   6   65.84    6.14
  -4  -3   6   64.86    4.65
   3   3  -6    7.70    1.21
   3   3  -6    6.76    1.15
  -3  -3   6    7.13    1.76
  -3  -3   6    8.45    1.29
   2   3  -6   34.50    2.96
   2   3  -6   35.02    2.91
  -2  -3   6   41.86    3.03
  -2  -3   6   39.33    3.62
   1   3  -6   19.82    1.91
   1   3  -6   21.94    1.94
  -1  -3   6   20.64    2.61
   0   3  -6    5.10    0.82
   0   3  -6    4.11    0.86
   0  -3   6    4.53    1.49
  -1   3  -6  194.20   11.46
  -1   3  -6  183.11   11.62
   1  -3   6  174.94   12.53
  -2   3  -6  106.97    6.61
  -2   3  -6   94.66    6.63
   2  -3   6   93.96    7.56
  -3   3  -6    0.68    0.41
  -3   3  -6    0.81    0.58
   3  -3   6    0.60    0.86
  -4   3  -6  135.77    9.67
  -4   3  -6  157.13    9.31
   4  -3   6  153.59   10.84
  -5   3  -6   66.61    5.14
  -5   3  -6   74.53    4.65
   5  -3   6   70.04    6.10
   5  -3   6   66.69    4.46
  -6   3  -6    4.18    1.26
  -6   3  -6    5.75    0.87
   6  -3   6    6.47    1.93
   6  -3   6    6.55    0.74
   7  -3   6   88.03    5.45
   7  -3   6   85.70    5.64
  -8   3  -6   16.20    2.35
   8  -3   6   16.37    1.33
   8  -3   6   15.10    3.08
  -9   3  -6   41.67    4.15
   9  -3   6   42.81    4.89
   9  -3   6   45.15    3.01
 -10   3  -6   93.69    7.49
  10  -3   6  105.11    8.69
 -11   3  -6    2.75    1.26
  11  -3   6    3.52    1.84
  11  -3   6    3.02    0.74
 -12   3  -6   17.78    2.82
  12  -3   6   17.89    3.61
  12  -3   6   17.47    1.69
 -13   3  -6   21.50    3.29
 -14   3  -6   -1.39    1.02
  14  -3   6   -2.26    1.41
 -15   3  -6   43.29    4.93
  15  -3   6   28.63    5.17
  11   2  -6    7.39    1.90
 -11  -2   6    5.20    1.54
  10   2  -6   14.42    2.31
 -10  -2   6   14.58    2.27
   9   2  -6    2.53    1.18
  -9  -2   6    0.15    0.99
   8   2  -6   21.88    2.48
  -8  -2   6   22.73    2.57
   7   2  -6   92.36    6.95
  -7  -2   6  100.56    6.76
   6   2  -6    0.15    0.47
  -6  -2   6   -0.86    0.66
   5   2  -6   69.59    5.34
  -5  -2   6   71.22    5.76
  -5  -2   6   78.14    5.17
   4   2  -6  106.30    6.65
   4   2  -6   96.54    7.14
  -4  -2   6   96.86    7.23
  -4  -2   6  100.61    6.62
   3   2  -6    5.63    0.96
   3   2  -6    6.80    1.11
  -3  -2   6    6.89    1.08
  -3  -2   6    5.72    1.51
   2   2  -6   39.44    2.96
   2   2  -6   39.80    3.10
  -2  -2   6   36.83    3.60
  -2  -2   6   42.50    3.02
   1   2  -6   27.60    2.19
   1   2  -6   28.39    2.28
  -1  -2   6   24.42    2.86
   0   2  -6   31.68    2.46
   0   2  -6   31.68    2.48
   0  -2   6   31.06    3.27
  -1   2  -6  246.45   15.96
  -1   2  -6  269.02   15.92
   1  -2   6  268.62   17.10
  -2   2  -6   24.16    2.20
   2  -2   6   26.90    3.06
  -3   2  -6   85.42    6.16
  -3   2  -6  100.26    6.03
   3  -2   6   89.58    7.19
  -4   2  -6  202.71   13.17
  -4   2  -6  228.21   12.93
   4  -2   6  194.34   14.13
  -5   2  -6   16.74    2.14
  -5   2  -6   21.29    1.77
   5  -2   6   19.63    2.76
  -6   2  -6   33.23    2.51
  -6   2  -6   28.43    2.88
   6  -2   6   32.25    3.66
  -7   2  -6  174.41   10.86
  -7   2  -6  170.95   11.45
   7  -2   6  172.55   10.61
   7  -2   6  175.20   12.41
  -8   2  -6   20.83    2.78
   8  -2   6   17.38    2.03
   8  -2   6   28.72    6.04
  -9   2  -6   40.75    4.17
   9  -2   6   49.48    3.34
   9  -2   6   50.78    5.17
 -10   2  -6   24.02    3.05
  10  -2   6   27.59    2.15
  10  -2   6   22.04    3.69
 -11   2  -6    0.18    0.93
  11  -2   6    1.86    0.61
  11  -2   6    0.35    1.68
 -12   2  -6   28.24    3.52
  12  -2   6   29.06    4.24
  12  -2   6   28.70    2.46
 -13   2  -6   20.84    3.20
  13  -2   6   20.61    2.04
  13  -2   6   14.71    3.35
 -14   2  -6   -0.79    1.27
  14  -2   6   -0.76    3.11
  14  -2   6    0.22    0.77
  15  -2   6   16.81    3.68
  11   1  -6   30.78    3.39
 -11  -1   6   26.87    3.15
  10   1  -6   37.30    3.64
 -10  -1   6   33.30    3.44
   9   1  -6    4.13    1.25
  -9  -1   6    1.99    1.74
  -9  -1   6    0.20    0.91
   8   1  -6   53.10    4.42
  -8  -1   6   50.26    4.75
  -8  -1   6   52.80    4.17
   7   1  -6   56.82    4.63
  -7  -1   6   58.41    4.40
  -7  -1   6   61.65    5.05
   6   1  -6    5.19    1.23
  -6  -1   6    3.75    1.42
  -6  -1   6    2.97    0.87
   5   1  -6  112.12    7.89
  -5  -1   6  123.27    8.43
  -5  -1   6  117.33    7.59
   4   1  -6   23.40    2.13
  -4  -1   6   20.71    1.84
  -4  -1   6   17.81    2.36
   3   1  -6    0.94    0.59
   3   1  -6    1.44    0.48
  -3  -1   6    0.37    0.44
  -3  -1   6    0.39    0.77
   2   1  -6   67.29    4.80
   2   1  -6   76.12    4.89
  -2  -1   6   65.28    5.38
   1   1  -6   68.50    4.41
   1   1  -6   68.04    4.58
  -1  -1   6   61.92    5.20
   0   1  -6   26.97    2.11
   0   1  -6   28.13    2.21
   0  -1   6   25.92    2.88
  -1   1  -6  174.10   11.29
  -1   1  -6  193.88   11.33
   1  -1   6  179.19   12.33
  -2   1  -6   15.52    1.57
  -2   1  -6   18.91    1.60
   2  -1   6   17.24    2.40
  -3   1  -6  159.06   10.72
  -3   1  -6  177.69   10.66
   3  -1   6  177.02   11.91
  -4   1  -6   62.94    4.42
  -4   1  -6   63.41    4.21
   4  -1   6   53.06    5.11
  -5   1  -6   -0.37    0.59
  -5   1  -6    1.11    0.53
   5  -1   6    0.09    0.86
  -6   1  -6  110.97    6.91
  -6   1  -6   98.66    7.12
   6  -1   6  100.87    7.98
  -7   1  -6  163.20   11.98
  -7   1  -6  178.88   12.13
   7  -1   6  197.24   13.15
   7  -1   6  207.51   11.75
  -8   1  -6    3.18    1.16
   8  -1   6    2.49    1.43
   8  -1   6    2.92    0.64
  -9   1  -6  138.15    9.61
   9  -1   6  154.54   12.43
   9  -1   6  130.43    8.74
 -10   1  -6   13.88    2.33
  10  -1   6   15.16    3.09
  10  -1   6   13.09    1.47
 -11   1  -6    7.60    1.83
  11  -1   6    5.37    2.19
  11  -1   6    7.02    1.16
 -12   1  -6   40.43    4.30
  12  -1   6   44.02    3.36
  12  -1   6   37.51    4.82
 -13   1  -6   13.55    2.65
  13  -1   6   15.94    3.38
  13  -1   6   20.06    2.05
 -14   1  -6   13.20    2.71
  14  -1   6    9.01    1.55
  14  -1   6    6.09    2.23
 -15   1  -6   34.29    4.20
  15  -1   6   26.73    2.80
  11   0  -6   25.85    3.02
 -11   0   6   23.54    3.01
  10   0  -6   26.02    2.82
 -10   0   6   16.78    3.94
 -10   0   6   19.75    2.54
   9   0  -6    5.52    1.42
  -9   0   6    3.76    1.12
  -9   0   6    2.25    1.86
   8   0  -6   54.74    4.63
  -8   0   6   55.09    4.37
  -8   0   6   66.68    5.51
   7   0  -6   14.27    1.88
  -7   0   6   15.01    1.72
  -7   0   6   13.14    2.38
   6   0  -6   29.70    2.74
  -6   0   6   29.00    3.27
  -6   0   6   27.73    2.38
   5   0  -6  117.01    8.33
  -5   0   6  126.43    8.73
  -5   0   6  119.04    7.67
   4   0  -6    3.28    0.87
  -4   0   6    3.26    0.67
  -4   0   6    1.31    0.97
   3   0  -6   11.80    1.36
   3   0  -6   13.32    1.18
  -3   0   6   12.11    1.17
  -3   0   6   12.13    1.84
   2   0  -6  168.39   10.65
   2   0  -6  174.95   10.31
  -2   0   6  162.95   11.25
   1   0  -6    4.40    0.83
   1   0  -6    3.11    0.67
   1   0  -6    4.46    0.65
  -1   0   6    6.01    1.48
   0   0  -6  117.97    7.43
   0   0  -6  123.70    7.65
   0   0   6  116.99    8.40
  -1   0  -6  181.38   11.50
  -1   0  -6  196.69   11.66
   1   0   6  186.55   12.59
  -2   0  -6   34.14    2.44
  -2   0  -6   28.21    2.32
   2   0   6   27.44    3.12
  -3   0  -6  369.02   21.43
   3   0   6  337.23   22.48
  -4   0  -6  145.88    9.14
  -4   0  -6  141.37    9.18
   4   0   6  143.20   10.23
  -5   0  -6    0.39    0.53
  -5   0  -6    0.51    0.60
   5   0   6    0.82    0.89
  -6   0  -6  147.01   10.37
  -6   0  -6  185.59   10.42
   6   0   6  148.59   11.25
  -7   0  -6   70.17    5.08
  -7   0  -6   54.77    4.69
   7   0   6   70.86    4.53
   7   0   6   72.24    5.88
  -8   0  -6    1.04    0.87
   8   0   6    0.37    0.42
   8   0   6    0.80    1.02
  -9   0  -6  156.09   10.61
   9   0   6  155.85    9.92
   9   0   6  157.30   11.35
 -10   0  -6    9.94    1.94
  10   0   6    9.99    1.30
 -11   0  -6    8.16    1.90
  11   0   6    6.96    1.22
  11   0   6    6.16    2.01
 -12   0  -6   47.40    4.59
  12   0   6   50.58    5.27
  12   0   6   45.63    3.76
 -13   0  -6    2.92    2.27
  13   0   6    4.05    1.12
  13   0   6    3.16    1.98
 -14   0  -6    9.08    2.36
  14   0   6    7.83    2.30
  14   0   6   11.12    1.69
 -15   0  -6   32.62    4.10
  15   0   6   17.83    3.67
  15   0   6   27.34    2.76
  12  -1  -6   -0.56    1.01
  11  -1  -6   28.88    3.12
 -11   1   6   22.04    2.93
 -10   1   6   10.12    2.97
 -10   1   6    8.64    2.30
   9  -1  -6   22.91    2.52
  -9   1   6   17.99    2.19
  -9   1   6   19.29    3.52
   8  -1  -6   57.16    4.67
  -8   1   6   55.70    4.33
  -8   1   6   67.50    5.91
   7  -1  -6   80.29    5.79
  -7   1   6   77.46    5.37
  -7   1   6   78.92    6.73
   6  -1  -6   32.67    2.82
  -6   1   6   28.87    2.43
  -6   1   6   34.93    3.69
   5  -1  -6   86.11    5.81
  -5   1   6   78.79    5.30
  -5   1   6   82.33    6.53
   4  -1  -6    7.43    1.12
  -4   1   6    5.26    1.54
  -4   1   6    7.60    0.85
   3  -1  -6   42.83    3.29
   3  -1  -6   47.61    2.88
   3  -1  -6   37.33    2.83
  -3   1   6   45.26    2.88
  -3   1   6   45.69    3.96
   2  -1  -6  101.86    6.27
   2  -1  -6  103.50    6.72
   2  -1  -6  109.88    6.61
  -2   1   6   93.21    7.28
   1  -1  -6    1.32    0.53
   1  -1  -6    0.87    0.27
  -1   1   6    1.63    0.81
   0  -1  -6  274.59   16.54
   0  -1  -6  290.34   16.89
   0   1   6  264.96   17.58
  -1  -1  -6  167.03   10.04
  -1  -1  -6  152.79    9.77
   1   1   6  149.46   10.73
   1   1   6  169.90    9.80
  -2  -1  -6   48.77    3.18
   2   1   6   39.90    3.94
  -3  -1  -6  257.62   15.61
  -3  -1  -6  280.83   16.09
   3   1   6  229.13   16.54
  -4  -1  -6   47.77    3.43
   4   1   6   44.70    4.22
  -5  -1  -6    1.59    0.63
  -5  -1  -6    1.00    0.60
   5   1   6    1.50    0.96
  -6  -1  -6  161.58   11.81
  -6  -1  -6  208.41   12.04
   6   1   6  193.75   12.88
  -7  -1  -6   11.85    1.68
  -7  -1  -6   10.31    1.51
   7   1   6   10.56    1.19
   7   1   6   10.76    2.22
  -8  -1  -6   54.68    4.47
   8   1   6   57.70    5.05
   8   1   6   51.61    3.88
  -9  -1  -6   53.14    4.47
   9   1   6   53.25    4.96
   9   1   6   51.39    3.89
 -10  -1  -6    4.65    1.36
  10   1   6    4.06    1.76
  10   1   6    2.97    0.88
 -11  -1  -6   21.20    2.78
 -12  -1  -6   28.95    3.46
  12   1   6   30.82    2.93
  12   1   6   34.96    4.07
  13   1   6    0.95    1.51
  13   1   6    0.97    0.74
 -14  -1  -6   25.53    3.71
  14   1   6   26.95    2.77
  14   1   6   19.46    3.57
 -15  -1  -6    2.30    1.43
  15   1   6   -1.93    1.53
  12  -2  -6   10.80    2.17
  11  -2  -6   27.57    2.95
 -11   2   6   21.27    4.41
 -11   2   6   21.85    2.73
 -10   2   6    3.77    1.15
 -10   2   6    4.33    2.47
   9  -2  -6   30.05    2.87
  -9   2   6   23.80    2.52
  -9   2   6   25.57    4.10
   8  -2  -6   62.56    4.74
  -8   2   6   69.41    6.27
  -8   2   6   51.91    4.25
   7  -2  -6    0.07    1.05
   7  -2  -6    0.75    0.54
  -7   2   6    0.89    0.52
  -7   2   6    0.25    1.48
   6  -2  -6   91.21    6.39
   6  -2  -6   90.99    6.96
  -6   2   6  100.17    7.62
  -6   2   6   87.03    5.89
   5  -2  -6   79.83    5.52
  -5   2   6   85.43    6.61
  -5   2   6   72.72    4.96
   4  -2  -6   12.68    1.40
  -4   2   6    8.33    1.81
  -4   2   6    9.75    0.89
   3  -2  -6  170.03   10.92
   3  -2  -6  186.39   11.53
  -3   2   6  186.50   12.42
  -3   2   6  191.18   10.94
   2  -2  -6   20.40    1.78
   2  -2  -6   17.54    1.21
  -2   2   6   21.06    2.45
   1  -2  -6   27.19    1.75
  -1   2   6   30.77    2.95
   0  -2  -6  390.44   23.91
   0  -2  -6  404.39   23.87
   0  -2  -6  401.76   24.39
   0   2   6  362.97   25.02
   0   2   6  460.34   23.94
  -1  -2  -6   39.19    2.66
  -1  -2  -6   44.67    3.07
   1   2   6   36.02    3.48
  -2  -2  -6  102.54    6.46
  -2  -2  -6   98.47    6.13
   2   2   6   93.16    7.04
   2   2   6   94.48    6.15
  -3  -2  -6  457.44   26.89
  -3  -2  -6  455.70   26.59
   3   2   6  418.13   27.52
  -4  -2  -6  226.46   13.68
  -4  -2  -6  235.19   13.75
   4   2   6  192.86   14.28
  -5  -2  -6   84.43    5.47
  -5  -2  -6   70.45    5.47
   5   2   6   83.37    6.33
  -6  -2  -6   82.47    5.73
  -6  -2  -6   81.49    5.78
   6   2   6   79.40    5.39
   6   2   6   82.44    6.45
  -7  -2  -6    0.68    0.69
  -7  -2  -6    0.54    0.64
   7   2   6    1.06    0.48
   7   2   6    0.46    0.87
  -8  -2  -6  131.93    9.15
   8   2   6  144.24    9.86
   8   2   6  131.21    8.74
  -9  -2  -6  160.47   11.24
   9   2   6  173.65   10.85
   9   2   6  172.02   11.86
 -10  -2  -6   10.40    2.00
  10   2   6   12.07    1.55
  10   2   6    9.21    2.13
 -11  -2  -6   28.50    3.22
  11   2   6   25.32    2.54
  11   2   6   25.47    3.46
 -12  -2  -6   17.01    2.72
  12   2   6   22.96    2.41
  12   2   6   22.37    5.44
  13   2   6    2.70    1.75
  13   2   6    4.86    1.20
 -14  -2  -6   34.81    4.25
  14   2   6   37.34    3.55
 -15  -2  -6    2.81    1.77
  15   2   6    3.29    1.98
  15   2   6    4.95    1.55
  12  -3  -6    8.81    1.97
 -12   3   6    9.40    3.45
  11  -3  -6   42.16    5.06
  11  -3  -6   56.42    4.57
 -11   3   6   56.91    6.96
  10  -3  -6   -0.27    0.60
  10  -3  -6    0.00    1.47
 -10   3   6   -1.68    1.91
 -10   3   6   -1.38    0.73
   9  -3  -6   27.79    2.75
   9  -3  -6   25.46    3.54
  -9   3   6   25.90    4.46
  -9   3   6   23.01    2.41
   8  -3  -6   92.96    7.38
   8  -3  -6   91.43    6.50
  -8   3   6   76.29    5.97
  -8   3   6  111.45    8.55
   7  -3  -6    0.31    1.18
   7  -3  -6    1.01    0.75
  -7   3   6   -0.53    1.19
   6  -3  -6   95.86    7.22
  -6   3   6   85.48    5.88
  -6   3   6  101.48    7.93
   5  -3  -6   76.37    5.30
   5  -3  -6   74.29    5.96
  -5   3   6   67.87    4.69
  -5   3   6   87.84    6.69
   4  -3  -6   10.19    0.80
   4  -3  -6   10.25    1.31
   4  -3  -6    9.22    1.96
  -4   3   6   12.69    2.13
  -4   3   6    8.87    0.77
   3  -3  -6  151.99    9.70
   3  -3  -6  147.80   10.30
  -3   3   6  157.06   10.77
   2  -3  -6  164.98   11.10
   2  -3  -6  167.50   10.53
  -2   3   6  169.15   11.48
   1  -3  -6    3.91    0.82
  -1   3   6    4.70    1.28
   0  -3  -6  159.32   10.47
   0   3   6  181.98    9.91
   0   3   6  155.86   11.19
  -1  -3  -6    6.16    0.67
  -1  -3  -6    7.21    1.01
   1   3   6    9.03    0.84
   1   3   6    8.11    1.46
  -2  -3  -6  173.54   11.20
  -2  -3  -6  172.73   10.77
   2   3   6  195.56   10.91
   2   3   6  166.63   11.71
  -3  -3  -6  146.05    9.04
  -3  -3  -6  147.45    9.42
   3   3   6  142.44    9.91
  -4  -3  -6   42.18    3.30
  -4  -3  -6   38.96    3.00
   4   3   6   40.42    3.74
  -5  -3  -6  129.45    8.37
  -5  -3  -6  133.70    8.62
   5   3   6  124.25    9.08
  -6  -3  -6  127.28    8.35
  -6  -3  -6  129.23    8.52
   6   3   6  122.36    8.08
   6   3   6  126.79    9.01
  -7  -3  -6    9.97    1.60
  -7  -3  -6    8.45    1.47
   7   3   6    8.47    1.89
   7   3   6    9.01    1.18
  -8  -3  -6    5.98    1.38
   8   3   6    5.47    1.04
   8   3   6    6.51    1.65
  -9  -3  -6    0.96    0.80
   9   3   6    0.83    0.62
   9   3   6   -0.01    0.91
 -10  -3  -6   30.84    3.37
  10   3   6   27.44    2.74
  10   3   6   34.17    3.58
 -11  -3  -6  126.80    9.60
  11   3   6  133.71    9.74
  11   3   6  141.61    9.17
 -12  -3  -6   22.88    2.98
  12   3   6   19.51    2.90
  12   3   6   18.55    2.30
 -13  -3  -6    6.99    1.90
  13   3   6    7.56    2.02
 -14  -3  -6    6.86    1.94
  14   3   6    5.53    2.02
 -15  -3  -6   -1.24    1.08
  15   3   6   -0.85    0.82
  12  -4  -6    4.96    2.69
  12  -4  -6    8.63    1.73
 -12   4   6   12.23    4.44
  11  -4  -6   19.06    2.37
  11  -4  -6   18.88    3.40
 -11   4   6   18.66    4.36
 -11   4   6   12.02    2.73
  10  -4  -6    0.86    0.76
  10  -4  -6   -2.29    1.53
 -10   4   6   -0.65    0.73
 -10   4   6   -1.93    2.13
   9  -4  -6   44.37    3.75
   9  -4  -6   46.89    4.90
  -9   4   6   57.96    6.21
  -9   4   6   35.02    3.34
   8  -4  -6   26.01    3.67
   8  -4  -6   28.73    2.67
  -8   4   6   23.55    2.28
   7  -4  -6    2.41    0.88
   7  -4  -6   -1.09    1.16
  -7   4   6    0.20    0.44
  -7   4   6   -0.65    1.49
   6  -4  -6   41.02    3.15
   6  -4  -6   41.79    4.19
   6  -4  -6   40.07    3.27
  -6   4   6   34.40    2.75
  -6   4   6   48.63    4.99
   5  -4  -6   22.54    2.87
   5  -4  -6   26.81    2.25
  -5   4   6   24.25    3.28
  -5   4   6   19.75    1.59
   4  -4  -6   41.48    2.67
   4  -4  -6   47.28    3.42
   4  -4  -6   38.97    3.98
  -4   4   6   51.08    4.72
   3  -4  -6   88.07    6.93
   3  -4  -6   98.09    6.32
  -3   4   6   94.92    7.43
   2  -4  -6    6.09    1.05
   2  -4  -6    4.58    1.26
  -2   4   6    3.51    1.24
   1  -4  -6   61.47    5.03
   1  -4  -6   70.85    4.65
  -1   4   6   64.86    5.42
   0  -4  -6  265.67   15.58
   0  -4  -6  227.47   14.86
   0   4   6  274.62   14.96
   0   4   6  238.34   16.29
  -1  -4  -6   28.44    1.94
  -1  -4  -6   27.50    2.43
   1   4   6   28.67    2.94
  -2  -4  -6  170.61   10.55
  -2  -4  -6  163.77   11.04
   2   4   6  180.29   10.65
   2   4   6  180.29   11.66
  -3  -4  -6  273.68   16.92
  -3  -4  -6  272.00   16.43
   3   4   6  269.46   17.33
  -4  -4  -6   35.23    3.08
  -4  -4  -6   39.08    2.79
   4   4   6   34.13    3.34
  -5  -4  -6  196.14   12.83
  -5  -4  -6  204.64   12.57
   5   4   6  201.18   13.26
  -6  -4  -6   66.23    4.98
  -6  -4  -6   68.37    4.81
   6   4   6   61.56    5.18
   6   4   6   64.63    4.56
  -7  -4  -6   18.44    2.23
  -7  -4  -6   19.47    2.12
   7   4   6   16.08    1.74
   7   4   6   18.04    2.35
  -8  -4  -6  166.60   11.30
   8   4   6  171.41   11.65
   8   4   6  175.45   11.02
  -9  -4  -6    4.12    1.29
   9   4   6    4.48    1.33
   9   4   6    4.42    1.08
 -10  -4  -6   22.81    2.97
  10   4   6   25.13    2.50
  10   4   6   24.35    2.87
 -11  -4  -6   67.85    5.89
  11   4   6   72.24    5.40
  11   4   6   69.02    5.67
 -12  -4  -6    0.58    0.88
  12   4   6   -1.91    0.91
  12   4   6    0.33    0.74
 -13  -4  -6   23.87    3.21
  13   4   6   23.80    2.66
  13   4   6   14.75    2.69
 -14  -4  -6   24.30    3.68
  14   4   6   25.84    3.06
 -15  -4  -6    1.13    1.45
  15   4   6   -0.46    1.03
  12  -5  -6   33.70    3.38
  12  -5  -6   34.86    7.55
  11  -5  -6    5.68    2.44
 -11   5   6    4.09    3.38
  10  -5  -6    2.82    1.11
  10  -5  -6    2.29    1.99
 -10   5   6    4.05    2.88
   9  -5  -6   33.78    4.25
   9  -5  -6   31.79    2.98
  -9   5   6   28.36    2.70
   8  -5  -6    1.61    0.85
   8  -5  -6    1.55    1.47
  -8   5   6    1.07    0.68
   7  -5  -6   73.21    6.22
   7  -5  -6   70.51    4.97
  -7   5   6   58.75    4.44
   6  -5  -6  153.31    9.70
   6  -5  -6  159.99   10.95
  -6   5   6  135.26    9.12
   5  -5  -6   -0.15    0.45
   5  -5  -6   -0.17    0.78
  -5   5   6    0.29    0.28
   4  -5  -6   38.82    3.11
   4  -5  -6   40.63    4.01
  -4   5   6   32.94    2.49
  -4   5   6   44.71    2.51
   3  -5  -6   93.90    7.07
   3  -5  -6   89.95    6.20
  -3   5   6   92.68    7.45
   2  -5  -6    0.03    0.71
   2  -5  -6   -0.38    0.32
  -2   5   6    0.47    0.87
   1  -5  -6  173.93   12.11
   1  -5  -6  185.82   11.60
  -1   5   6  189.86   10.94
  -1   5   6  174.87   12.52
  -1   5   6  189.92   10.94
   0  -5  -6  144.48   10.26
   0  -5  -6  157.62    9.92
   0  -5  -6  157.48    9.25
   0   5   6  154.12   10.74
   0   5   6  154.86    9.31
  -1  -5  -6   48.51    3.27
  -1  -5  -6   52.18    3.87
   1   5   6   48.34    3.31
   1   5   6   53.76    4.47
  -2  -5  -6  230.89   13.34
  -2  -5  -6  186.80   12.60
   2   5   6  210.10   13.75
  -3  -5  -6   94.09    6.46
  -3  -5  -6   96.30    6.18
   3   5   6   84.18    6.65
  -4  -5  -6   19.24    1.76
  -4  -5  -6   19.50    2.14
   4   5   6   18.12    2.22
  -5  -5  -6  216.86   13.82
  -5  -5  -6  222.59   13.45
   5   5   6  209.52   13.35
   5   5   6  212.08   14.02
  -6  -5  -6   31.61    2.64
  -6  -5  -6   24.54    2.63
   6   5   6   30.47    2.98
   6   5   6   27.15    2.36
  -7  -5  -6   47.12    3.86
  -7  -5  -6   49.58    4.13
   7   5   6   48.49    3.66
   7   5   6   43.84    4.07
   8   5   6   82.04    6.30
  -9  -5  -6    8.75    1.74
   9   5   6   10.56    1.82
   9   5   6    9.35    1.47
 -10  -5  -6   53.39    4.91
  10   5   6   55.09    4.62
  10   5   6   57.58    4.48
 -11  -5  -6   57.79    5.14
  11   5   6   62.04    4.71
  11   5   6   50.59    4.52
 -12  -5  -6   -0.65    0.95
  12   5   6    0.76    1.02
  12   5   6    1.42    0.95
 -13  -5  -6   13.95    2.67
  13   5   6   15.68    2.27
 -14  -5  -6   17.44    3.23
  14   5   6   22.89    2.83
  12  -6  -6   21.68    4.06
  12  -6  -6   28.17    2.90
 -12   6   6   30.08    5.37
  11  -6  -6    1.65    1.03
  10  -6  -6    8.70    1.63
  10  -6  -6    6.72    2.28
 -10   6   6   10.14    1.64
   9  -6  -6   54.53    4.33
   9  -6  -6   56.42    5.72
  -9   6   6   52.07    4.09
   8  -6  -6    3.32    1.04
   8  -6  -6    4.34    2.08
  -8   6   6    2.76    0.80
   7  -6  -6   36.91    4.36
  -7   6   6   33.26    2.73
   6  -6  -6   68.37    5.05
   6  -6  -6   74.75    6.46
  -6   6   6   68.11    4.66
   5  -6  -6    8.68    2.25
   5  -6  -6    5.40    1.16
   5  -6  -6    4.90    0.71
  -5   6   6    6.56    0.75
  -5   6   6    7.28    0.96
   4  -6  -6   95.76    7.86
   4  -6  -6   96.89    6.84
  -4   6   6  110.81    6.42
   3  -6  -6   60.88    4.58
   3  -6  -6   68.09    5.58
  -3   6   6   75.32    4.17
  -3   6   6   54.78    3.99
   2  -6  -6   29.87    3.12
   2  -6  -6   25.74    2.33
  -2   6   6   26.68    1.89
  -2   6   6   24.94    1.81
   1  -6  -6  264.75   17.91
   1  -6  -6  282.43   17.37
  -1   6   6  262.98   18.34
  -1   6   6  290.98   16.79
  -1   6   6  297.61   17.13
   0  -6  -6  161.73    8.93
   0  -6  -6  140.53    9.91
   0  -6  -6  155.59    9.59
   0   6   6  140.97   10.33
   0   6   6  131.29    8.93
  -1  -6  -6   11.87    1.55
  -1  -6  -6   14.06    1.84
  -1  -6  -6   13.07    1.17
   1   6   6   12.28    2.06
  -2  -6  -6  232.56   14.92
  -2  -6  -6  264.16   15.66
   2   6   6  243.32   16.07
  -3  -6  -6    5.55    1.27
  -3  -6  -6    7.53    1.04
   3   6   6    7.33    1.60
  -4  -6  -6   61.90    4.18
  -4  -6  -6   57.15    4.58
   4   6   6   55.67    4.69
  -5  -6  -6   89.23    5.88
  -5  -6  -6   81.29    6.20
   5   6   6   85.54    5.82
   5   6   6   85.75    6.36
  -6  -6  -6   12.75    1.94
  -6  -6  -6   17.08    1.82
   6   6   6   13.49    1.56
   6   6   6   13.68    1.92
  -7  -6  -6   64.43    5.02
   7   6   6   66.30    5.23
   7   6   6   68.56    4.92
  -8  -6  -6   54.69    4.70
   8   6   6   65.54    4.89
   8   6   6   55.51    4.44
  -9  -6  -6    7.09    1.62
   9   6   6    8.49    1.55
   9   6   6    9.44    1.65
 -10  -6  -6   45.90    4.42
  10   6   6   48.19    3.96
  10   6   6   43.14    3.79
 -11  -6  -6   24.16    3.24
  11   6   6   30.63    2.94
  11   6   6   23.40    3.44
 -12  -6  -6    1.39    1.21
 -13  -6  -6   28.00    3.71
  13   6   6   25.68    3.04
 -14  -6  -6    1.37    1.53
  14   6   6    5.31    1.63
  12  -7  -6   20.56    2.51
  12  -7  -6   17.99    4.00
  11  -7  -6   -2.25    1.47
  10  -7  -6   22.41    4.01
  10  -7  -6   26.55    2.69
 -10   7   6   25.30    3.33
   9  -7  -6   28.26    2.80
   9  -7  -6   33.68    4.36
  -9   7   6   29.02    2.73
   8  -7  -6    7.78    1.51
   8  -7  -6    8.08    2.56
  -8   7   6    8.16    1.34
   7  -7  -6  108.38    7.55
   7  -7  -6  110.06    8.99
   6  -7  -6   39.72    4.42
   6  -7  -6   34.82    3.10
  -6   7   6   38.13    2.90
   5  -7  -6    3.58    1.58
   5  -7  -6    3.78    1.00
  -5   7   6    3.66    0.81
   4  -7  -6   85.97    6.60
   4  -7  -6  105.20    8.01
  -4   7   6  105.65    6.37
   3  -7  -6   34.40    2.71
   3  -7  -6   33.80    3.60
  -3   7   6   25.20    2.11
  -3   7   6   31.40    2.31
   2  -7  -6   68.84    5.05
   2  -7  -6   76.35    5.97
  -2   7   6   64.34    4.53
  -2   7   6   75.19    4.66
   1  -7  -6  157.91   10.98
   1  -7  -6  172.55   11.73
  -1   7   6  182.71   10.57
   0  -7  -6   22.70    2.28
   0  -7  -6   20.15    2.57
   0  -7  -6   24.62    1.77
   0   7   6   23.18    1.80
   0   7   6   16.82    2.65
  -1  -7  -6   42.66    3.62
  -1  -7  -6   45.35    3.17
  -1  -7  -6   43.55    3.79
   1   7   6   39.21    4.02
  -2  -7  -6  237.21   15.12
  -2  -7  -6  233.79   14.46
   2   7   6  239.02   15.66
  -3  -7  -6   22.70    1.99
  -3  -7  -6   21.55    2.46
   3   7   6   22.47    2.65
  -4  -7  -6   53.72    3.78
  -4  -7  -6   50.95    4.20
   4   7   6   44.70    3.64
   4   7   6   50.31    4.31
  -5  -7  -6   75.35    5.83
  -5  -7  -6   82.18    5.52
   5   7   6   78.60    5.43
   5   7   6   73.96    5.85
  -6  -7  -6    3.44    0.99
  -6  -7  -6    1.68    1.03
   6   7   6    1.93    0.85
   6   7   6    1.56    0.71
  -7  -7  -6   26.88    2.66
   7   7   6   21.94    2.67
   7   7   6   22.96    2.32
  -8  -7  -6   29.81    3.10
   8   7   6   31.18    2.86
  -9  -7  -6   18.37    2.50
   9   7   6   17.86    2.07
 -10  -7  -6   64.85    5.70
  10   7   6   70.69    5.35
  10   7   6   67.62    4.98
 -11  -7  -6    5.44    1.79
  11   7   6    5.88    1.50
 -12  -7  -6    7.24    1.97
  12   7   6   13.03    2.02
 -13  -7  -6   26.62    3.86
  13   7   6   30.74    3.31
 -14  -7  -6    0.97    1.27
  14   7   6   -0.47    0.81
  11  -8  -6   -0.44    0.76
  11  -8  -6    1.82    2.08
  10  -8  -6   24.36    2.64
  10  -8  -6   24.65    4.01
   9  -8  -6   20.55    2.28
   9  -8  -6   24.12    3.66
  -9   8   6   16.28    2.08
   8  -8  -6   12.26    1.72
   8  -8  -6   14.56    3.33
  -8   8   6   11.89    1.71
   7  -8  -6   68.54    5.29
   7  -8  -6   76.74    7.03
  -7   8   6   74.47    5.14
   6  -8  -6   10.94    1.53
   6  -8  -6   13.03    2.93
  -6   8   6   10.94    1.53
   5  -8  -6    7.98    1.34
   5  -8  -6   11.85    2.75
   4  -8  -6  140.57    9.16
   4  -8  -6  147.86   10.61
  -4   8   6  131.68    8.87
   3  -8  -6    0.28    1.10
   3  -8  -6    0.11    0.52
  -3   8   6    0.32    0.50
   2  -8  -6   42.05    4.12
   2  -8  -6   33.15    3.13
  -2   8   6   41.01    2.94
   1  -8  -6   40.81    4.05
   1  -8  -6   39.18    3.37
   0  -8  -6   34.38    2.45
   0  -8  -6   29.97    3.30
   0  -8  -6   30.07    2.97
   0   8   6   32.46    3.65
   0   8   6   33.04    2.49
  -1  -8  -6   78.58    6.04
  -1  -8  -6   83.38    5.40
  -1  -8  -6   85.05    6.32
   1   8   6   80.28    6.68
  -2  -8  -6  130.63    8.89
  -2  -8  -6  121.67    8.78
  -2  -8  -6  126.77    8.15
   2   8   6  130.60    9.36
  -3  -8  -6    7.49    1.52
  -3  -8  -6    6.61    1.14
   3   8   6    8.61    1.90
   3   8   6    7.23    1.06
  -4  -8  -6   73.10    5.18
  -4  -8  -6   70.20    5.66
   4   8   6   73.76    5.84
   4   8   6   75.24    5.23
  -5  -8  -6   18.55    1.95
  -5  -8  -6   14.45    2.21
   5   8   6   13.58    2.05
   5   8   6   15.38    1.77
  -6  -8  -6   18.90    2.47
   6   8   6   23.79    2.25
   6   8   6   20.14    2.44
  -7  -8  -6   55.91    4.58
   7   8   6   57.99    4.47
  -8  -8  -6   -0.43    0.68
   8   8   6   -0.03    0.86
   8   8   6    0.24    0.58
  -9  -8  -6   25.91    3.09
   9   8   6   29.04    2.90
   9   8   6   31.25    2.56
 -10  -8  -6   65.22    5.67
  10   8   6   66.06    5.24
 -11  -8  -6   -0.56    0.93
  11   8   6    2.38    1.12
 -12  -8  -6   28.79    3.86
  12   8   6   34.99    3.49
 -13  -8  -6   32.73    4.70
  13   8   6   46.88    4.29
  11  -9  -6    1.80    2.23
  11  -9  -6    4.84    1.32
  10  -9  -6   31.61    4.70
   9  -9  -6    1.17    0.92
   9  -9  -6    2.98    2.26
  -9   9   6   -0.63    0.74
   8  -9  -6   45.64    5.14
   8  -9  -6   36.06    3.26
  -8   9   6   33.19    3.11
   7  -9  -6   23.34    2.49
   7  -9  -6   27.64    4.20
  -7   9   6   27.74    2.53
   6  -9  -6    2.35    0.89
   6  -9  -6    2.30    1.70
  -6   9   6    3.04    0.92
   5  -9  -6   84.07    6.29
   5  -9  -6  102.37    8.18
  -5   9   6   90.33    6.21
   4  -9  -6  133.41    9.76
   4  -9  -6  113.77    8.13
  -4   9   6  121.45    7.99
   3  -9  -6    2.37    0.89
   3  -9  -6    2.74    1.59
  -3   9   6    1.46    0.69
   2  -9  -6  152.45   10.84
  -2   9   6  180.41   10.64
   1  -9  -6   64.58    5.62
   1  -9  -6   58.68    4.88
  -1   9   6   67.76    4.56
   0  -9  -6   12.50    2.28
   0  -9  -6   12.09    1.90
   0  -9  -6   15.29    1.52
   0   9   6   13.45    1.50
  -1  -9  -6   87.94    6.90
  -1  -9  -6  100.89    6.31
  -1  -9  -6   95.32    7.21
   1   9   6   95.15    7.68
  -2  -9  -6  121.44    8.86
  -2  -9  -6  130.79    8.97
  -2  -9  -6  124.94    8.20
   2   9   6  129.28    9.48
  -3  -9  -6   14.61    2.30
  -3  -9  -6   18.31    1.96
   3   9   6   15.91    1.84
   3   9   6   16.47    2.44
  -4  -9  -6  116.99    7.63
  -4  -9  -6   99.18    8.03
   4   9   6  117.80    7.69
   4   9   6  115.51    8.42
  -5  -9  -6    0.94    0.89
  -5  -9  -6    1.43    1.20
   5   9   6    2.86    0.95
   5   9   6    2.91    1.07
  -6  -9  -6   38.74    3.33
   6   9   6   32.11    3.36
   6   9   6   36.53    3.21
  -7  -9  -6   50.65    4.12
   7   9   6   44.08    3.90
  -8  -9  -6    0.00    0.80
   8   9   6    2.49    0.83
   8   9   6    1.22    0.82
  -9  -9  -6   25.97    3.20
   9   9   6   26.85    2.84
  10   9   6   38.06    4.01
 -11  -9  -6   -0.95    1.06
  11   9   6    0.51    0.82
 -12  -9  -6   22.77    3.53
  12   9   6   20.11    2.78
 -13  -9  -6    6.31    1.85
  13   9   6    7.19    1.83
  10 -10  -6   16.46    3.56
   9 -10  -6   -0.94    1.55
  -9  10   6   -1.23    0.64
   8 -10  -6   35.22    4.95
  -8  10   6   25.94    2.78
   7 -10  -6   12.94    1.86
   7 -10  -6   21.47    4.23
  -7  10   6   15.50    2.06
   6 -10  -6   -0.30    1.55
   6 -10  -6    0.16    0.65
  -6  10   6   -0.11    0.72
   5 -10  -6   96.99    6.93
   5 -10  -6  117.58    8.92
  -5  10   6   92.15    6.83
   4 -10  -6   45.44    4.06
   4 -10  -6   59.41    5.74
  -4  10   6   54.46    4.08
   3 -10  -6    7.50    2.49
   3 -10  -6    4.45    1.18
  -3  10   6    5.67    1.20
   2 -10  -6   98.42    7.38
   2 -10  -6  104.81    8.41
  -2  10   6  112.64    7.20
   1 -10  -6   -0.25    0.72
   1 -10  -6    0.68    1.33
  -1  10   6    0.92    0.68
   0 -10  -6   39.94    4.20
   0 -10  -6   33.81    3.75
   0 -10  -6   46.16    3.32
   0  10   6   48.13    3.59
  -1 -10  -6  129.85    9.32
  -1 -10  -6  134.88    8.37
  -1 -10  -6  117.54    8.97
   1  10   6  128.58    9.85
   1  10   6  129.30    8.38
  -2 -10  -6   23.52    2.89
  -2 -10  -6   26.49    3.02
  -2 -10  -6   26.39    2.41
   2  10   6   23.35    3.23
   2  10   6   25.11    2.44
  -3 -10  -6   22.00    2.97
  -3 -10  -6   24.71    2.94
  -3 -10  -6   29.54    2.64
   3  10   6   28.69    2.69
   3  10   6   30.95    3.46
  -4 -10  -6   88.47    6.13
  -4 -10  -6   79.71    6.63
   4  10   6   82.54    6.85
   4  10   6   87.89    6.18
  -5 -10  -6   -0.16    0.63
   5  10   6   -0.50    0.55
   5  10   6   -1.03    0.62
  -6 -10  -6   43.25    3.83
   6  10   6   42.62    3.71
   6  10   6   40.83    3.83
  -7 -10  -6    7.62    1.67
   7  10   6    9.15    1.69
  -8 -10  -6   -0.54    0.91
   8  10   6   -0.13    0.55
 -10 -10  -6    8.96    1.93
 -11 -10  -6    2.35    1.47
  11  10   6    5.65    1.59
 -12 -10  -6   37.29    4.44
  12  10   6   38.35    3.96
  10 -11  -6   28.65    5.09
   9 -11  -6    2.71    2.34
   8 -11  -6   12.93    3.40
   8 -11  -6    6.75    1.49
   7 -11  -6   35.67    5.00
   7 -11  -6   28.05    2.91
  -7  11   6   31.14    2.96
   6 -11  -6   23.65    3.97
   6 -11  -6   21.85    2.39
  -6  11   6   20.52    2.54
   5 -11  -6   58.73    4.72
   5 -11  -6   70.34    6.64
  -5  11   6   57.71    4.74
   4 -11  -6   17.26    2.25
   4 -11  -6   23.29    3.76
  -4  11   6   23.05    2.40
   3 -11  -6   47.96    4.44
   3 -11  -6   64.75    6.05
  -3  11   6   60.03    4.51
   2 -11  -6  141.41   10.46
   2 -11  -6  124.93    9.25
  -2  11   6  141.10    9.10
   1 -11  -6   14.70    2.90
   1 -11  -6   15.32    2.34
  -1  11   6   15.89    1.96
   0 -11  -6   36.65    4.06
   0 -11  -6   37.41    3.01
   0 -11  -6   32.36    3.47
   0  11   6   37.11    3.09
   0  11   6   33.47    3.01
  -1 -11  -6   66.11    5.60
  -1 -11  -6   70.87    4.94
  -1 -11  -6   67.00    5.93
   1  11   6   69.25    5.09
   1  11   6   64.37    6.41
   1  11   6   68.61    5.02
  -2 -11  -6    0.59    1.19
  -2 -11  -6    0.07    0.68
  -2 -11  -6    1.08    1.06
   2  11   6   -0.48    1.19
  -3 -11  -6   50.40    5.20
  -3 -11  -6   68.67    4.89
  -3 -11  -6   65.07    5.40
   3  11   6   63.67    5.87
   3  11   6   66.09    4.95
  -4 -11  -6   62.10    4.64
   4  11   6   53.21    5.20
   4  11   6   56.70    4.60
  -5 -11  -6   -0.26    0.86
   5  11   6    0.19    0.69
   5  11   6    0.44    0.93
  -6 -11  -6   29.79    3.01
   6  11   6   26.61    3.03
   6  11   6   28.86    2.97
  -7 -11  -6    1.18    0.99
   7  11   6    3.12    1.15
  -9 -11  -6   39.79    4.15
   9  11   6   39.45    3.81
 -10 -11  -6    5.01    1.64
  10  11   6    9.78    2.00
 -11 -11  -6    3.29    1.60
  11  11   6    4.45    1.60
   9 -12  -6    8.87    3.14
   8 -12  -6   43.27    5.77
  -8  12   6   38.06    3.65
   7 -12  -6    6.08    1.38
   7 -12  -6   10.82    3.37
  -7  12   6    6.49    1.50
   6 -12  -6   16.18    2.23
   6 -12  -6   22.74    4.05
  -6  12   6   19.34    2.48
   5 -12  -6   36.00    3.52
   5 -12  -6   48.41    5.54
  -5  12   6   40.39    3.92
   4 -12  -6    5.09    1.43
   4 -12  -6    6.14    2.19
  -4  12   6    5.52    1.79
   3 -12  -6   42.91    4.15
   3 -12  -6   55.76    5.70
  -3  12   6   56.12    5.69
   2 -12  -6   48.72    4.63
   2 -12  -6   57.08    5.77
  -2  12   6   63.97    4.74
   1 -12  -6    1.66    1.61
   1 -12  -6    4.29    1.26
  -1  12   6    2.07    0.79
  -1  12   6    0.97    0.90
   0 -12  -6   94.33    7.91
   0 -12  -6   92.20    7.39
   0  12   6  104.07    6.97
   0  12   6  102.03    6.92
  -1 -12  -6   65.31    4.64
  -1 -12  -6   61.45    5.54
   1  12   6   53.29    5.81
   1  12   6   59.92    4.63
   1  12   6   58.65    5.05
  -2 -12  -6   -0.48    1.04
  -2 -12  -6   -1.00    0.70
   2  12   6   -0.21    0.75
  -3 -12  -6   40.72    4.09
  -3 -12  -6   40.90    3.62
   3  12   6   42.86    3.68
   3  12   6   35.70    4.44
  -4 -12  -6   19.02    2.36
   4  12   6   12.70    2.75
   4  12   6   18.28    2.36
  -5 -12  -6   21.90    2.62
   5  12   6   20.12    2.46
   5  12   6   16.52    2.88
  -6 -12  -6   31.20    3.23
   6  12   6   30.32    3.22
   6  12   6   30.42    3.33
  -7 -12  -6    2.88    1.41
   7  12   6    3.75    1.51
  -8 -12  -6   34.93    3.87
   8  12   6   35.32    3.63
  -9 -12  -6   41.45    4.22
   9  12   6   39.59    4.08
 -10 -12  -6    0.19    1.36
   8 -13  -6   29.95    5.15
  -8  13   6   32.94    3.67
   7 -13  -6   -0.92    2.00
  -7  13   6   -1.17    1.08
   6 -13  -6   24.15    4.37
  -6  13   6   21.20    2.79
   5 -13  -6   13.73    3.10
   5 -13  -6   12.79    2.08
  -5  13   6   11.08    1.97
   4 -13  -6    1.07    1.04
   4 -13  -6    0.53    2.83
  -4  13   6    0.42    0.99
   3 -13  -6   38.50    3.92
   3 -13  -6   48.03    5.39
  -3  13   6   43.31    3.97
  -3  13   6   46.51    3.56
   2 -13  -6   36.57    3.75
   2 -13  -6   43.60    4.93
  -2  13   6   40.00    3.34
  -2  13   6   37.62    3.65
   1 -13  -6    5.46    2.08
  -1  13   6    6.07    1.45
  -1  13   6    4.87    1.20
   0 -13  -6   70.37    6.68
   0 -13  -6   71.82    6.21
   0  13   6   81.24    5.67
   0  13   6   74.38    5.63
  -1 -13  -6   19.56    3.24
  -1 -13  -6   22.20    2.41
   1  13   6   24.35    3.81
   1  13   6   21.25    2.42
   1  13   6   18.29    2.34
  -2 -13  -6   19.82    3.10
  -2 -13  -6   22.11    2.54
   2  13   6   23.09    2.61
   2  13   6   19.51    2.44
   2  13   6   24.15    3.73
  -3 -13  -6   31.29    3.91
  -3 -13  -6   41.23    3.44
   3  13   6   32.17    3.35
   3  13   6   37.37    3.36
   3  13   6   31.08    4.37
  -4 -13  -6   16.93    2.47
   4  13   6   16.42    2.30
  -5 -13  -6   14.54    3.06
   5  13   6    6.48    2.11
   5  13   6    8.70    1.84
  -6 -13  -6   21.12    2.87
  -7 -13  -6    2.90    1.31
   7  13   6    1.13    0.92
  -8 -13  -6   38.40    4.20
   8  13   6   42.12    4.18
  -9 -13  -6   22.14    3.13
   9  13   6   19.02    2.91
   7 -14  -6    0.50    2.06
  -7  14   6    1.39    1.27
   6 -14  -6   35.70    5.10
  -6  14   6   29.85    3.56
   5 -14  -6   34.42    4.66
  -5  14   6   22.96    3.13
   4 -14  -6    3.55    2.10
  -4  14   6    1.36    1.21
   3 -14  -6   28.44    4.47
   3 -14  -6   22.26    2.95
  -3  14   6   28.15    3.13
  -3  14   6   30.48    2.59
   2 -14  -6   11.30    2.67
   2 -14  -6    9.65    2.08
  -2  14   6   15.83    1.89
  -2  14   6   17.27    2.30
   1 -14  -6   14.04    3.07
  -1  14   6   16.55    2.26
  -1  14   6   14.21    1.95
   0 -14  -6   51.17    5.28
   0  14   6   44.52    4.13
   0  14   6   51.37    4.13
  -1 -14  -6    4.90    2.06
   1  14   6    3.71    1.26
   1  14   6    3.68    2.14
   1  14   6    5.25    1.35
  -2 -14  -6   30.26    4.05
  -2 -14  -6   39.07    3.48
   2  14   6   36.18    3.41
   2  14   6   33.80    4.67
   2  14   6   35.73    3.44
   3  14   6   38.87    5.07
   3  14   6   44.40    3.97
  -4 -14  -6    0.13    1.12
   4  14   6   -0.38    0.85
   4  14   6   -0.73    0.92
  -5 -14  -6   17.32    2.72
   5  14   6   19.24    2.96
  -6 -14  -6   20.77    2.96
   6  14   6   19.62    2.67
  -7 -14  -6   -2.32    1.07
   7  14   6    0.11    0.95
  -8 -14  -6   48.10    4.79
   5 -15  -6   -0.31    2.05
  -5  15   6   -0.80    1.28
   4 -15  -6   13.78    3.49
  -4  15   6   15.34    2.66
   3 -15  -6   41.05    5.39
  -3  15   6   45.37    4.31
   2 -15  -6    1.41    1.85
  -2  15   6    2.46    1.27
  -1  15   6   15.85    2.00
   0 -15  -6   29.46    4.32
   0  15   6   36.00    3.82
   0  15   6   33.82    3.16
  -1 -15  -6   -2.72    1.31
   1  15   6    0.62    0.94
   1  15   6    0.81    1.70
  -2 -15  -6   27.74    3.93
  -2 -15  -6   30.53    3.29
   2  15   6   23.02    4.05
   2  15   6   29.26    3.13
   2  15   6   33.25    3.33
  -3 -15  -6   33.69    3.47
   3  15   6   29.82    3.32
   3  15   6   23.43    4.32
   3  15   6   30.31    3.30
  -4 -15  -6    1.25    1.08
   4  15   6   -1.00    0.80
   4  15   6   -1.29    0.74
  -5 -15  -6   31.76    3.55
   5  15   6   26.32    3.42
   5  15   6   27.73    3.27
  -6 -15  -6   12.19    2.17
   6  15   6    8.61    2.03
   3 -16  -6   27.22    4.55
   2 -16  -6    0.52    1.62
  -2  16   6    1.49    1.10
   1 -16  -6   28.44    4.35
  -1  16   6   27.18    3.22
   0 -16  -6   29.29    4.29
   0  16   6   28.48    3.32
   0  16   6   32.39    5.03
   0  16   6   27.29    3.11
   1  16   6   -1.78    0.74
   1  16   6   -0.88    0.65
  -2 -16  -6   12.51    3.15
   2  16   6   14.22    2.26
   2  16   6   17.16    2.26
   2  16   6   24.03    3.79
  -3 -16  -6    3.73    1.59
   3  16   6    1.89    1.18
  -2  11  -7   -0.04    1.34
   2 -11   7   -4.43    2.06
  -3  11  -7   18.60    2.96
   3 -11   7   17.17    3.96
  -4  11  -7    6.92    2.07
   4 -11   7    3.66    2.48
  -5  11  -7   -0.04    1.45
   2  10  -7   25.06    3.37
   1  10  -7   -1.22    0.57
   0  10  -7   34.39    3.70
   0 -10   7   26.96    5.04
  -1  10  -7   25.21    3.32
   1 -10   7   25.30    3.98
  -2  10  -7   -1.86    0.78
  -3  10  -7   26.74    3.45
   3 -10   7   23.81    4.38
  -4  10  -7    9.08    2.12
   4 -10   7    2.44    2.29
  -5  10  -7    1.32    1.23
   5 -10   7    0.63    1.84
  -6  10  -7   23.23    3.39
   6 -10   7   26.28    4.65
  -7  10  -7    3.96    1.71
   7 -10   7    2.50    2.32
  -8  10  -7    4.62    1.89
   8 -10   7    5.27    2.64
   4   9  -7   -1.88    0.93
   3   9  -7   18.01    2.89
   3   9  -7   15.11    2.18
   2   9  -7   32.41    3.08
   2   9  -7   28.95    3.50
   1   9  -7    1.64    0.81
   1   9  -7    2.40    1.14
  -1  -9   7   -0.06    1.80
   0   9  -7   34.56    3.74
   0  -9   7   34.77    4.56
  -1   9  -7    6.69    1.61
  -1   9  -7   10.12    1.39
   1  -9   7    7.08    2.44
  -2   9  -7   10.76    1.38
  -2   9  -7   12.12    2.30
   2  -9   7   14.59    3.17
  -3   9  -7   38.39    4.08
   3  -9   7   39.11    4.95
  -4   9  -7    7.71    1.83
   4  -9   7   10.39    3.12
  -5   9  -7   25.77    3.23
   5  -9   7   18.29    4.49
  -6   9  -7   10.77    2.32
   6  -9   7   20.14    4.14
  -7   9  -7   -0.81    1.04
  -8   9  -7   10.16    2.35
  -9   9  -7   16.60    3.14
   9  -9   7   21.71    4.64
 -10   9  -7   -2.22    1.22
  10  -9   7   -1.59    1.91
   5   8  -7   20.47    2.60
   5   8  -7   17.89    2.81
   4   8  -7    2.51    1.09
   4   8  -7    1.41    1.32
   3   8  -7   29.57    3.35
   3   8  -7   28.00    2.89
   2   8  -7   16.07    1.96
  -2  -8   7   11.81    2.41
   1   8  -7   23.98    2.38
   1   8  -7   19.01    2.60
  -1  -8   7   22.46    4.52
   0   8  -7   77.08    6.39
   0   8  -7   84.78    5.85
   0  -8   7   88.51    7.38
  -1   8  -7   20.83    2.84
  -1   8  -7   22.18    2.12
   1  -8   7   26.78    3.88
  -2   8  -7   22.51    2.05
  -2   8  -7   26.88    3.64
   2  -8   7   23.17    3.74
  -3   8  -7   38.61    3.87
  -3   8  -7   39.67    2.87
   3  -8   7   35.72    4.76
  -4   8  -7    0.99    0.99
   4  -8   7    0.95    1.82
  -5   8  -7   32.34    3.68
   5  -8   7   38.17    4.88
  -6   8  -7   39.80    5.68
   6  -8   7   43.47    5.46
  -7   8  -7    0.59    1.12
   7  -8   7    1.35    2.83
  -8   8  -7   35.69    4.31
   8  -8   7   41.44    5.57
  -9   8  -7    6.11    2.02
   9  -8   7    6.79    2.64
 -10   8  -7    0.65    1.27
  10  -8   7   -0.16    2.05
 -11   8  -7   37.20    4.36
  11  -8   7   32.68    5.51
   6   7  -7   48.29    4.56
   6   7  -7   46.75    4.45
  -6  -7   7   51.84    4.57
   5   7  -7    6.25    1.66
   4   7  -7    5.03    1.48
   4   7  -7    9.93    1.90
   3   7  -7   74.96    5.58
   3   7  -7   75.07    5.81
  -3  -7   7   67.21    5.86
   2   7  -7    8.67    1.57
   2   7  -7    4.59    1.15
  -2  -7   7    4.82    1.95
   1   7  -7   14.95    2.19
   1   7  -7   16.19    1.90
  -1  -7   7   12.51    2.87
   0   7  -7   48.14    4.38
   0  -7   7   58.74    5.58
  -1   7  -7   -0.41    0.46
  -1   7  -7    0.01    0.69
   1  -7   7   -0.61    1.26
  -2   7  -7   33.99    2.73
  -2   7  -7   34.23    3.39
   2  -7   7   38.45    4.50
  -3   7  -7   40.61    3.03
  -3   7  -7   41.08    3.87
   3  -7   7   42.41    4.93
  -4   7  -7   -1.74    0.81
  -4   7  -7    0.29    0.42
   4  -7   7   -0.95    1.32
  -5   7  -7   30.80    3.60
   5  -7   7   39.06    4.76
  -6   7  -7   13.13    2.46
   6  -7   7   21.41    3.75
  -7   7  -7    2.18    1.26
   7  -7   7    3.76    1.96
  -8   7  -7   42.45    6.20
   8  -7   7   41.18    6.00
  -9   7  -7    3.71    1.86
   9  -7   7    5.80    2.43
 -10   7  -7   15.00    2.98
  10  -7   7   15.41    3.78
 -11   7  -7   25.15    3.73
  11  -7   7   26.94    5.38
 -12   7  -7    0.05    1.27
  12  -7   7    1.44    2.37
   7   6  -7   25.80    3.13
   7   6  -7   25.23    3.11
  -7  -6   7   29.07    3.20
   6   6  -7   59.89    5.07
   6   6  -7   57.59    4.99
  -6  -6   7   60.67    4.98
   5   6  -7    2.53    1.14
  -5  -6   7    1.99    1.01
   4   6  -7   28.71    2.93
   4   6  -7   27.32    2.81
  -4  -6   7   22.68    3.49
   3   6  -7   53.83    4.18
   3   6  -7   54.87    4.31
  -3  -6   7   39.86    4.37
   2   6  -7    0.70    0.84
   2   6  -7    0.34    0.67
  -2  -6   7   -0.70    1.20
   1   6  -7   71.57    5.61
   1   6  -7   72.21    5.40
  -1  -6   7   84.35    6.53
   0   6  -7   79.26    5.56
   0  -6   7   80.81    6.79
  -1   6  -7   -0.63    0.60
  -1   6  -7   -0.57    0.36
   1  -6   7   -0.44    1.18
  -2   6  -7   63.39    5.11
  -2   6  -7   64.97    4.57
   2  -6   7   71.37    6.35
  -3   6  -7   13.69    1.41
  -3   6  -7   10.14    1.88
   3  -6   7   11.78    2.75
  -4   6  -7    6.47    0.93
  -4   6  -7    3.54    1.29
   4  -6   7   11.77    2.95
  -5   6  -7   87.22    6.32
  -5   6  -7   68.23    4.95
   5  -6   7   96.39    7.75
  -6   6  -7   48.42    4.69
   6  -6   7   58.10    5.97
  -7   6  -7   24.25    3.02
   7  -6   7   27.17    4.15
  -8   6  -7   16.94    2.72
  -9   6  -7    3.24    1.48
   9  -6   7    8.25    2.83
 -10   6  -7   16.27    2.88
  10  -6   7   12.24    3.15
 -11   6  -7   22.06    3.28
  11  -6   7   25.55    4.66
 -12   6  -7   -0.78    1.09
  12  -6   7   -2.98    1.67
 -13   6  -7   25.95    3.82
  13  -6   7   30.69    5.00
   8   5  -7    0.14    0.84
   7   5  -7   28.84    3.15
   7   5  -7   26.26    3.13
  -7  -5   7   30.55    3.11
   6   5  -7   24.11    2.76
   6   5  -7   22.26    2.68
  -6  -5   7   23.58    2.69
   5   5  -7   -0.25    0.83
   5   5  -7    0.47    0.73
  -5  -5   7   -0.27    0.79
   4   5  -7   40.98    3.77
   4   5  -7   49.08    3.91
  -4  -5   7   49.65    3.87
  -4  -5   7   38.94    4.03
   3   5  -7   26.56    2.58
   3   5  -7   24.02    2.51
  -3  -5   7   23.49    2.92
   2   5  -7    3.83    1.04
   2   5  -7    1.69    0.85
  -2  -5   7    2.15    1.32
   1   5  -7   62.85    4.62
   1   5  -7   62.01    4.71
  -1  -5   7   58.32    5.40
   0   5  -7   18.30    2.12
   0   5  -7   19.80    1.93
   0  -5   7   19.89    2.95
  -1   5  -7    4.74    1.00
  -1   5  -7    2.76    0.92
   1  -5   7    3.94    1.73
  -2   5  -7   73.75    5.64
  -2   5  -7   76.60    5.14
   2  -5   7   77.35    6.67
  -3   5  -7   13.08    1.39
  -3   5  -7   11.82    1.89
  -4   5  -7    0.29    0.94
  -4   5  -7    2.97    0.74
   4  -5   7    2.24    1.43
  -5   5  -7   40.84    3.68
  -5   5  -7   34.31    2.71
   5  -5   7   49.39    4.92
  -6   5  -7   11.26    2.10
  -6   5  -7    7.89    0.78
   6  -5   7    6.79    0.84
   6  -5   7   13.04    2.86
  -7   5  -7   43.92    4.32
   7  -5   7   57.38    5.85
  -8   5  -7   96.11    7.66
   8  -5   7  110.23    9.12
  -9   5  -7   -0.06    1.15
   9  -5   7   -0.28    1.52
 -10   5  -7   40.25    4.30
  10  -5   7   47.06    5.54
 -11   5  -7   28.22    3.64
  11  -5   7   30.50    4.56
 -12   5  -7    0.84    1.23
  12  -5   7    0.22    1.94
 -13   5  -7   37.43    4.28
  13  -5   7   28.79    5.06
 -14   5  -7   -0.09    1.36
  14  -5   7   -0.76    2.05
   9   4  -7    5.67    1.62
   8   4  -7    0.96    1.07
   8   4  -7    0.68    0.98
  -8  -4   7    2.62    1.06
   7   4  -7   41.78    3.89
   7   4  -7   41.45    3.97
  -7  -4   7   43.68    3.84
   6   4  -7    9.93    1.72
   6   4  -7   12.88    1.95
  -6  -4   7   12.90    1.91
   5   4  -7   19.00    2.33
   5   4  -7   22.48    2.41
  -5  -4   7   19.70    2.30
  -5  -4   7   17.05    3.48
   4   4  -7  137.08    8.63
   4   4  -7  122.49    8.70
  -4  -4   7  118.74    8.94
  -4  -4   7  131.89    8.55
   3   4  -7   23.45    2.34
   3   4  -7   24.49    2.37
  -3  -4   7   16.44    2.62
   2   4  -7   26.82    2.53
   2   4  -7   27.67    2.52
  -2  -4   7   24.53    3.09
   1   4  -7   80.02    5.54
   1   4  -7   78.74    5.45
  -1  -4   7   72.26    6.22
   0   4  -7    0.82    0.64
   0   4  -7    1.49    0.61
   0  -4   7   -0.40    1.09
  -1   4  -7   81.51    5.41
  -1   4  -7   79.12    5.69
   1  -4   7   77.60    6.67
  -2   4  -7  115.70    7.92
  -2   4  -7  119.93    7.55
   2  -4   7  113.68    8.95
  -3   4  -7    5.12    1.15
  -3   4  -7    9.40    1.16
   3  -4   7    8.59    2.17
  -4   4  -7   54.63    3.97
  -4   4  -7   56.43    4.49
   4  -4   7   59.95    5.63
  -5   4  -7   78.78    6.13
  -5   4  -7   71.28    5.06
   5  -4   7   86.38    7.17
  -6   4  -7   -0.52    0.79
  -6   4  -7    0.89    0.46
   6  -4   7   -0.29    0.91
   6  -4   7   -0.82    0.38
  -7   4  -7   31.77    3.48
   7  -4   7   39.74    4.68
   7  -4   7   32.61    2.28
   7  -4   7   33.73    2.26
  -8   4  -7   15.25    2.44
   8  -4   7   14.32    1.46
   8  -4   7   16.05    3.33
   8  -4   7   17.91    1.23
  -9   4  -7    1.40    1.05
   9  -4   7    1.64    1.74
 -10   4  -7   74.34    6.25
  10  -4   7   83.17    7.56
  10  -4   7   72.99    4.69
 -11   4  -7   46.36    5.14
  11  -4   7   48.76    5.71
 -12   4  -7    5.79    1.94
  12  -4   7   10.34    3.14
 -13   4  -7   21.28    3.53
  13  -4   7   15.89    3.84
 -14   4  -7    9.13    2.47
  14  -4   7    2.76    2.35
 -10  -3   7   23.25    3.18
   9   3  -7    7.58    1.80
  -9  -3   7    0.76    1.08
   8   3  -7    7.11    1.68
  -8  -3   7    6.48    1.50
   7   3  -7   82.48    5.81
   7   3  -7   73.27    6.36
  -7  -3   7   76.54    5.69
   6   3  -7   23.59    2.68
   6   3  -7   29.26    2.67
  -6  -3   7   25.35    2.53
  -6  -3   7   19.85    3.97
   5   3  -7   13.85    1.87
   5   3  -7   12.58    1.86
  -5  -3   7   10.76    2.17
  -5  -3   7   14.49    1.83
   4   3  -7  125.64    8.00
   4   3  -7  113.41    8.17
  -4  -3   7  123.70    7.96
  -4  -3   7  117.31    8.66
   3   3  -7    0.77    0.66
   3   3  -7    0.62    0.62
  -3  -3   7    0.88    0.65
  -3  -3   7   -0.51    1.07
   2   3  -7   80.32    5.51
   2   3  -7   77.92    5.60
  -2  -3   7   80.69    6.38
   1   3  -7  112.33    7.26
   1   3  -7  105.54    7.18
  -1  -3   7  107.60    8.20
   0   3  -7   11.97    1.49
   0   3  -7   11.62    1.37
   0  -3   7   10.60    2.18
  -1   3  -7   83.82    5.67
  -1   3  -7   83.51    5.49
   1  -3   7   75.22    6.60
  -2   3  -7  108.96    6.75
  -2   3  -7   98.53    6.95
   2  -3   7  100.47    8.10
  -3   3  -7    2.48    0.92
  -3   3  -7    3.27    0.75
   3  -3   7    2.55    1.36
  -4   3  -7  223.64   13.61
  -4   3  -7  197.97   13.62
   4  -3   7  224.79   15.08
  -5   3  -7    9.27    1.16
  -5   3  -7    8.88    1.59
   5  -3   7   11.37    2.54
  -6   3  -7    4.53    0.86
  -6   3  -7    2.80    1.37
   6  -3   7    3.53    1.85
  -7   3  -7   74.71    5.96
  -7   3  -7   75.61    5.21
   7  -3   7   89.13    7.38
   7  -3   7   78.62    5.02
  -8   3  -7    8.68    1.98
   8  -3   7   11.33    2.86
   8  -3   7    8.24    0.91
  -9   3  -7    9.13    1.97
   9  -3   7   11.91    2.94
   9  -3   7   11.15    1.10
 -10   3  -7   70.45    6.14
  10  -3   7   83.04    7.41
 -11   3  -7    4.93    1.62
  11  -3   7    3.92    0.77
  11  -3   7    6.66    2.38
  12  -3   7   17.34    3.83
  12  -3   7   17.50    1.67
 -13   3  -7   33.31    4.06
  13  -3   7   36.46    5.05
 -14   3  -7   -1.10    1.09
  14  -3   7   -0.48    1.76
  10   2  -7   21.74    2.83
 -10  -2   7   19.68    2.61
   9   2  -7   -0.57    0.76
  -9  -2   7   -1.76    0.79
   8   2  -7   21.27    2.55
  -8  -2   7   23.08    2.49
   7   2  -7   69.93    5.48
  -7  -2   7   68.64    5.63
   6   2  -7    6.15    1.39
   6   2  -7    4.80    1.11
  -6  -2   7    7.32    1.24
  -6  -2   7    4.23    1.54
   5   2  -7   69.44    4.58
   5   2  -7   58.19    4.73
  -5  -2   7   61.66    4.46
  -5  -2   7   55.78    5.10
   4   2  -7  107.09    6.99
   4   2  -7  101.32    7.25
  -4  -2   7  101.57    7.81
  -4  -2   7  110.72    6.98
   3   2  -7   -0.28    0.45
   3   2  -7   -0.23    0.52
  -3  -2   7   -1.24    0.77
  -3  -2   7   -0.70    0.45
   2   2  -7   74.46    5.24
   2   2  -7   75.89    5.07
  -2  -2   7   71.48    5.97
   1   2  -7   38.35    3.03
   1   2  -7   39.74    2.96
  -1  -2   7   35.32    3.76
   0   2  -7    0.77    0.48
   0   2  -7    0.33    0.43
   0  -2   7    0.98    0.99
  -1   2  -7   57.93    4.36
  -1   2  -7   65.39    4.38
   1  -2   7   64.63    5.53
  -2   2  -7   70.43    4.57
  -2   2  -7   60.01    4.60
   2  -2   7   67.06    5.77
  -3   2  -7   27.36    2.51
  -3   2  -7   28.49    2.30
   3  -2   7   25.74    3.33
  -4   2  -7  133.85    8.82
   4  -2   7  132.68   10.03
  -5   2  -7   10.77    1.66
  -5   2  -7   11.88    1.37
   5  -2   7    9.52    2.34
  -6   2  -7    4.83    1.29
  -6   2  -7    3.62    0.84
   6  -2   7    3.98    1.85
  -7   2  -7   20.58    4.42
  -7   2  -7   34.59    3.21
   7  -2   7   27.43    2.26
  -8   2  -7    4.54    1.42
   8  -2   7    5.47    1.97
   8  -2   7    3.63    0.73
  -9   2  -7   37.20    3.85
   9  -2   7   43.34    4.86
   9  -2   7   38.72    2.85
 -10   2  -7  100.35    7.73
  10  -2   7  103.40    8.84
  10  -2   7  103.24    6.64
 -11   2  -7   -1.24    0.74
  11  -2   7   -0.85    1.49
  11  -2   7   -0.03    0.39
 -12   2  -7    9.99    2.25
  12  -2   7   10.57    2.81
  12  -2   7   11.59    1.45
 -13   2  -7   13.40    2.57
  13  -2   7   12.91    3.20
  13  -2   7   14.62    1.74
 -14   2  -7    0.62    1.47
  14  -2   7   -0.62    1.65
  14  -2   7    1.13    0.89
 -15   2  -7   44.26    5.16
  15  -2   7   38.90    5.54
  10   1  -7   18.01    2.55
 -10  -1   7   18.83    2.64
   9   1  -7    1.09    1.03
  -9  -1   7    0.45    0.88
  -8  -1   7   27.48    3.49
  -8  -1   7   20.71    2.99
   7   1  -7   60.81    5.17
  -7  -1   7   68.52    5.85
  -7  -1   7   71.76    4.90
   6   1  -7    0.24    0.61
  -6  -1   7    0.26    0.61
  -6  -1   7   -0.09    1.14
   5   1  -7   92.88    5.90
   5   1  -7   83.71    6.22
  -5  -1   7   85.30    6.85
  -5  -1   7   87.66    5.85
   4   1  -7   98.12    6.94
   4   1  -7  108.47    6.60
  -4  -1   7   99.57    6.54
  -4  -1   7   95.24    7.51
   3   1  -7   16.53    1.53
   3   1  -7   15.32    1.77
  -3  -1   7   15.63    1.52
  -3  -1   7   13.04    2.26
   2   1  -7  133.16    8.08
   2   1  -7  125.77    8.34
  -2  -1   7  122.74    9.11
   1   1  -7   57.18    4.04
   1   1  -7   53.95    3.81
  -1  -1   7   55.75    4.85
   0   1  -7    7.90    1.09
   0   1  -7   10.50    1.22
   0  -1   7   13.26    2.49
  -1   1  -7   98.62    6.68
  -1   1  -7  109.14    6.79
   1  -1   7  102.16    7.87
  -2   1  -7   27.88    2.40
  -2   1  -7   30.54    2.40
   2  -1   7   28.74    3.40
  -3   1  -7  146.19    8.84
  -3   1  -7  126.10    8.82
   3  -1   7  141.82   10.21
  -4   1  -7   92.13    6.10
  -4   1  -7   94.18    6.28
   4  -1   7   85.53    7.34
  -5   1  -7    1.92    0.88
  -5   1  -7    3.04    0.83
   5  -1   7    2.67    1.40
  -6   1  -7   41.44    3.08
  -6   1  -7   33.77    3.22
   6  -1   7   36.48    4.22
  -7   1  -7   47.39    3.61
  -7   1  -7   44.34    3.94
   7  -1   7   44.94    3.27
   7  -1   7   49.06    4.95
  -8   1  -7    0.09    0.70
  -8   1  -7    0.09    0.82
   8  -1   7    0.63    0.43
  -9   1  -7   71.84    5.94
   9  -1   7   71.79    5.07
   9  -1   7   87.31    7.11
 -10   1  -7   28.93    3.18
  10  -1   7   25.83    3.89
  10  -1   7   26.35    2.28
 -11   1  -7    1.74    1.16
  11  -1   7    0.06    1.58
  11  -1   7    2.82    0.79
 -12   1  -7   47.80    4.78
  12  -1   7   49.83    3.79
  12  -1   7   51.04    5.56
 -13   1  -7   12.01    2.56
  13  -1   7   13.05    3.20
  13  -1   7   15.82    1.81
 -14   1  -7    1.68    1.62
  14  -1   7    1.70    0.93
 -15   1  -7   39.73    4.51
  15  -1   7   25.48    4.60
  11   0  -7   14.65    2.38
 -10   0   7    8.55    1.59
   9   0  -7    0.91    0.98
  -9   0   7   -1.42    0.85
  -9   0   7   -0.86    1.89
   8   0  -7   31.70    3.26
  -8   0   7   33.02    4.23
  -8   0   7   37.14    3.02
   7   0  -7   18.61    2.26
  -7   0   7   20.84    3.09
  -7   0   7   17.77    1.92
   6   0  -7    1.52    0.86
  -6   0   7    1.28    0.59
  -6   0   7   -0.70    1.32
   5   0  -7   79.72    5.73
  -5   0   7   76.94    6.40
  -5   0   7   80.44    5.26
   4   0  -7   10.23    1.47
  -4   0   7    9.73    1.94
  -4   0   7   10.79    1.26
   3   0  -7   60.27    3.89
   3   0  -7   54.73    4.24
  -3   0   7   61.76    3.91
  -3   0   7   53.24    4.90
   2   0  -7  174.05   10.45
   2   0  -7  167.26   10.84
  -2   0   7  169.75   11.64
   1   0  -7    6.03    0.98
   1   0  -7    4.60    0.75
  -1   0   7    5.07    1.40
   0   0  -7   39.05    2.89
   0   0  -7   43.91    3.16
   0   0   7   41.47    3.95
  -1   0  -7  141.87    9.12
  -1   0  -7  152.16    9.33
   1   0   7  145.54   10.35
  -2   0  -7    0.88    0.44
  -2   0  -7    0.33    0.86
   2   0   7    1.35    1.07
  -3   0  -7  206.99   13.15
  -3   0  -7  223.22   13.24
   3   0   7  205.36   14.41
  -4   0  -7  155.30    9.95
  -4   0  -7  157.09    9.98
   4   0   7  155.08   11.21
  -5   0  -7    2.02    0.85
  -5   0  -7    1.38    0.64
   5   0   7    2.30    1.34
  -6   0  -7  115.73    7.76
  -6   0  -7  109.41    7.58
   6   0   7  116.73    8.87
  -7   0  -7   54.78    4.75
  -7   0  -7   74.23    4.85
   7   0   7   61.60    5.75
   7   0   7   60.62    4.30
  -8   0  -7   11.92    1.75
  -8   0  -7   12.52    2.02
   8   0   7   17.74    2.75
   8   0   7   11.61    1.37
  -9   0  -7  169.45   11.49
   9   0   7  170.98   10.77
 -10   0  -7   25.11    2.98
  10   0   7   26.32    2.29
  10   0   7   21.07    3.47
 -11   0  -7    0.53    1.17
  11   0   7    2.98    0.89
  11   0   7    2.06    1.85
 -12   0  -7   40.47    4.26
  12   0   7   40.23    4.94
  12   0   7   41.19    3.39
 -13   0  -7    5.05    1.64
  13   0   7    5.29    1.18
  13   0   7    5.77    2.11
 -14   0  -7   26.49    3.70
  14   0   7   26.41    4.12
  14   0   7   22.04    2.43
 -15   0  -7   34.57    4.27
  15   0   7   30.22    2.98
  15   0   7   18.90    4.79
  11  -1  -7   20.57    2.62
  10  -1  -7    8.15    1.88
   9  -1  -7    9.62    1.88
  -9   1   7    7.77    1.39
  -9   1   7    9.15    2.98
   8  -1  -7  105.09    7.60
  -8   1   7  104.94    8.84
  -8   1   7  106.99    7.04
   7  -1  -7    6.79    1.49
  -7   1   7    3.30    0.81
  -7   1   7    3.93    1.76
   6  -1  -7   17.91    2.11
  -6   1   7   18.33    1.65
  -6   1   7   18.70    2.97
   5  -1  -7  168.16   11.42
  -5   1   7  183.81   12.45
  -5   1   7  179.76   10.89
   4  -1  -7   18.46    1.91
   4  -1  -7   19.38    1.53
  -4   1   7   19.32    1.55
  -4   1   7   17.16    2.60
   3  -1  -7   37.18    3.06
   3  -1  -7   41.67    2.58
   3  -1  -7   34.32    2.55
  -3   1   7   37.46    3.73
   2  -1  -7  127.59    8.84
   2  -1  -7  158.66    8.91
   2  -1  -7  151.85    9.44
  -2   1   7  148.51   10.25
   1  -1  -7    2.94    0.76
   1  -1  -7    3.19    0.51
   1  -1  -7    2.25    0.41
  -1   1   7    3.06    1.24
   0  -1  -7  142.63    9.04
   0  -1  -7  153.93    9.48
   0  -1  -7  149.33    9.10
   0   1   7  149.30   10.32
  -1  -1  -7  188.45   10.87
  -1  -1  -7  170.47   10.52
   1   1   7  170.95   11.76
   1   1   7  157.43   10.64
  -2  -1  -7    0.49    0.43
  -2  -1  -7    0.77    0.45
   2   1   7    0.21    0.67
  -3  -1  -7   64.96    4.49
  -3  -1  -7   61.26    4.70
   3   1   7   62.41    5.41
  -4  -1  -7  133.41    8.42
  -4  -1  -7  135.40    8.54
   4   1   7  120.05    9.46
  -5  -1  -7   15.62    1.83
  -5  -1  -7   19.87    2.03
   5   1   7   20.47    2.77
  -6  -1  -7  120.02    8.48
  -6  -1  -7  141.80    8.64
   6   1   7  122.51    9.55
  -7  -1  -7   38.83    3.39
  -7  -1  -7   41.49    3.38
   7   1   7   36.38    4.08
   7   1   7   38.15    2.93
  -8  -1  -7   11.52    1.90
  -8  -1  -7    9.26    1.75
   8   1   7   13.37    2.63
   8   1   7    8.73    1.22
  -9  -1  -7   50.47    4.38
   9   1   7   50.56    5.07
   9   1   7   49.53    3.77
 -10  -1  -7   14.28    2.41
  10   1   7   16.37    4.26
  10   1   7   13.24    1.65
 -11  -1  -7   17.84    2.63
  11   1   7   19.17    3.27
 -12  -1  -7   45.26    4.64
  12   1   7   45.97    5.14
  12   1   7   48.06    3.89
 -13  -1  -7    2.95    1.43
  13   1   7    2.26    0.89
  13   1   7    1.53    1.65
 -14  -1  -7   14.76    2.91
  14   1   7   10.61    2.63
  14   1   7   15.88    2.08
 -15  -1  -7    8.85    2.27
  15   1   7    6.64    2.23
  11  -2  -7   21.51    2.86
 -11   2   7   20.11    5.55
  10  -2  -7    3.14    1.23
 -10   2   7    0.78    2.64
 -10   2   7    0.05    1.08
   9  -2  -7   45.32    4.11
  -9   2   7   57.23    6.07
  -9   2   7   44.61    3.60
   8  -2  -7   36.46    3.46
  -8   2   7   36.03    2.95
  -8   2   7   47.59    5.12
   7  -2  -7   27.31    2.69
  -7   2   7   24.49    2.11
  -7   2   7   26.17    3.85
   6  -2  -7   27.79    2.59
  -6   2   7   27.61    3.71
  -6   2   7   26.13    2.06
   5  -2  -7   58.05    4.26
   5  -2  -7   47.42    3.60
  -5   2   7   64.91    5.44
  -5   2   7   54.86    3.58
   4  -2  -7    4.40    1.04
   4  -2  -7    5.45    0.62
  -4   2   7    5.23    1.72
  -4   2   7    4.47    0.60
   3  -2  -7   88.74    6.08
   3  -2  -7  110.14    6.11
   3  -2  -7  106.19    6.83
  -3   2   7   98.50    7.68
   2  -2  -7  147.76    8.33
   2  -2  -7  143.52    9.01
   2  -2  -7  122.81    8.28
  -2   2   7  144.97    9.94
   1  -2  -7   10.91    0.79
   1  -2  -7    7.76    0.69
   1  -2  -7   10.43    1.25
  -1   2   7    9.88    1.80
   0  -2  -7  173.07   10.73
   0  -2  -7  173.27   10.22
   0  -2  -7  169.72   10.17
   0   2   7  161.95   11.52
  -1  -2  -7  126.45    8.25
  -1  -2  -7  140.61    8.71
   1   2   7  144.37    8.31
   1   2   7  127.56    9.45
  -2  -2  -7   27.42    2.24
  -2  -2  -7   21.90    1.86
   2   2   7   23.60    2.73
  -3  -2  -7   85.48    5.50
  -3  -2  -7   83.82    5.78
   3   2   7   80.95    6.54
  -4  -2  -7   57.62    4.30
  -4  -2  -7   61.32    4.12
   4   2   7   52.80    5.02
  -5  -2  -7   50.34    3.94
  -5  -2  -7   54.36    3.86
   5   2   7   46.46    4.60
  -6  -2  -7  158.45   10.53
  -6  -2  -7  166.00   10.70
   6   2   7  165.98   11.63
  -7  -2  -7    0.17    0.67
  -7  -2  -7   -0.19    0.54
   7   2   7   -1.00    0.72
   7   2   7   -0.48    0.26
  -8  -2  -7   75.94    6.29
  -8  -2  -7   94.19    6.47
   8   2   7   95.38    7.27
   8   2   7   85.13    5.93
  -9  -2  -7   58.61    5.10
   9   2   7   70.25    6.00
   9   2   7   65.98    4.73
 -10  -2  -7    3.37    1.30
  10   2   7    4.23    1.66
  10   2   7    3.28    0.97
 -11  -2  -7   39.03    3.94
  11   2   7   40.48    5.93
  11   2   7   37.72    3.32
 -12  -2  -7   27.10    3.41
  12   2   7   28.01    3.87
  12   2   7   30.93    2.89
 -13  -2  -7    3.27    1.44
  13   2   7    3.42    1.08
  13   2   7    1.14    1.68
 -14  -2  -7   23.30    3.70
  14   2   7   27.07    2.82
 -15  -2  -7    2.85    1.65
  15   2   7    6.19    1.47
  15   2   7    1.70    1.80
  11  -3  -7   31.56    3.39
 -11   3   7   34.43    5.66
  10  -3  -7    1.76    0.93
 -10   3   7   -4.38    2.10
   9  -3  -7   48.99    3.97
  -9   3   7   45.80    5.58
  -9   3   7   37.18    3.26
   8  -3  -7   20.04    2.29
  -8   3   7   16.25    1.78
  -8   3   7   25.35    4.01
   7  -3  -7    8.01    1.54
  -7   3   7    4.80    0.81
  -7   3   7    5.42    2.21
   6  -3  -7  106.29    7.00
   6  -3  -7  115.23    7.61
  -6   3   7   99.25    6.78
  -6   3   7  129.27    9.30
   5  -3  -7  116.30    7.90
  -5   3   7  122.16    9.00
  -5   3   7  101.61    6.74
   4  -3  -7    0.88    0.65
  -4   3   7    0.51    1.02
   3  -3  -7   48.31    3.73
  -3   3   7   50.48    4.72
   2  -3  -7    7.93    1.16
  -2   3   7    6.44    1.76
   1  -3  -7   43.49    3.32
  -1   3   7   43.05    4.09
   0  -3  -7  165.44    9.85
   0  -3  -7  137.82    9.11
   0   3   7  160.60   10.73
  -1  -3  -7    5.31    1.09
  -1  -3  -7    6.79    0.68
   1   3   7    6.10    1.49
  -2  -3  -7   36.85    2.49
  -2  -3  -7   32.72    2.82
   2   3   7   32.92    3.42
   2   3   7   36.34    2.56
  -3  -3  -7  290.52   18.27
  -3  -3  -7  309.46   17.87
   3   3   7  284.09   18.95
  -4  -3  -7   22.17    2.26
  -4  -3  -7   22.70    1.96
   4   3   7   22.24    2.75
  -5  -3  -7   23.65    2.13
  -5  -3  -7   23.39    2.32
   5   3   7   18.26    2.55
  -6  -3  -7  121.10    7.81
  -6  -3  -7  106.47    7.48
   6   3   7  107.42    8.33
  -7  -3  -7    8.84    1.74
  -7  -3  -7    7.96    1.43
   7   3   7   10.15    2.22
   7   3   7    9.97    1.25
  -8  -3  -7   51.79    4.38
  -8  -3  -7   54.05    4.31
   8   3   7   49.53    4.83
   8   3   7   51.13    3.89
  -9  -3  -7   79.23    6.28
   9   3   7   86.44    6.95
   9   3   7   86.48    5.95
 -10  -3  -7   14.41    2.35
  10   3   7   13.50    2.42
  10   3   7   13.74    1.77
 -11  -3  -7   53.45    4.87
  11   3   7   54.20    5.22
  11   3   7   57.08    4.44
 -12  -3  -7   18.38    2.97
  12   3   7   19.27    4.86
  12   3   7   17.65    2.20
 -13  -3  -7   16.15    3.02
  13   3   7   21.23    2.42
 -14  -3  -7   47.66    4.83
  14   3   7   37.41    4.45
 -15  -3  -7    2.14    1.55
  15   3   7    3.19    1.23
  11  -4  -7   43.07    4.06
 -11   4   7   46.67    7.04
  10  -4  -7    7.27    2.62
  10  -4  -7    7.76    1.80
 -10   4   7    3.38    2.93
   9  -4  -7   19.30    3.34
  -9   4   7   11.52    3.21
  -9   4   7   14.66    1.69
   8  -4  -7   57.19    4.61
   8  -4  -7   55.58    5.56
  -8   4   7   62.32    6.59
   7  -4  -7   11.93    2.48
   7  -4  -7   11.68    1.58
  -7   4   7   13.98    3.24
  -7   4   7   10.12    1.10
   6  -4  -7  133.06    9.65
   6  -4  -7  129.31    8.63
  -6   4   7  152.78   10.76
  -6   4   7  111.82    7.76
   5  -4  -7   30.97    3.59
   5  -4  -7   32.60    2.90
  -5   4   7   33.26    4.16
   4  -4  -7   25.31    2.41
   4  -4  -7   26.22    3.06
  -4   4   7   29.08    3.52
   3  -4  -7   89.50    6.11
   3  -4  -7   85.09    6.77
  -3   4   7   92.86    7.33
   2  -4  -7   21.01    2.02
  -2   4   7   21.08    2.84
   1  -4  -7   23.44    2.16
  -1   4   7   22.83    2.81
   0  -4  -7  143.59    8.97
   0   4   7  130.77    9.77
  -1  -4  -7   25.51    1.82
  -1  -4  -7   27.96    2.42
   1   4   7   27.31    3.04
  -2  -4  -7  203.68   13.01
  -2  -4  -7  190.14   12.38
   2   4   7  196.68   13.64
   2   4   7  229.30   12.60
  -3  -4  -7  106.97    6.66
  -3  -4  -7  104.71    7.19
   3   4   7  101.71    7.68
  -4  -4  -7    5.49    1.21
  -4  -4  -7    6.43    0.95
   4   4   7    4.05    1.37
  -5  -4  -7   81.63    5.96
  -5  -4  -7   84.77    5.61
   5   4   7   77.74    6.38
  -6  -4  -7  118.87    7.80
  -6  -4  -7  108.81    7.40
   6   4   7  102.23    8.09
  -7  -4  -7   30.55    2.85
  -7  -4  -7   32.89    3.15
   7   4   7   31.41    2.62
   7   4   7   27.69    3.24
  -8  -4  -7   59.91    4.94
  -8  -4  -7   66.02    5.14
   8   4   7   59.38    5.33
   8   4   7   61.96    4.56
  -9  -4  -7   69.14    5.48
   9   4   7   68.05    5.78
   9   4   7   65.01    4.96
 -10  -4  -7    9.15    1.86
  10   4   7    9.21    1.53
  10   4   7    9.61    2.01
 -11  -4  -7   45.36    4.35
  11   4   7   46.84    3.89
  11   4   7   41.76    4.41
 -12  -4  -7    6.41    1.75
  12   4   7   10.65    1.67
  12   4   7    5.29    1.83
 -13  -4  -7   12.69    2.49
  13   4   7   15.06    2.30
  13   4   7   15.93    3.07
 -14  -4  -7   30.68    3.96
  14   4   7   34.38    3.50
  15   4   7    0.10    0.94
  11  -5  -7    7.75    1.70
  11  -5  -7    3.50    2.31
 -11   5   7    5.95    3.44
  10  -5  -7   12.34    2.48
  10  -5  -7    9.60    2.75
 -10   5   7    6.05    3.46
   9  -5  -7   54.90    5.80
   9  -5  -7   54.08    4.62
  -9   5   7   71.66    7.50
   8  -5  -7   11.86    2.82
   8  -5  -7   11.98    1.73
  -8   5   7   10.49    3.44
  -8   5   7    7.47    1.23
   7  -5  -7   14.37    1.83
   7  -5  -7   19.15    3.16
  -7   5   7   11.18    1.13
  -7   5   7   14.26    3.32
   6  -5  -7   65.54    4.75
   6  -5  -7   65.84    5.82
  -6   5   7   53.21    3.84
  -6   5   7   76.84    6.82
   5  -5  -7    1.50    0.74
   5  -5  -7    1.32    1.45
  -5   5   7    0.93    1.61
   4  -5  -7   72.18    5.17
   4  -5  -7   69.34    6.02
  -4   5   7   73.85    6.67
   3  -5  -7   77.56    5.51
   3  -5  -7   75.46    6.29
  -3   5   7   83.08    6.92
   2  -5  -7    2.48    0.78
   2  -5  -7    0.76    0.77
  -2   5   7    2.10    1.20
   1  -5  -7   54.06    3.98
   1  -5  -7   50.79    4.53
  -1   5   7   51.41    4.88
   0  -5  -7   82.81    5.71
   0   5   7   82.19    5.02
   0   5   7   78.03    6.52
  -1  -5  -7    5.81    0.68
  -1  -5  -7    4.71    1.14
   1   5   7    6.52    0.79
   1   5   7    7.13    1.84
  -2  -5  -7  194.15   12.04
  -2  -5  -7  197.16   12.72
   2   5   7  204.57   13.44
  -3  -5  -7   25.98    2.10
  -3  -5  -7   26.56    2.62
   3   5   7   27.37    2.94
  -4  -5  -7   16.67    2.10
  -4  -5  -7   19.35    1.73
   4   5   7   17.37    2.33
  -5  -5  -7  125.45    7.99
  -5  -5  -7  118.89    8.42
   5   5   7  121.46    8.77
  -6  -5  -7   19.34    2.00
  -6  -5  -7   18.80    2.17
   6   5   7   17.09    1.74
   6   5   7   18.23    2.44
  -7  -5  -7   17.96    2.10
  -7  -5  -7   18.26    2.37
   7   5   7   16.95    2.37
   7   5   7   17.09    1.85
  -8  -5  -7  223.09   16.01
  -8  -5  -7  229.96   16.59
   8   5   7  272.61   16.47
   8   5   7  257.23   15.90
  -9  -5  -7    2.05    1.06
   9   5   7    1.89    1.21
   9   5   7    1.58    0.76
 -10  -5  -7    9.12    1.86
  10   5   7   10.55    2.10
  10   5   7    8.29    1.60
 -11  -5  -7   32.36    3.73
  11   5   7   34.87    3.71
  11   5   7   36.73    3.36
 -12  -5  -7   -2.19    1.23
  12   5   7    0.74    0.79
 -13  -5  -7   28.85    3.74
  13   5   7   25.43    3.25
  13   5   7   32.69    3.31
 -14  -5  -7   23.76    3.73
  14   5   7   32.74    3.48
 -15  -5  -7   -0.17    1.23
  11  -6  -7   -2.13    1.58
  11  -6  -7    0.07    0.73
 -11   6   7   -3.26    2.37
  10  -6  -7   18.60    2.30
  10  -6  -7   13.86    3.34
 -10   6   7   20.68    4.53
   9  -6  -7   77.86    5.89
   9  -6  -7   72.29    7.13
  -9   6   7   88.43    8.85
   8  -6  -7   10.28    2.90
   8  -6  -7    9.09    1.64
  -8   6   7    5.63    0.99
  -8   6   7   13.12    3.65
   7  -6  -7   56.75    5.65
   7  -6  -7   56.80    4.33
  -7   6   7   62.61    6.68
  -7   6   7   47.45    3.52
   6  -6  -7   57.59    5.48
   6  -6  -7   55.72    4.15
  -6   6   7   57.42    6.14
  -6   6   7   44.37    3.25
   5  -6  -7   14.54    2.95
   5  -6  -7   10.80    1.55
  -5   6   7   10.20    3.00
   4  -6  -7   58.23    4.65
   4  -6  -7   65.24    5.72
  -4   6   7   69.75    6.35
   3  -6  -7   83.96    7.03
   3  -6  -7   88.09    6.19
  -3   6   7   96.58    7.80
   2  -6  -7   13.92    2.28
   2  -6  -7   12.69    1.62
  -2   6   7   14.01    2.81
   1  -6  -7   93.44    7.23
   1  -6  -7   99.78    6.69
  -1   6   7   94.10    7.71
  -1   6   7   97.73    5.90
  -1   6   7   97.64    5.91
   0  -6  -7   67.53    4.74
   0  -6  -7   66.74    5.24
   0   6   7   61.47    4.12
   0   6   7   56.90    5.44
  -1  -6  -7  123.42    8.06
  -1  -6  -7  120.07    7.26
   1   6   7  116.99    8.79
   1   6   7  109.45    7.59
  -2  -6  -7   79.44    5.73
  -2  -6  -7   98.00    6.56
   2   6   7   97.64    7.16
  -3  -6  -7   48.93    3.62
  -3  -6  -7   48.76    4.18
   3   6   7   61.31    4.85
  -4  -6  -7    7.35    1.55
  -4  -6  -7    9.32    1.21
   4   6   7    7.15    1.69
  -5  -6  -7  100.11    6.57
  -5  -6  -7  104.48    7.18
   5   6   7   88.27    7.17
  -6  -6  -7    6.78    1.59
  -6  -6  -7    5.53    1.13
   6   6   7    6.91    1.13
   6   6   7   10.36    1.79
  -7  -6  -7   39.98    3.42
   7   6   7   37.01    3.71
  -8  -6  -7   98.42    6.99
   8   6   7   97.60    7.32
   8   6   7   91.64    6.64
  -9  -6  -7    0.56    0.81
   9   6   7    0.64    0.97
   9   6   7    0.72    0.52
 -10  -6  -7   17.68    2.59
  10   6   7   22.22    2.67
  10   6   7   21.90    2.40
 -11  -6  -7   41.12    4.36
  11   6   7   41.94    3.88
  11   6   7   38.83    3.65
 -12  -6  -7   -0.04    1.00
  12   6   7   -0.24    0.96
  12   6   7    1.11    0.86
  13   6   7   27.38    3.11
 -14  -6  -7   14.77    3.16
  14   6   7   17.16    2.55
  11  -7  -7   -0.38    0.63
  11  -7  -7   -1.78    1.74
 -11   7   7   -4.46    2.69
  10  -7  -7   43.04    3.90
  10  -7  -7   43.49    6.16
 -10   7   7   52.98    8.77
   9  -7  -7   57.76    6.10
   9  -7  -7   55.86    4.60
   8  -7  -7    0.24    0.65
   8  -7  -7    0.91    1.53
   7  -7  -7   73.46    6.62
   7  -7  -7   66.66    5.13
  -7   7   7   65.44    4.46
   6  -7  -7   52.15    3.96
   6  -7  -7   47.59    5.05
  -6   7   7   42.92    3.13
   5  -7  -7    5.24    1.95
   5  -7  -7    5.51    1.30
  -5   7   7    4.33    0.62
   4  -7  -7  110.41    8.61
   4  -7  -7  102.43    7.31
  -4   7   7  109.46    6.62
   3  -7  -7   51.73    4.78
   3  -7  -7   47.02    3.76
  -3   7   7   47.34    3.08
  -3   7   7   41.16    2.99
  -3   7   7   56.82    5.38
   2  -7  -7   41.27    4.03
   2  -7  -7   34.55    3.13
  -2   7   7   36.95    2.56
  -2   7   7   37.52    4.27
   1  -7  -7   99.18    7.13
   1  -7  -7  104.68    7.89
  -1   7   7  100.06    6.46
  -1   7   7  107.56    8.43
  -1   7   7  108.84    6.51
   0  -7  -7    9.55    1.98
   0  -7  -7   10.24    0.97
   0  -7  -7    8.85    1.46
   0   7   7    8.84    0.98
   0   7   7    7.87    2.06
  -1  -7  -7  118.14    8.81
  -1  -7  -7  128.77    7.80
  -1  -7  -7  129.12    8.63
   1   7   7  124.09    9.38
  -2  -7  -7  141.10    9.89
  -2  -7  -7  154.66    9.22
   2   7   7  143.72   10.51
  -3  -7  -7   12.87    1.95
  -3  -7  -7   12.72    1.39
   3   7   7   12.88    2.17
  -4  -7  -7   57.41    4.17
  -4  -7  -7   56.71    4.77
   4   7   7   60.03    5.06
  -5  -7  -7   29.15    2.52
  -5  -7  -7   28.07    2.91
   5   7   7   30.74    3.15
   5   7   7   24.22    2.34
  -6  -7  -7    9.31    2.24
  -6  -7  -7    6.23    1.24
   6   7   7    8.73    1.82
   6   7   7    8.67    1.39
  -7  -7  -7  128.30   10.25
  -7  -7  -7  148.27   10.54
   7   7   7  163.41   10.68
   7   7   7  166.84   10.09
  -8  -7  -7   33.98    3.22
   8   7   7   28.95    3.28
   8   7   7   32.11    2.93
  -9  -7  -7    0.35    0.83
   9   7   7   -0.46    0.52
   9   7   7    0.75    0.90
 -10  -7  -7   21.22    2.81
  10   7   7   21.74    2.44
  10   7   7   19.84    2.28
 -11  -7  -7   25.15    3.33
  11   7   7   29.78    2.94
  11   7   7   24.32    2.68
 -12  -7  -7    0.08    1.20
  12   7   7    1.17    0.95
 -13  -7  -7   13.25    2.73
  13   7   7   22.19    2.69
 -14  -7  -7   -0.95    1.41
  14   7   7   -0.22    0.89
  11  -8  -7   -0.73    0.80
  10  -8  -7   36.22    4.84
  10  -8  -7   35.39    3.45
   9  -8  -7   30.85    2.99
   8  -8  -7   15.83    2.05
   8  -8  -7   17.68    3.77
   7  -8  -7   90.77    7.91
   7  -8  -7   89.71    6.36
  -7   8   7   83.27    5.79
   6  -8  -7   19.41    3.40
   6  -8  -7   25.05    2.71
  -6   8   7   21.53    1.89
   5  -8  -7    0.48    0.65
   5  -8  -7   -0.82    1.09
  -5   8   7    0.23    0.45
   4  -8  -7   77.62    6.63
   4  -8  -7   71.39    5.25
  -4   8   7   66.92    4.66
   3  -8  -7   32.16    3.83
   3  -8  -7   32.54    2.92
  -3   8   7   31.36    2.42
   2  -8  -7   24.40    2.49
   2  -8  -7   24.95    3.21
  -2   8   7   25.07    2.00
  -2   8   7   23.62    3.42
   1  -8  -7   45.01    4.04
   1  -8  -7   49.44    4.73
  -1   8   7   51.45    5.19
  -1   8   7   58.06    3.64
   0  -8  -7   28.88    2.12
   0  -8  -7   25.24    3.02
   0  -8  -7   23.07    2.67
   0   8   7   25.04    3.35
   0   8   7   31.65    2.37
  -1  -8  -7   63.62    5.44
  -1  -8  -7   73.77    5.81
  -1  -8  -7   76.60    4.79
   1   8   7   72.74    6.25
  -2  -8  -7  102.82    7.34
  -2  -8  -7   93.33    6.49
   2   8   7  106.82    8.02
  -3  -8  -7    0.74    0.83
  -3  -8  -7    1.02    0.64
   3   8   7    0.64    1.06
  -4  -8  -7   57.40    4.94
  -4  -8  -7   61.30    4.41
   4   8   7   64.09    5.35
   4   8   7   57.90    4.39
  -5  -8  -7   49.62    3.84
   5   8   7   46.30    4.33
  -6  -8  -7   15.01    2.46
  -6  -8  -7   24.71    3.48
   6   8   7   16.65    2.40
   6   8   7   19.22    2.03
  -7  -8  -7   53.79    4.26
  -7  -8  -7   51.03    4.54
   7   8   7   47.23    3.91
   7   8   7   46.03    4.34
  -8  -8  -7    6.09    1.46
   8   8   7   10.71    1.90
   8   8   7   10.00    1.57
  -9  -8  -7   11.26    2.09
   9   8   7   13.06    1.83
 -10  -8  -7   63.50    5.75
  10   8   7   66.73    5.84
  10   8   7   70.97    5.42
 -11  -8  -7    6.47    1.96
  11   8   7    7.50    1.63
 -12  -8  -7    4.01    1.65
  12   8   7    5.87    1.55
 -13  -8  -7   19.75    3.51
  13   8   7   25.82    3.09
  10  -9  -7   33.49    3.39
  10  -9  -7   41.27    5.27
   9  -9  -7   20.80    2.48
   9  -9  -7   22.76    4.04
   8  -9  -7   18.43    2.25
   7  -9  -7   54.90    5.93
   7  -9  -7   47.36    4.11
   6  -9  -7    4.87    2.08
   5  -9  -7   14.79    1.95
   5  -9  -7   15.74    3.41
   4  -9  -7   47.56    5.00
   4  -9  -7   39.37    3.54
   3  -9  -7    0.11    0.58
   3  -9  -7    1.95    1.63
   2  -9  -7  111.72    8.56
   2  -9  -7   97.49    7.48
  -2   9   7  115.69    7.15
   1  -9  -7   87.24    8.18
   1  -9  -7   74.73    6.05
  -1   9   7   88.42    5.63
   0  -9  -7    1.26    1.06
   0  -9  -7    3.79    0.75
   0  -9  -7    2.32    1.12
   0   9   7    2.26    0.69
   0   9   7    2.97    1.46
  -1  -9  -7   47.39    3.25
  -1  -9  -7   39.52    3.87
  -1  -9  -7   43.57    4.18
   1   9   7   40.96    4.50
  -2  -9  -7   10.44    2.09
  -2  -9  -7   13.69    2.18
  -2  -9  -7   10.74    1.37
   2   9   7   11.09    2.41
  -3  -9  -7   51.63    3.74
  -3  -9  -7   44.39    4.32
   3   9   7   45.92    4.66
  -4  -9  -7   96.32    6.47
   4   9   7   90.13    7.35
  -5  -9  -7   60.56    4.50
  -5  -9  -7   43.08    4.44
   5   9   7   46.80    4.58
   5   9   7   50.71    4.01
  -6  -9  -7   44.04    4.20
  -6  -9  -7   47.61    3.82
   6   9   7   44.84    4.20
   6   9   7   38.95    3.55
  -7  -9  -7   44.88    4.04
   7   9   7   49.02    4.26
   7   9   7   46.13    3.91
  -8  -9  -7    2.93    1.10
   8   9   7    3.33    1.16
   8   9   7    4.98    1.25
  -9  -9  -7   10.26    2.07
   9   9   7   11.51    1.83
 -10  -9  -7   14.10    3.62
 -11  -9  -7   -1.55    0.87
  11   9   7    1.09    0.96
 -12  -9  -7   39.10    4.82
  12   9   7   42.63    4.10
 -13  -9  -7   12.25    2.98
  13   9   7   17.54    2.62
  10 -10  -7   12.07    3.29
  10 -10  -7   21.08    2.38
   9 -10  -7    4.89    2.62
   8 -10  -7   25.09    2.78
   8 -10  -7   30.80    4.38
   7 -10  -7   21.55    2.41
   7 -10  -7   20.57    4.79
  -7  10   7   22.29    2.17
  -6  10   7   -0.24    0.51
   5 -10  -7   52.37    5.49
   5 -10  -7   46.42    3.94
  -5  10   7   46.00    3.62
   4 -10  -7   46.13    4.88
   4 -10  -7   36.10    3.42
  -4  10   7   39.18    3.19
   3 -10  -7   -0.24    0.66
   3 -10  -7   -1.25    1.26
  -3  10   7   -0.69    0.52
   2 -10  -7   58.11    5.55
   2 -10  -7   47.43    4.34
  -2  10   7   59.41    4.14
   1 -10  -7    6.79    1.57
   1 -10  -7    8.06    2.26
  -1  10   7    8.69    1.30
   0 -10  -7   78.77    4.92
   0 -10  -7   79.67    7.44
   0 -10  -7   59.16    5.45
   0  10   7   70.23    4.94
   0  10   7   65.68    7.00
  -1 -10  -7  117.14    9.15
  -1 -10  -7  139.11    8.44
  -1 -10  -7  136.97    9.59
   1  10   7  133.39    8.74
   1  10   7  122.01    9.98
  -2 -10  -7   29.48    2.59
  -2 -10  -7   25.60    3.16
  -2 -10  -7   33.95    3.50
   2  10   7   29.67    3.75
  -3 -10  -7   47.25    5.17
  -3 -10  -7   56.18    4.12
   3  10   7   50.89    4.16
   3  10   7   53.74    5.13
  -4 -10  -7  117.98    9.00
   4  10   7  119.39    8.35
   4  10   7  131.72    9.50
  -5 -10  -7   -0.02    0.69
  -5 -10  -7    0.11    1.21
   5  10   7   -0.18    0.87
   5  10   7    0.76    0.78
  -6 -10  -7   67.52    5.19
   6  10   7   64.51    5.62
   6  10   7   65.70    5.14
  -7 -10  -7   63.26    4.95
   7  10   7   61.45    5.12
   7  10   7   58.64    4.86
  -8 -10  -7    3.88    1.41
   8  10   7    5.43    1.36
   8  10   7    5.41    1.34
  -9 -10  -7   38.00    3.93
 -10 -10  -7   23.28    3.32
  10  10   7   26.88    2.98
 -11 -10  -7   -1.17    1.06
 -12 -10  -7   14.55    2.89
  12  10   7   19.61    2.70
   9 -11  -7   -2.71    1.58
   9 -11  -7   -0.64    0.95
   8 -11  -7   43.75    4.03
   8 -11  -7   56.12    6.30
   7 -11  -7   33.02    4.87
   7 -11  -7   28.22    3.03
  -7  11   7   32.07    2.85
   6 -11  -7    1.90    2.85
  -6  11   7    0.77    0.74
   5 -11  -7   53.29    4.56
   5 -11  -7   64.48    6.47
  -5  11   7   59.30    4.44
   4 -11  -7   12.24    2.73
   4 -11  -7   12.16    1.93
  -4  11   7   14.34    1.87
   3 -11  -7    0.52    1.51
   3 -11  -7    1.50    1.01
  -3  11   7    1.98    0.90
   2 -11  -7   35.93    3.75
   2 -11  -7   51.32    5.20
  -2  11   7   50.01    3.74
   1 -11  -7   24.79    3.44
   1 -11  -7   19.33    2.52
  -1  11   7   21.86    2.30
   0 -11  -7   36.30    4.22
   0 -11  -7   34.04    3.78
   0 -11  -7   42.18    3.15
   0  11   7   40.82    3.22
   0  11   7   34.76    4.56
  -1 -11  -7   71.54    4.86
  -1 -11  -7   68.63    5.91
  -1 -11  -7   54.47    5.91
   1  11   7   69.88    6.53
   1  11   7   69.60    4.90
  -2 -11  -7   15.71    2.64
  -2 -11  -7    9.25    2.15
  -2 -11  -7   14.47    1.79
   2  11   7   10.08    2.80
   2  11   7   15.02    1.83
  -3 -11  -7   29.66    2.75
  -3 -11  -7   24.92    3.35
   3  11   7   29.97    2.88
   3  11   7   27.91    3.60
  -4 -11  -7   54.37    4.17
  -4 -11  -7   43.25    4.61
   4  11   7   45.72    4.91
   4  11   7   50.08    4.13
  -5 -11  -7   -0.62    0.79
   5  11   7   -0.68    0.53
  -6 -11  -7   45.23    3.91
   6  11   7   40.37    4.31
   6  11   7   45.85    3.97
  -7 -11  -7   43.81    3.83
   7  11   7   35.36    3.76
   7  11   7   39.49    3.68
   8  11   7    0.02    0.56
  -9 -11  -7   23.65    3.29
   9  11   7   28.31    3.10
 -10 -11  -7   19.26    3.06
  10  11   7   22.51    3.06
 -11 -11  -7    3.51    1.65
  11  11   7    9.59    2.09
   9 -12  -7   -1.78    2.00
   8 -12  -7   12.20    2.39
   8 -12  -7   22.80    4.43
   7 -12  -7   16.86    2.31
   7 -12  -7   25.40    4.45
  -7  12   7   20.14    2.44
   6 -12  -7   17.84    3.98
  -6  12   7   14.93    2.12
   5 -12  -7   28.64    3.04
  -5  12   7   33.40    3.12
   4 -12  -7   -0.67    0.83
   4 -12  -7    1.32    1.69
  -4  12   7    2.43    1.05
   3 -12  -7   21.22    3.98
  -3  12   7   17.10    2.30
   2 -12  -7   39.11    4.51
   2 -12  -7   29.40    3.36
  -2  12   7   34.09    3.13
   1 -12  -7   -0.33    1.44
   1 -12  -7   -0.53    1.01
  -1  12   7   -0.37    0.70
   0 -12  -7   47.55    5.35
   0 -12  -7   56.69    5.49
   0  12   7   60.32    4.81
   0  12   7   52.85    4.37
   0  12   7   58.03    6.12
  -1 -12  -7   60.11    5.67
  -1 -12  -7   69.37    6.14
  -1 -12  -7   71.46    5.02
   1  12   7   69.67    5.25
   1  12   7   67.19    5.06
   1  12   7   73.15    6.84
  -2 -12  -7   -0.24    0.98
  -2 -12  -7   -0.58    1.09
   2  12   7   -0.19    0.56
   2  12   7   -1.54    1.14
   2  12   7   -0.30    0.65
  -3 -12  -7   45.43    3.71
  -3 -12  -7   35.43    4.19
   3  12   7   45.55    3.85
  -4 -12  -7    8.24    1.61
   4  12   7    6.84    2.23
   4  12   7    7.40    1.64
  -5 -12  -7   16.08    2.20
   5  12   7   17.74    2.25
   5  12   7   12.36    2.63
  -6 -12  -7   60.82    4.89
   6  12   7   49.70    5.12
   6  12   7   61.27    4.94
  -7 -12  -7   39.12    4.84
   7  12   7   24.66    3.66
  -8 -12  -7    7.28    1.84
   8  12   7    9.46    1.99
  -9 -12  -7   39.76    4.15
   9  12   7   41.73    4.06
 -10 -12  -7    1.90    1.62
  10  12   7    3.20    1.41
   8 -13  -7   14.29    3.66
   7 -13  -7    6.70    3.07
   6 -13  -7   14.42    3.84
   6 -13  -7   16.01    3.54
  -6  13   7   16.01    2.43
   5 -13  -7   19.03    2.51
   5 -13  -7   18.87    3.80
  -5  13   7   14.74    2.34
   4 -13  -7    0.63    1.01
   4 -13  -7   -1.68    1.21
  -4  13   7   -1.16    0.91
   3 -13  -7   11.52    2.30
   3 -13  -7   11.49    3.12
  -3  13   7    7.92    1.75
   2 -13  -7    9.60    2.67
  -2  13   7    3.67    1.21
   1 -13  -7    4.92    2.10
   1 -13  -7    4.36    1.41
  -1  13   7    2.47    1.05
  -1  13   7    4.81    1.13
   0 -13  -7   49.02    4.92
   0 -13  -7   56.06    5.52
   0  13   7   56.61    6.10
   0  13   7   50.52    4.27
   0  13   7   54.54    4.30
  -1 -13  -7   35.02    3.07
  -1 -13  -7   36.39    4.12
  -1 -13  -7   24.61    3.64
   1  13   7   31.07    4.55
   1  13   7   33.30    3.24
   1  13   7   34.29    3.12
  -2 -13  -7    4.27    1.77
  -2 -13  -7    7.13    1.44
   2  13   7    5.88    2.16
   2  13   7    4.04    1.33
   2  13   7    3.83    1.10
  -3 -13  -7   64.64    4.89
   3  13   7   55.59    4.88
   3  13   7   59.39    6.12
   3  13   7   61.52    4.82
  -4 -13  -7    5.23    1.39
   4  13   7    2.77    2.30
   4  13   7    6.23    1.49
  -5 -13  -7   14.48    2.19
   5  13   7    9.88    2.37
   5  13   7   12.38    2.25
  -6 -13  -7   38.81    4.13
   6  13   7   35.38    4.08
  -7 -13  -7    0.69    1.21
   7  13   7   -0.27    1.42
  -8 -13  -7   19.96    2.94
   8  13   7   19.83    2.77
  -9 -13  -7   44.64    4.44
   9  13   7   39.97    4.27
   7 -14  -7   -2.22    1.91
   6 -14  -7   32.66    5.17
  -6  14   7   32.65    3.61
   5 -14  -7   26.69    4.46
  -5  14   7   26.95    3.18
   4 -14  -7    1.55    2.07
  -4  14   7    0.54    1.00
   3 -14  -7   28.62    4.40
   3 -14  -7   21.95    3.52
  -3  14   7   24.14    3.10
  -3  14   7   29.04    2.60
   2 -14  -7    2.24    1.39
  -2  14   7    3.08    1.02
  -2  14   7    1.13    1.00
   1 -14  -7    4.27    1.81
   1 -14  -7    3.97    1.99
  -1  14   7    4.43    1.27
  -1  14   7    4.71    1.30
   0 -14  -7   23.16    3.33
   0 -14  -7   28.22    4.06
   0  14   7   30.52    2.87
   0  14   7   27.46    4.44
   0  14   7   24.43    2.75
  -1 -14  -7    2.10    1.57
   1  14   7    2.40    1.02
   1  14   7    2.99    1.20
   1  14   7    2.36    1.97
  -2 -14  -7   37.17    4.47
  -2 -14  -7   38.90    3.49
   2  14   7   35.33    3.52
   2  14   7   39.41    3.53
   2  14   7   36.73    4.95
  -3 -14  -7   51.79    4.27
   3  14   7   39.94    5.38
   3  14   7   48.93    4.23
   3  14   7   47.80    4.37
   4  14   7    3.72    1.31
   4  14   7    0.66    1.89
  -5 -14  -7   33.67    3.43
   5  14   7   29.62    3.72
  -6 -14  -7   34.17    3.73
   6  14   7   37.40    3.81
  -7 -14  -7    1.60    1.33
   7  14   7    0.22    0.89
  -8 -14  -7   26.09    3.40
   8  14   7   23.36    3.24
   5 -15  -7   20.60    4.71
  -5  15   7   17.90    2.86
   4 -15  -7    4.63    2.41
  -4  15   7    2.48    1.31
   3 -15  -7   22.56    4.38
  -3  15   7   16.69    2.68
   2 -15  -7    1.03    1.66
   2 -15  -7   -1.39    1.31
  -2  15   7    0.35    0.93
  -2  15   7   -0.51    0.66
   1 -15  -7   27.37    4.15
  -1  15   7   16.22    3.86
  -1  15   7   24.18    2.59
  -1  15   7   27.68    2.94
   0 -15  -7   37.28    6.07
   0  15   7   40.56    3.76
   0  15   7   33.06    7.22
   0  15   7   39.44    3.57
  -1 -15  -7    5.79    2.41
   1  15   7    4.74    1.32
   1  15   7    8.89    2.86
  -2 -15  -7   24.80    3.78
  -2 -15  -7   28.59    3.09
   2  15   7   27.13    3.02
   2  15   7   27.46    3.01
   2  15   7   17.46    3.92
  -3 -15  -7   29.48    3.18
   3  15   7   24.86    2.95
   3  15   7   28.36    3.13
   3  15   7   24.94    3.91
  -4 -15  -7    0.42    1.10
   4  15   7   -1.06    1.76
   4  15   7    0.73    1.05
  -5 -15  -7   29.96    3.39
   5  15   7   33.79    3.51
   5  15   7   26.26    3.40
  -6 -15  -7    4.41    1.59
   6  15   7    8.28    2.07
   2 -16  -7    0.39    1.75
  -2  16   7   -0.71    0.95
   1 -16  -7    4.18    2.00
  -1  16   7    8.31    3.03
  -1  16   7    5.69    1.45
   0 -16  -7   15.09    3.25
   0  16   7   16.47    2.12
   0  16   7   15.37    2.42
   0  16   7   11.51    3.43
  -1 -16  -7   -2.81    1.44
   1  16   7   -1.39    1.72
   1  16   7   -1.10    0.73
   1  16   7   -0.89    0.81
  -2 -16  -7   12.32    2.90
   2  16   7    9.72    1.85
   2  16   7    7.40    2.50
  -3 -16  -7   15.80    2.40
   3  16   7   17.41    2.43
   3  16   7   11.29    2.98
   3  16   7   13.87    2.22
  -1  10  -8    9.72    2.12
   1 -10   8   10.88    3.45
  -2  10  -8    1.43    1.18
  -3  10  -8   28.09    3.74
   3 -10   8   31.27    4.76
  -4  10  -8   11.65    2.45
   4 -10   8   15.80    3.93
  -5  10  -8   -2.34    0.99
   5 -10   8   -1.75    1.95
  -6  10  -8   15.60    3.00
   6 -10   8   11.72    3.24
   2   9  -8   12.62    2.25
   1   9  -8   -0.33    1.10
   1   9  -8   -0.16    0.67
   0   9  -8   29.71    3.42
   0   9  -8   27.47    2.62
   0  -9   8   24.43    4.35
  -1   9  -8   23.21    3.12
   1  -9   8   21.33    3.79
  -2   9  -8    1.00    1.15
   2  -9   8   -1.91    1.77
  -3   9  -8   35.34    4.03
   3  -9   8   36.82    5.05
  -4   9  -8    5.72    1.66
   4  -9   8    7.98    4.05
  -5   9  -8    3.41    1.48
   5  -9   8    3.48    2.13
  -6   9  -8   27.13    3.63
   6  -9   8   29.97    4.83
  -7   9  -8    3.05    1.68
   7  -9   8    3.36    2.48
  -8   9  -8   19.47    3.40
   8  -9   8   12.51    3.42
  -9   9  -8   39.25    5.00
   9  -9   8   52.20    6.66
   4   8  -8   -0.50    0.86
   4   8  -8   -0.90    1.08
   3   8  -8   29.79    3.48
   3   8  -8   31.87    3.19
   2   8  -8    6.94    1.71
   2   8  -8   11.89    1.72
   1   8  -8    3.62    1.13
   1   8  -8    2.19    1.10
  -1  -8   8    1.32    2.10
   0   8  -8   59.60    5.21
   0   8  -8   61.91    4.56
   0  -8   8   57.03    6.04
  -1   8  -8    9.25    1.42
  -1   8  -8    6.77    1.83
   1  -8   8   10.37    3.04
  -2   8  -8   10.68    1.46
   2  -8   8   18.85    3.63
  -3   8  -8   47.51    4.08
  -3   8  -8   66.55    6.24
   3  -8   8   63.40    6.26
  -4   8  -8    5.12    1.52
   4  -8   8   10.04    2.97
  -5   8  -8    7.23    1.79
   5  -8   8    6.79    2.43
  -6   8  -8   22.74    3.26
   6  -8   8   37.99    5.49
  -7   8  -8    0.05    1.03
   7  -8   8    1.09    2.05
  -8   8  -8   20.63    3.17
  -9   8  -8   14.97    2.88
   9  -8   8   12.43    3.24
 -10   8  -8    0.27    1.27
  10  -8   8   -0.25    2.10
   5   7  -8    5.16    1.65
   5   7  -8    7.07    1.75
   4   7  -8   13.22    2.03
   4   7  -8    8.91    2.07
   3   7  -8   34.99    3.44
   2   7  -8   19.72    2.23
   2   7  -8   14.99    2.38
  -2  -7   8   11.84    2.76
   1   7  -8    2.04    1.08
   1   7  -8    3.50    1.01
  -1  -7   8    4.11    2.28
   0   7  -8   44.04    4.03
   0   7  -8   45.70    3.63
   0  -7   8   45.71    5.04
  -1   7  -8    5.95    1.39
   1  -7   8    6.42    2.40
  -2   7  -8   28.32    2.60
  -2   7  -8   36.11    3.49
   2  -7   8   33.02    4.33
  -3   7  -8   34.54    3.67
  -3   7  -8   35.62    2.78
   3  -7   8   33.84    4.50
  -4   7  -8    1.18    1.78
  -4   7  -8    3.60    0.98
   4  -7   8    5.26    2.29
  -5   7  -8   13.21    2.36
   5  -7   8   13.20    2.96
  -6   7  -8   37.40    4.17
   6  -7   8   41.32    5.37
  -7   7  -8    0.37    1.51
  -8   7  -8   29.32    3.82
   8  -7   8   34.27    5.04
  -9   7  -8    6.91    2.26
   9  -7   8    4.55    2.62
 -10   7  -8    6.81    2.19
  10  -7   8   11.32    3.76
 -11   7  -8   34.46    4.39
  11  -7   8   37.80    5.83
 -12   7  -8    5.95    2.08
  12  -7   8   -1.80    2.26
   6   6  -8   41.71    4.05
   6   6  -8   37.72    3.87
   5   6  -8    6.16    1.63
   5   6  -8    5.82    1.59
   4   6  -8   22.58    2.75
   3   6  -8   43.59    3.95
   3   6  -8   45.52    3.89
  -3  -6   8   43.42    4.73
   2   6  -8    5.34    1.31
   2   6  -8    4.70    1.31
  -2  -6   8    2.37    1.70
   1   6  -8   24.98    2.41
   1   6  -8   20.29    2.57
  -1  -6   8   24.38    3.52
   0   6  -8   29.54    2.63
   0   6  -8   26.18    2.91
   0  -6   8   29.01    4.03
  -1   6  -8    1.85    0.76
  -1   6  -8    1.40    0.99
   1  -6   8    3.00    1.84
  -2   6  -8   38.52    3.11
  -2   6  -8   39.73    3.75
   2  -6   8   42.25    4.72
  -3   6  -8   29.73    2.56
  -3   6  -8   29.43    3.25
   3  -6   8   37.68    4.39
  -4   6  -8    0.88    0.94
  -4   6  -8    0.76    0.54
   4  -6   8    1.64    1.61
  -5   6  -8   46.37    4.08
  -5   6  -8   39.30    2.93
  -6   6  -8   15.05    2.42
   6  -6   8   16.11    3.83
  -7   6  -8    2.92    1.45
   7  -6   8    7.25    2.61
  -8   6  -8   42.28    4.47
   8  -6   8   57.02    6.31
  -9   6  -8    3.62    1.69
   9  -6   8    4.09    2.23
 -10   6  -8   21.77    3.57
  10  -6   8   23.10    4.16
 -11   6  -8   46.00    5.05
  11  -6   8   53.78    6.65
 -12   6  -8    2.00    1.61
  12  -6   8   -0.96    2.38
   7   5  -8    7.07    1.82
   7   5  -8    2.45    2.28
   6   5  -8   49.51    4.55
   6   5  -8   49.62    4.39
  -6  -5   8   53.18    4.36
   5   5  -8   -1.51    0.73
   5   5  -8   -0.64    0.63
   4   5  -8   19.12    2.37
   4   5  -8   19.66    2.42
  -4  -5   8   19.09    3.01
   3   5  -8   41.73    3.63
   3   5  -8   42.95    3.70
  -3  -5   8   38.65    4.28
   2   5  -8    1.97    0.93
   2   5  -8    3.37    1.00
  -2  -5   8    1.05    1.60
   1   5  -8   91.55    6.74
   1   5  -8   94.33    6.59
  -1  -5   8   97.45    7.78
   0   5  -8   59.18    4.86
   0  -5   8   68.41    6.02
  -1   5  -8    0.64    0.85
  -1   5  -8    0.42    0.56
  -2   5  -8   49.41    4.10
  -2   5  -8   46.68    3.62
   2  -5   8   51.19    5.22
  -3   5  -8    3.12    0.80
  -3   5  -8    1.62    0.93
   3  -5   8    4.95    2.04
  -4   5  -8    3.60    0.85
  -4   5  -8    5.48    1.44
   4  -5   8    4.86    2.08
  -5   5  -8   59.14    5.50
  -5   5  -8   81.20    6.01
   5  -5   8   92.69    7.62
  -6   5  -8    0.39    0.38
  -6   5  -8    0.02    0.94
   6  -5   8   -0.04    1.61
  -7   5  -8   64.09    5.53
   7  -5   8   64.84    4.16
   7  -5   8   81.23    7.34
  -8   5  -8   36.94    4.03
   8  -5   8   44.69    5.41
  -9   5  -8    2.79    1.42
   9  -5   8    1.94    1.73
 -10   5  -8   27.51    4.52
  10  -5   8   37.36    6.07
 -11   5  -8   42.34    4.80
  11  -5   8   53.15    6.13
 -12   5  -8   -0.97    1.08
  12  -5   8   -2.88    1.87
 -13   5  -8   27.88    4.02
  13  -5   8   32.03    5.37
   8   4  -8   -1.62    0.98
   8   4  -8   -0.19    0.88
  -8  -4   8   -0.09    0.93
   7   4  -8   24.60    2.95
   7   4  -8   23.97    2.89
  -7  -4   8   24.54    2.74
   6   4  -8   25.75    2.97
   6   4  -8   26.70    2.91
  -6  -4   8   27.72    2.79
   5   4  -8    0.49    0.83
   5   4  -8    0.85    0.85
  -5  -4   8   -0.52    1.37
  -5  -4   8    0.25    0.71
   4   4  -8   45.65    3.97
   4   4  -8   48.32    3.85
  -4  -4   8   43.51    4.48
   3   4  -8   24.27    2.53
   3   4  -8   25.30    2.59
  -3  -4   8   23.32    3.35
   2   4  -8   13.13    1.83
   2   4  -8   14.37    1.88
  -2  -4   8   15.91    2.98
   1   4  -8  122.33    8.08
  -1  -4   8  117.28    9.13
   0   4  -8   16.41    1.75
   0   4  -8   17.09    2.00
   0  -4   8   12.18    2.55
  -1   4  -8    0.61    0.69
  -1   4  -8    2.75    0.81
   1  -4   8   -0.61    1.15
  -2   4  -8   66.70    6.53
  -2   4  -8   77.74    5.15
   2  -4   8   72.07    6.63
  -3   4  -8   11.96    1.44
   3  -4   8   14.03    3.33
  -4   4  -8   35.99    3.02
  -4   4  -8   38.77    3.60
   4  -4   8   47.56    4.94
  -5   4  -8   76.79    5.66
  -5   4  -8   68.59    5.21
  -6   4  -8    0.01    0.46
  -6   4  -8   -0.07    0.82
   6  -4   8   -0.32    1.13
  -7   4  -8   32.56    3.52
  -7   4  -8   29.42    2.37
   7  -4   8   41.59    4.92
  -8   4  -8   31.94    3.61
   8  -4   8   35.31    2.42
   8  -4   8   41.69    4.92
  -9   4  -8    0.72    1.00
   9  -4   8    2.39    1.93
   9  -4   8    1.03    0.35
 -10   4  -8   47.95    4.75
  10  -4   8   52.98    6.02
 -11   4  -8   25.81    3.35
  11  -4   8   28.66    6.39
 -12   4  -8   -0.69    1.06
  12  -4   8    0.93    2.02
 -13   4  -8   31.34    4.05
  13  -4   8   34.65    5.22
 -14   4  -8   -0.69    1.14
  14  -4   8   -1.72    1.93
   9   3  -8    9.04    2.05
   9   3  -8    4.29    1.57
  -9  -3   8    7.94    1.49
   8   3  -8    1.93    1.20
   8   3  -8   -0.96    0.95
  -8  -3   8    1.88    1.00
   7   3  -8   66.68    5.57
   7   3  -8   70.29    5.27
  -7  -3   8   65.85    5.10
   6   3  -8    8.96    1.52
  -6  -3   8    6.38    2.02
  -6  -3   8    7.89    1.39
   5   3  -8    7.10    1.56
   5   3  -8    6.57    1.29
  -5  -3   8    2.70    1.72
  -5  -3   8    7.46    1.31
   4   3  -8   92.93    6.15
   4   3  -8   82.78    6.34
  -4  -3   8   85.29    6.99
   3   3  -8   43.15    3.39
   3   3  -8   39.07    3.50
  -3  -3   8   42.21    4.39
   2   3  -8   29.74    2.70
   2   3  -8   29.45    2.60
  -2  -3   8   26.77    3.52
   1   3  -8   56.93    4.49
   1   3  -8   49.47    3.93
  -1  -3   8   50.25    5.05
   0   3  -8    0.37    0.64
   0   3  -8    0.23    0.57
   0  -3   8   -1.59    1.08
  -1   3  -8  108.48    7.08
   1  -3   8  103.10    8.42
  -2   3  -8   75.86    5.65
  -2   3  -8   86.12    5.50
   2  -3   8   74.06    6.83
  -3   3  -8    5.56    1.24
  -3   3  -8    8.75    1.23
   3  -3   8    7.21    2.38
  -4   3  -8   57.30    4.04
  -4   3  -8   51.85    4.32
  -5   3  -8   56.44    4.33
   5  -3   8   72.79    6.50
  -6   3  -8   38.80    3.75
  -6   3  -8   30.13    3.32
   6  -3   8   40.54    4.62
  -7   3  -8   58.18    5.23
   7  -3   8   81.32    7.07
  -8   3  -8   19.61    2.87
   8  -3   8   15.95    1.88
   8  -3   8   26.42    3.83
  -9   3  -8   13.94    2.53
   9  -3   8   12.83    3.09
 -10   3  -8   80.11    6.95
  10  -3   8   97.97    8.50
 -11   3  -8   22.82    3.34
  11  -3   8   22.59    1.92
  11  -3   8   23.96    4.18
 -12   3  -8    9.36    2.35
  12  -3   8   10.36    3.30
 -13   3  -8   35.31    4.35
  13  -3   8   35.52    5.07
 -14   3  -8    0.32    1.51
  14  -3   8   -2.14    1.81
   9   2  -8    4.74    1.61
  -9  -2   8    3.84    1.16
   8   2  -8   18.88    2.55
   8   2  -8   19.54    2.62
  -8  -2   8   21.67    2.45
   7   2  -8   55.88    4.79
   7   2  -8   63.45    4.50
  -7  -2   8   48.39    5.79
  -7  -2   8   55.04    4.28
   6   2  -8    7.61    1.62
   6   2  -8    5.59    1.23
  -6  -2   8    4.78    1.90
  -6  -2   8    6.50    1.18
   5   2  -8   14.79    1.97
   5   2  -8   16.51    1.85
  -5  -2   8    9.14    2.20
  -5  -2   8   14.41    1.73
   4   2  -8   99.35    7.23
   4   2  -8  110.55    6.95
  -4  -2   8   97.86    7.88
   3   2  -8   16.10    1.94
   3   2  -8   16.05    1.77
  -3  -2   8   15.74    2.76
   2   2  -8   55.87    4.09
   2   2  -8   59.55    4.35
  -2  -2   8   54.68    5.21
   1   2  -8   95.98    6.64
   1   2  -8   99.64    6.50
  -1  -2   8   96.21    7.70
   0   2  -8    1.82    0.70
   0   2  -8    0.75    0.58
   0  -2   8    1.06    1.10
  -1   2  -8   88.62    5.75
  -1   2  -8   78.69    5.70
   1  -2   8   82.52    7.01
  -2   2  -8  108.96    6.84
  -2   2  -8   96.12    6.85
   2  -2   8  100.50    8.18
  -3   2  -8    0.72    0.63
  -3   2  -8    0.70    0.58
   3  -2   8    0.56    1.33
  -4   2  -8   87.00    6.35
  -4   2  -8   92.88    6.19
   4  -2   8   93.84    7.83
  -5   2  -8    2.21    0.80
  -5   2  -8    3.16    1.20
   5  -2   8    3.71    1.68
  -6   2  -8   13.64    2.05
  -6   2  -8   16.34    1.75
   6  -2   8   18.54    3.22
  -7   2  -8  144.08   10.30
   7  -2   8  164.19   11.94
  -8   2  -8    2.70    1.31
  -8   2  -8    2.98    0.93
   8  -2   8    2.06    0.63
   8  -2   8    2.20    1.80
  -9   2  -8   57.60    5.23
   9  -2   8   59.18    4.17
   9  -2   8   69.49    6.58
 -10   2  -8   44.23    4.46
  10  -2   8   44.75    5.38
  10  -2   8   46.74    3.33
 -11   2  -8    3.16    1.56
  11  -2   8    5.49    2.45
  11  -2   8    4.19    0.84
 -12   2  -8   17.57    3.12
  12  -2   8   17.08    1.77
  12  -2   8   18.03    3.77
 -13   2  -8   24.79    3.53
  13  -2   8   28.58    4.36
  13  -2   8   22.45    2.27
 -14   2  -8   -0.66    1.16
  14  -2   8   -1.51    1.58
  10   1  -8   25.97    3.18
   9   1  -8    5.41    1.56
  -9  -1   8    4.71    1.23
   8   1  -8   33.95    3.45
   7   1  -8   57.87    4.14
  -7  -1   8   54.20    4.03
  -7  -1   8   44.85    5.21
   6   1  -8    0.30    0.69
   6   1  -8    0.16    0.69
  -6  -1   8   -0.43    0.57
   5   1  -8   31.11    2.99
   5   1  -8   37.05    2.75
  -5  -1   8   27.55    3.73
  -5  -1   8   33.27    2.67
   4   1  -8   95.52    6.97
   4   1  -8  103.75    6.56
  -4  -1   8   98.70    7.83
   3   1  -8    2.21    0.68
   3   1  -8    0.74    0.65
  -3  -1   8   -1.23    1.11
   2   1  -8   44.34    3.23
  -2  -1   8   43.97    4.38
   1   1  -8   91.46    6.11
   1   1  -8   87.74    5.81
  -1  -1   8   84.06    7.00
   0   1  -8   17.52    1.71
   0   1  -8   18.33    1.81
   0  -1   8   14.24    2.51
  -1   1  -8   74.16    5.02
  -1   1  -8   70.57    4.90
   1  -1   8   68.69    6.11
  -2   1  -8   62.52    4.40
  -2   1  -8   58.75    4.35
   2  -1   8   63.03    5.70
  -3   1  -8   19.06    2.02
  -3   1  -8   20.25    1.95
   3  -1   8   23.95    3.32
  -4   1  -8  108.07    7.09
  -4   1  -8  102.60    7.17
   4  -1   8  106.84    8.63
  -5   1  -8    1.59    0.73
  -5   1  -8    2.01    0.94
   5  -1   8    1.26    1.52
  -6   1  -8   44.29    3.82
  -6   1  -8   47.82    3.57
   6  -1   8   38.46    4.77
  -7   1  -8   97.97    7.61
  -8   1  -8    0.03    0.86
  -8   1  -8    0.48    0.74
   8  -1   8    0.14    1.39
   8  -1   8    0.12    0.41
  -9   1  -8   77.01    6.28
   9  -1   8   88.54    7.63
   9  -1   8   78.85    5.42
 -10   1  -8   60.32    5.20
  10  -1   8   59.41    6.08
  10  -1   8   55.90    4.13
 -11   1  -8    5.78    1.84
  11  -1   8    4.38    2.02
  11  -1   8    7.26    1.20
 -12   1  -8   48.10    5.17
  12  -1   8   37.28    3.15
  12  -1   8   35.77    4.87
 -13   1  -8   46.61    4.83
  13  -1   8   45.20    5.66
  13  -1   8   44.57    3.61
 -14   1  -8   -0.49    1.36
  14  -1   8    1.49    0.90
  14  -1   8   -0.06    1.81
 -15   1  -8   29.25    4.07
  15  -1   8   29.89    4.85
  10   0  -8   21.82    2.90
   9   0  -8   -1.05    0.64
   8   0  -8   31.92    3.22
  -8   0   8   29.77    4.48
  -8   0   8   32.06    2.75
   7   0  -8   36.78    3.46
  -7   0   8   38.76    2.97
  -7   0   8   34.82    4.41
   6   0  -8    1.79    0.84
   6   0  -8    0.52    0.61
  -6   0   8    1.42    1.60
  -6   0   8    2.00    0.65
   5   0  -8   46.58    3.38
   5   0  -8   42.95    3.84
  -5   0   8   49.46    3.39
  -5   0   8   49.73    4.85
   4   0  -8   35.71    2.63
   4   0  -8   34.08    3.10
  -4   0   8   34.98    3.91
   3   0  -8   10.23    1.45
  -3   0   8    5.86    1.84
   2   0  -8  111.34    6.98
   2   0  -8  106.38    7.40
  -2   0   8  114.15    8.43
   1   0  -8   53.50    3.78
   1   0  -8   58.71    4.17
  -1   0   8   56.42    5.06
   0   0  -8   14.52    1.46
   0   0  -8   15.52    1.65
   0   0   8   16.78    2.54
  -1   0  -8  108.83    7.28
  -1   0  -8  113.69    7.29
   1   0   8  106.25    8.35
  -2   0  -8    0.56    0.53
  -2   0  -8    0.98    0.51
   2   0   8    0.93    0.92
  -3   0  -8   87.10    5.94
  -3   0  -8   89.63    6.03
   3   0   8   86.83    7.25
  -4   0  -8   34.96    2.97
  -4   0  -8   37.04    3.00
   4   0   8   33.97    4.11
  -5   0  -8    4.31    1.05
  -5   0  -8    4.81    1.14
   5   0   8    7.64    2.20
  -6   0  -8  141.25    9.10
  -6   0  -8  118.88    8.81
   6   0   8  147.84   10.59
  -7   0  -8  133.03    9.52
   7   0   8  151.68   11.07
  -8   0  -8   12.39    2.24
  -8   0  -8   19.66    2.17
   8   0   8   13.33    2.95
   8   0   8   14.42    1.59
  -9   0  -8   96.53    6.82
  -9   0  -8   91.79    7.04
   9   0   8   93.42    6.33
   9   0   8   94.57    8.13
 -10   0  -8   41.40    4.05
  10   0   8   39.39    3.23
  10   0   8   43.76    4.97
 -11   0  -8    6.52    1.72
  11   0   8    3.73    0.91
  11   0   8    4.39    2.04
 -12   0  -8   31.72    3.80
  12   0   8   38.90    4.71
  12   0   8   33.45    2.98
 -13   0  -8    6.00    1.79
  13   0   8    5.25    1.23
  13   0   8    5.28    2.21
 -14   0  -8    7.25    2.21
  14   0   8    7.25    1.40
 -15   0  -8   34.54    4.32
  15   0   8   30.28    4.62
  15   0   8   32.38    3.19
  10  -1  -8   13.77    2.25
   9  -1  -8    5.89    1.48
  -9   1   8    2.20    3.38
   8  -1  -8   31.05    4.33
  -8   1   8   27.91    2.42
  -8   1   8   27.93    4.46
   7  -1  -8   10.96    1.62
  -7   1   8    9.09    1.24
  -7   1   8    8.02    2.38
   6  -1  -8   36.21    2.86
   6  -1  -8   37.76    3.35
  -6   1   8   32.37    4.21
  -6   1   8   36.05    2.65
   5  -1  -8  116.42    7.24
   5  -1  -8  108.62    7.83
  -5   1   8  117.58    8.96
   4  -1  -8   43.49    3.09
   4  -1  -8   47.37    3.76
  -4   1   8   47.88    4.74
   3  -1  -8    9.81    1.51
   3  -1  -8   10.14    0.99
  -3   1   8    7.17    1.78
   2  -1  -8   64.21    4.80
   2  -1  -8   82.61    5.46
   2  -1  -8   79.52    4.83
  -2   1   8   80.99    6.37
   1  -1  -8    1.67    0.73
   1  -1  -8    1.54    0.43
   1  -1  -8    1.07    0.38
  -1   1   8    3.14    1.25
   0  -1  -8   48.06    3.53
   0  -1  -8   42.77    3.10
   0   1   8   46.47    4.37
  -1  -1  -8  174.67   10.74
  -1  -1  -8  164.60   10.36
   1   1   8  164.61   11.76
  -2  -1  -8    0.74    0.52
  -2  -1  -8    0.54    0.52
   2   1   8    0.57    0.97
  -3  -1  -8  120.56    7.25
  -3  -1  -8  107.45    7.37
   3   1   8  102.02    8.41
  -4  -1  -8  122.40    8.27
  -4  -1  -8  129.01    8.45
   4   1   8  131.65    9.75
  -5  -1  -8   11.19    1.54
  -5  -1  -8   10.83    1.46
   5   1   8    8.05    2.08
  -6  -1  -8   52.76    4.26
  -6  -1  -8   57.45    4.33
   6   1   8   55.43    5.49
  -7  -1  -8   16.47    2.18
  -7  -1  -8   21.53    2.26
   7   1   8   17.39    3.10
  -8  -1  -8   76.76    6.44
   8   1   8   93.99    6.15
   8   1   8  103.81    7.96
  -9  -1  -8  272.52   17.95
   9   1   8  294.88   19.27
   9   1   8  276.69   17.36
 -10  -1  -8   64.16    5.40
  10   1   8   62.43    6.10
  10   1   8   62.18    4.62
 -11  -1  -8    5.45    1.61
  11   1   8    9.15    2.43
  11   1   8    6.07    1.24
 -12  -1  -8   20.10    3.17
  12   1   8   21.75    3.74
  12   1   8   24.34    2.41
 -13  -1  -8   -0.19    0.93
  13   1   8   -0.22    1.56
  13   1   8   -0.54    0.69
 -14  -1  -8   20.45    3.39
  14   1   8   12.16    3.01
  14   1   8   19.32    2.22
 -15  -1  -8   29.79    4.20
  15   1   8   37.44    3.86
  10  -2  -8    2.05    1.20
 -10   2   8   -2.87    2.65
   9  -2  -8   25.13    2.77
  -9   2   8   16.51    3.95
   8  -2  -8   83.73    6.34
  -8   2   8   80.14    5.51
  -8   2   8   92.97    8.12
   7  -2  -8    9.20    1.75
  -7   2   8    6.45    3.53
   6  -2  -8   27.79    2.75
  -6   2   8   27.80    2.03
  -6   2   8   25.66    3.78
   5  -2  -8   92.48    6.99
   5  -2  -8  106.12    6.25
  -5   2   8  102.94    8.26
   4  -2  -8   -0.13    0.25
   4  -2  -8   -0.38    0.50
  -4   2   8    0.40    1.25
   3  -2  -8  109.71    7.16
   3  -2  -8  117.22    7.95
   3  -2  -8  123.03    7.16
  -3   2   8  127.07    9.14
   2  -2  -8  105.71    6.78
   2  -2  -8   97.74    5.96
   2  -2  -8   90.82    5.94
  -2   2   8  103.75    7.80
   1  -2  -8   -0.07    0.26
   1  -2  -8    0.18    0.20
   1  -2  -8    0.23    0.46
  -1   2   8    0.12    0.70
   0  -2  -8  132.70    8.49
   0  -2  -8  127.81    7.90
   0   2   8  127.76    9.43
  -1  -2  -8  135.67    8.87
  -1  -2  -8  134.65    8.40
   1   2   8  145.88    8.43
   1   2   8  126.77    9.72
  -2  -2  -8    0.34    0.49
  -2  -2  -8    0.61    0.40
   2   2   8    0.31    0.92
  -3  -2  -8   98.60    6.67
  -3  -2  -8   97.15    6.78
   3   2   8   95.51    7.60
  -4  -2  -8   60.29    4.56
  -4  -2  -8   63.31    4.32
   4   2   8   57.17    5.43
  -5  -2  -8   48.53    3.52
  -5  -2  -8   36.30    3.44
   5   2   8   49.30    4.70
  -6  -2  -8  107.83    7.47
  -6  -2  -8  108.88    7.32
   6   2   8  104.35    8.49
  -7  -2  -8   12.09    1.88
   7   2   8   12.06    2.66
  -8  -2  -8   33.93    3.28
  -8  -2  -8   28.03    3.51
   8   2   8   28.51    3.79
   8   2   8   30.68    2.66
  -9  -2  -8  127.24    8.88
  -9  -2  -8  104.39    8.67
   9   2   8  139.32    9.98
   9   2   8  132.75    8.38
 -10  -2  -8   19.12    2.64
  10   2   8   22.00    3.31
 -11  -2  -8   62.69    5.46
  11   2   8   62.31    4.78
  11   2   8   63.56    6.12
 -12  -2  -8   38.01    4.04
  12   2   8   37.83    3.34
  12   2   8   35.99    4.64
 -13  -2  -8    0.17    1.19
  13   2   8    1.21    0.85
  13   2   8    1.24    1.79
 -14  -2  -8   16.05    3.05
  14   2   8   13.66    2.04
 -15  -2  -8    8.25    2.15
  15   2   8    5.40    2.15
  15   2   8   10.34    1.89
  11  -3  -8   33.10    3.55
 -11   3   8   32.17    6.51
  10  -3  -8   -0.15    0.73
 -10   3   8   -3.82    2.49
   9  -3  -8   24.39    2.73
  -9   3   8   16.57    4.15
   8  -3  -8   69.70    5.69
  -8   3   8   82.03    7.75
   7  -3  -8   12.55    1.81
  -7   3   8    8.35    2.63
  -7   3   8   10.04    1.02
   6  -3  -8   27.18    2.62
  -6   3   8   25.34    1.79
   5  -3  -8  122.97    8.60
  -5   3   8  133.94   10.13
   4  -3  -8    3.19    0.91
  -4   3   8    2.17    1.46
   3  -3  -8   63.45    4.67
  -3   3   8   61.32    5.73
   2  -3  -8   94.75    6.45
  -2   3   8   92.19    7.46
   1  -3  -8    0.48    0.53
  -1   3   8   -0.20    0.85
   0  -3  -8   49.46    3.70
   0  -3  -8   45.71    2.95
   0   3   8   49.08    4.59
  -1  -3  -8   55.89    3.87
  -1  -3  -8   60.82    4.46
   1   3   8   56.90    5.25
   1   3   8   70.82    4.32
  -2  -3  -8   25.32    1.91
  -2  -3  -8   22.94    2.29
   2   3   8   25.12    2.96
  -3  -3  -8  114.46    6.89
  -3  -3  -8  104.54    7.30
   3   3   8  100.37    8.04
  -4  -3  -8    0.27    0.43
  -4  -3  -8    1.18    0.74
   4   3   8   -0.29    0.71
  -5  -3  -8   80.60    5.21
  -5  -3  -8   75.09    5.49
   5   3   8   61.60    5.98
  -6  -3  -8   63.91    5.03
  -6  -3  -8   64.99    4.77
   6   3   8   64.88    5.76
  -7  -3  -8    3.77    1.03
  -7  -3  -8    4.41    1.35
   7   3   8    4.28    1.76
  -8  -3  -8   49.89    4.32
  -8  -3  -8   50.37    4.56
   8   3   8   45.92    4.80
   8   3   8   46.71    3.70
  -9  -3  -8   69.96    6.23
  -9  -3  -8   85.83    6.25
   9   3   8   77.59    5.74
   9   3   8   88.94    7.12
 -10  -3  -8    3.35    1.30
  10   3   8    6.34    1.98
  10   3   8    7.08    1.35
 -11  -3  -8   46.67    4.43
  11   3   8   49.39    5.06
  11   3   8   45.63    3.93
 -12  -3  -8   10.29    2.17
  12   3   8   10.45    2.45
  12   3   8    9.32    1.74
 -13  -3  -8   13.68    2.64
  13   3   8   15.13    2.07
  13   3   8    9.34    2.42
 -14  -3  -8   29.42    3.97
  14   3   8   25.80    3.95
 -15  -3  -8    4.52    1.85
  15   3   8    9.86    2.01
  15   3   8    6.94    2.35
  11  -4  -8    9.97    2.02
 -11   4   8   13.10    4.37
  10  -4  -8   -0.23    0.89
 -10   4   8   -3.70    2.13
  -9   4   8   43.69    6.17
   8  -4  -8   12.69    1.87
  -8   4   8    8.61    3.07
   7  -4  -8    2.78    1.07
  -7   4   8    2.43    1.98
   6  -4  -8  110.42    8.01
  -6   4   8  125.56    9.92
   5  -4  -8   72.82    5.58
  -5   4   8   84.18    7.96
   4  -4  -8   23.91    2.41
  -4   4   8   28.30    3.65
   3  -4  -8   63.89    4.79
  -3   4   8   66.05    6.01
   2  -4  -8   33.34    2.90
  -2   4   8   34.29    3.90
   1  -4  -8   35.16    3.02
  -1   4   8   39.81    4.12
   0  -4  -8   45.99    3.54
   0   4   8   42.80    4.38
  -1  -4  -8    2.33    0.41
  -1  -4  -8    1.32    0.69
   1   4   8    2.51    1.28
  -2  -4  -8  116.67    7.38
  -2  -4  -8  119.29    8.04
   2   4   8  122.30    8.90
  -3  -4  -8  210.70   12.52
  -3  -4  -8  189.50   13.03
   3   4   8  211.88   13.94
  -4  -4  -8    4.00    0.80
  -4  -4  -8    3.44    1.15
   4   4   8    3.50    1.33
  -5  -4  -8   89.09    6.67
  -5  -4  -8   98.70    6.30
   5   4   8   88.39    7.26
  -6  -4  -8   50.40    3.74
  -6  -4  -8   36.71    3.74
   6   4   8   51.81    4.67
  -7  -4  -8    4.52    1.33
  -7  -4  -8    8.77    1.50
   7   4   8    7.20    1.13
   7   4   8    7.40    2.07
  -8  -4  -8  125.03    8.64
   8   4   8  115.61    9.06
   8   4   8  115.52    7.91
  -9  -4  -8   98.10    7.08
  -9  -4  -8   89.20    6.72
   9   4   8   80.32    7.15
   9   4   8   90.99    6.34
 -10  -4  -8   20.12    2.74
  10   4   8   20.21    2.29
  10   4   8   24.35    3.31
 -11  -4  -8   78.32    6.59
  11   4   8   85.56    7.25
  11   4   8   86.59    6.23
 -12  -4  -8   26.18    3.34
  12   4   8   26.46    2.81
  12   4   8   26.86    3.70
 -13  -4  -8    2.80    1.39
  13   4   8   -0.78    1.59
  13   4   8    6.26    1.52
 -14  -4  -8   13.26    2.64
  14   4   8   10.78    3.09
 -15  -4  -8    2.23    1.54
  15   4   8    2.58    1.22
  11  -5  -8   13.25    2.16
 -11   5   8   17.56    4.33
  10  -5  -8    1.58    0.98
  10  -5  -8    1.35    1.96
 -10   5   8   -3.86    2.34
   9  -5  -8   22.68    2.99
  -9   5   8   20.57    4.39
   8  -5  -8   19.28    3.76
   8  -5  -8   18.34    2.28
  -8   5   8   22.47    4.69
   7  -5  -8    8.32    2.37
   7  -5  -8   10.08    1.61
  -7   5   8    3.59    2.26
   6  -5  -8  138.69   10.81
   6  -5  -8  140.07    9.72
  -6   5   8  162.16   12.06
   5  -5  -8   10.07    2.46
   5  -5  -8   10.03    1.54
  -5   5   8    7.45    2.61
   4  -5  -8   35.49    4.16
  -4   5   8   42.28    4.89
   3  -5  -8  107.09    8.36
   3  -5  -8  105.90    7.44
  -3   5   8  117.84    9.07
   2  -5  -8    1.96    0.80
  -2   5   8    2.03    1.49
   1  -5  -8   74.05    5.39
  -1   5   8   75.82    6.51
   0  -5  -8  172.69   11.40
   0   5   8  181.80   12.60
  -1  -5  -8    0.80    0.30
  -1  -5  -8    0.67    0.53
   1   5   8    1.20    0.58
   1   5   8    0.43    0.76
  -2  -5  -8  105.05    6.35
  -2  -5  -8   93.86    6.98
   2   5   8  102.24    7.86
  -3  -5  -8    3.48    1.11
  -3  -5  -8    2.62    0.62
   3   5   8    2.13    1.15
  -4  -5  -8   29.76    3.07
  -4  -5  -8   33.96    2.57
   4   5   8   32.07    3.50
  -5  -5  -8  134.26    9.89
  -5  -5  -8  150.44    9.45
   5   5   8  156.41   10.61
  -6  -5  -8   34.58    2.94
  -6  -5  -8   31.16    3.24
   6   5   8   32.20    3.59
  -7  -5  -8   38.81    3.37
  -7  -5  -8   37.33    3.70
   7   5   8   37.04    3.12
   7   5   8   40.54    4.08
  -8  -5  -8  135.97    8.72
  -8  -5  -8  105.91    8.69
   8   5   8  132.49    9.58
   8   5   8  122.11    8.27
  -9  -5  -8   21.34    2.72
  -9  -5  -8   20.11    2.61
   9   5   8   14.55    2.67
   9   5   8   21.40    2.21
 -10  -5  -8   10.32    1.99
  10   5   8   11.36    2.34
  10   5   8   13.52    1.80
 -11  -5  -8   36.73    4.05
  11   5   8   42.64    3.62
  11   5   8   35.94    4.09
  12   5   8   -0.38    1.23
  12   5   8    0.33    0.80
 -13  -5  -8   25.22    3.49
  13   5   8   27.36    3.02
 -14  -5  -8   35.72    4.38
  14   5   8   38.02    3.81
 -15  -5  -8   -0.84    1.20
  11  -6  -8    6.33    1.77
  11  -6  -8    5.44    2.57
 -11   6   8    9.21    3.93
  10  -6  -8   12.92    2.26
   9  -6  -8   36.35    3.32
   9  -6  -8   23.94    4.21
  -9   6   8   35.20    5.94
   8  -6  -8    8.99    1.69
   8  -6  -8    7.19    2.59
  -8   6   8   10.48    3.49
   7  -6  -8   32.31    3.04
   7  -6  -8   29.26    4.11
  -7   6   8   29.22    4.95
   6  -6  -8   83.56    7.43
   6  -6  -8   81.91    6.19
  -6   6   8   93.96    8.54
   5  -6  -8   11.48    2.72
   5  -6  -8    8.33    1.58
  -5   6   8   11.86    3.39
   4  -6  -8   51.96    5.20
  -4   6   8   60.48    6.07
   3  -6  -8   64.12    5.75
   3  -6  -8   60.36    4.69
  -3   6   8   62.03    6.20
   2  -6  -8    3.88    1.07
   2  -6  -8    5.00    1.67
  -2   6   8    3.15    1.91
   1  -6  -8  140.12    9.49
   1  -6  -8  141.94   10.23
  -1   6   8  149.37   10.86
   0  -6  -8  134.67    9.20
   0   6   8  135.36   10.32
   0   6   8  141.82    8.38
  -1  -6  -8    2.26    0.92
  -1  -6  -8    2.17    0.44
   1   6   8    2.74    1.36
   1   6   8    1.92    0.55
  -2  -6  -8  219.92   14.42
  -2  -6  -8  215.38   13.61
   2   6   8  240.28   15.40
  -3  -6  -8   17.14    2.26
  -3  -6  -8   20.36    1.72
   3   6   8   19.61    2.66
  -4  -6  -8   29.85    3.16
  -4  -6  -8   35.14    2.65
   4   6   8   31.57    3.52
  -5  -6  -8   83.33    5.36
  -5  -6  -8   68.19    5.81
   5   6   8   74.60    6.21
  -6  -6  -8   27.04    3.06
  -6  -6  -8   33.73    2.82
   6   6   8   30.93    3.47
   6   6   8   30.58    2.63
  -7  -6  -8   74.93    6.14
  -7  -6  -8   84.27    5.87
   7   6   8   78.95    6.48
   7   6   8   77.81    5.60
  -8  -6  -8  124.02    9.17
  -8  -6  -8  129.01    8.87
   8   6   8  133.82    9.53
   8   6   8  122.97    8.52
  -9  -6  -8    1.47    1.05
   9   6   8    1.96    0.86
   9   6   8   -0.03    1.00
 -10  -6  -8   16.39    2.42
  10   6   8   11.22    2.33
  10   6   8   17.73    2.09
 -11  -6  -8   13.00    2.41
  11   6   8   15.92    2.09
  11   6   8   18.20    2.67
 -12  -6  -8   -0.53    0.96
  12   6   8    2.15    0.99
  12   6   8    0.43    1.33
 -13  -6  -8   26.62    3.86
  13   6   8   28.77    3.19
 -14  -6  -8    7.86    2.19
  14   6   8    9.07    2.00
  10  -7  -8   12.94    1.98
  10  -7  -8    8.57    2.72
 -10   7   8   11.91    3.45
   9  -7  -8   40.73    3.72
  -9   7   8   38.05    9.23
   8  -7  -8    4.43    1.21
   8  -7  -8    3.31    1.80
  -8   7   8    0.65    2.23
   7  -7  -8   77.00    6.01
   7  -7  -8   75.53    7.31
  -7   7   8   98.60    8.93
   6  -7  -8   36.37    3.42
   6  -7  -8   39.35    4.82
  -6   7   8   45.20    5.76
   5  -7  -8    0.41    0.68
   5  -7  -8   -1.65    1.09
  -5   7   8    0.61    1.42
   4  -7  -8   96.18    8.01
  -4   7   8   98.03    8.75
   3  -7  -8   63.42    4.93
   3  -7  -8   66.05    5.87
  -3   7   8   66.02    6.42
   2  -7  -8    8.11    1.54
   2  -7  -8    8.36    2.02
  -2   7   8    5.64    2.00
   1  -7  -8  116.11    8.65
   1  -7  -8  106.31    7.85
  -1   7   8  122.47    9.32
  -1   7   8  113.86    7.00
  -1   7   8  118.04    7.03
   0  -7  -8   90.79    7.09
   0  -7  -8   93.08    7.62
   0  -7  -8  113.81    6.32
   0   7   8  112.64    6.37
   0   7   8   95.02    6.38
   0   7   8  101.21    8.27
  -1  -7  -8   62.68    3.93
  -1  -7  -8   56.68    4.73
   1   7   8   58.60    5.57
  -2  -7  -8   35.04    3.43
   2   7   8   38.79    4.11
  -3  -7  -8    8.10    1.09
  -3  -7  -8    8.19    1.68
   3   7   8    4.42    1.55
  -4  -7  -8   54.13    3.86
  -4  -7  -8   46.87    4.46
   4   7   8   54.85    4.91
  -5  -7  -8   88.31    5.85
  -5  -7  -8   76.63    6.40
   5   7   8   84.88    6.77
  -6  -7  -8    0.54    0.62
  -6  -7  -8    0.36    1.04
   6   7   8   -0.41    0.37
   6   7   8   -1.19    0.75
  -7  -7  -8   74.90    6.12
  -7  -7  -8   81.61    6.48
   7   7   8   81.26    5.78
   7   7   8   83.13    6.61
  -8  -7  -8   55.49    5.07
  -8  -7  -8   63.21    4.91
   8   7   8   56.28    5.18
   8   7   8   59.31    4.54
  -9  -7  -8    2.33    1.20
   9   7   8    0.18    1.04
   9   7   8    1.15    0.76
 -10  -7  -8   21.34    2.90
  10   7   8   14.99    2.62
  10   7   8   22.20    2.44
 -11  -7  -8    9.23    2.00
  11   7   8    9.81    1.88
  11   7   8    9.56    1.91
 -12  -7  -8    5.96    1.80
  12   7   8    3.12    1.80
  12   7   8    4.88    1.35
 -13  -7  -8   42.48    4.75
  13   7   8   39.54    3.97
 -14  -7  -8    0.65    1.55
  14   7   8    3.44    1.31
  10  -8  -8    8.09    2.59
 -10   8   8    9.85    3.46
   9  -8  -8   13.84    2.23
   9  -8  -8   18.25    3.74
  -9   8   8   18.63    4.82
   8  -8  -8    0.87    0.83
   8  -8  -8    1.22    1.78
  -8   8   8   -1.99    1.91
   7  -8  -8   45.82    4.07
   7  -8  -8   50.34    5.59
  -7   8   8   54.08    6.62
   6  -8  -8   51.94    5.62
   6  -8  -8   48.48    4.16
  -6   8   8   52.04    6.38
   5  -8  -8    4.17    1.13
   5  -8  -8    2.38    1.87
  -5   8   8    4.24    2.35
   4  -8  -8   70.59    6.52
  -4   8   8   71.88    7.15
   3  -8  -8   19.61    2.21
   3  -8  -8   23.63    3.35
  -3   8   8   20.34    3.87
  -3   8   8   16.56    1.38
  -3   8   8   18.06    1.33
   2  -8  -8   36.06    3.24
   2  -8  -8   38.06    4.16
  -2   8   8   39.77    4.72
  -2   8   8   32.31    2.43
   1  -8  -8   48.09    4.35
   1  -8  -8   66.64    6.77
  -1   8   8   51.98    3.65
  -1   8   8   59.35    3.73
  -1   8   8   59.18    7.77
   0  -8  -8    9.83    1.03
   0  -8  -8    7.49    1.63
   0  -8  -8   13.16    2.55
   0   8   8    9.74    1.09
   0   8   8   10.21    2.58
  -1  -8  -8  152.09   10.57
   1   8   8  160.75   11.65
  -2  -8  -8  109.71    8.27
  -2  -8  -8  121.52    7.44
   2   8   8  115.31    9.06
  -3  -8  -8   -0.55    0.76
  -3  -8  -8    0.10    0.45
   3   8   8   -0.25    0.92
  -4  -8  -8   39.96    4.26
  -4  -8  -8   51.02    3.72
   4   8   8   52.96    4.83
  -5  -8  -8   20.41    2.79
  -5  -8  -8   23.18    2.28
   5   8   8   20.97    2.95
   5   8   8   19.90    2.11
  -6  -8  -8   16.57    2.00
  -6  -8  -8   15.48    2.35
   6   8   8   16.97    1.86
   6   8   8   14.68    2.50
  -7  -8  -8  158.38   11.23
  -7  -8  -8  162.15   10.61
   7   8   8  155.52   10.47
   7   8   8  159.42   11.25
  -8  -8  -8   16.04    2.44
  -8  -8  -8   16.94    2.30
   8   8   8   17.28    2.54
   8   8   8   17.28    1.99
  -9  -8  -8   16.77    2.54
   9   8   8   18.82    2.63
   9   8   8   17.92    2.22
 -10  -8  -8   29.83    3.63
  10   8   8   31.40    3.47
  10   8   8   35.29    3.28
 -11  -8  -8   18.62    3.22
  11   8   8   20.27    2.52
  11   8   8   18.20    2.39
 -12  -8  -8   10.90    2.38
  12   8   8   15.42    2.09
 -13  -8  -8   15.31    2.92
  13   8   8   23.83    2.78
  10  -9  -8   10.52    2.86
 -10   9   8   10.90    3.91
   9  -9  -8    6.50    1.44
   9  -9  -8    7.54    2.93
  -9   9   8    6.27    3.37
   8  -9  -8   20.14    2.29
   8  -9  -8   14.19    3.30
  -8   9   8   15.85    4.01
   7  -9  -8   53.86    4.66
   7  -9  -8   65.40    6.50
   6  -9  -8   15.21    2.04
   6  -9  -8   10.90    2.84
   5  -9  -8   15.21    2.20
   5  -9  -8   23.36    3.65
  -5   9   8   19.83    1.58
   4  -9  -8   85.83    6.94
   4  -9  -8   63.80    5.58
  -4   9   8   60.53    4.72
  -4   9   8   66.46    4.46
  -4   9   8   80.85    7.47
   3  -9  -8   10.67    2.59
   3  -9  -8   11.44    1.73
  -3   9   8   10.16    2.92
  -3   9   8   10.25    1.19
   2  -9  -8   34.26    3.38
   2  -9  -8   40.05    4.50
  -2   9   8   38.79    2.82
  -2   9   8   40.26    4.85
   1  -9  -8   64.32    5.80
   1  -9  -8   54.26    4.85
  -1   9   8   60.69    6.20
  -1   9   8   68.53    4.35
   0  -9  -8    8.70    1.84
   0  -9  -8   12.10    1.25
   0   9   8   10.52    1.24
   0   9   8    7.55    3.27
  -1  -9  -8  131.02    7.78
  -1  -9  -8  119.22    9.01
  -1  -9  -8  111.29    8.62
   1   9   8  125.52    9.72
  -2  -9  -8  135.21   10.49
  -2  -9  -8  161.68    9.71
   2   9   8  162.00   11.55
  -3  -9  -8   10.63    1.44
   3   9   8    7.79    2.12
  -4  -9  -8   72.61    6.71
  -4  -9  -8   97.74    6.18
   4   9   8   91.43    7.38
  -5  -9  -8   10.78    1.62
  -5  -9  -8    7.72    1.95
   5   9   8   11.63    1.52
   5   9   8   10.37    2.28
  -6  -9  -8   27.53    3.48
  -6  -9  -8   33.29    3.02
   6   9   8   30.99    3.59
   6   9   8   29.45    2.87
  -7  -9  -8   87.08    6.16
  -7  -9  -8   75.92    6.56
   7   9   8   81.98    5.98
   7   9   8   78.59    6.62
  -8  -9  -8   25.68    2.85
   8   9   8   19.88    2.38
   8   9   8   21.90    2.79
  -9  -9  -8    5.65    1.53
   9   9   8    4.86    1.64
   9   9   8    6.99    1.54
 -10  -9  -8   32.56    4.07
  10   9   8   30.07    3.11
 -11  -9  -8   -0.24    1.03
  11   9   8    0.58    0.87
 -12  -9  -8   25.31    3.54
  12   9   8   23.00    2.89
 -13  -9  -8   10.45    2.72
  13   9   8   11.45    2.32
   9 -10  -8    2.63    2.45
   9 -10  -8    4.10    1.28
   8 -10  -8    6.75    2.82
   7 -10  -8   22.05    3.76
   7 -10  -8   17.95    2.30
   6 -10  -8   -0.72    1.33
   6 -10  -8   -0.47    0.74
   5 -10  -8   53.37    5.49
   5 -10  -8   40.79    3.92
  -5  10   8   50.86    4.18
   4 -10  -8   35.09    4.41
   4 -10  -8   28.93    3.05
   3 -10  -8    1.69    1.63
  -3  10   8    2.15    1.62
   2 -10  -8   70.74    6.22
   2 -10  -8   55.91    4.98
  -2  10   8   64.72    4.51
  -2  10   8   67.57    6.65
   1 -10  -8   25.68    2.93
   1 -10  -8   28.55    3.60
  -1  10   8   30.63    2.48
  -1  10   8   27.79    3.99
   0 -10  -8    5.41    0.90
   0 -10  -8   10.26    2.40
   0 -10  -8    6.23    1.59
   0  10   8    5.09    1.97
   0  10   8    8.03    1.20
  -1 -10  -8   43.95    3.20
  -1 -10  -8   34.17    4.31
  -1 -10  -8   43.11    4.38
   1  10   8   41.33    4.81
   1  10   8   44.93    3.28
  -2 -10  -8    0.87    1.04
  -2 -10  -8    1.59    0.73
   2  10   8    1.09    1.33
  -3 -10  -8   64.05    5.96
  -3 -10  -8   84.32    5.42
   3  10   8   74.55    6.74
  -4 -10  -8  135.34    8.37
  -4 -10  -8  110.20    9.03
   4  10   8  119.03    8.40
   4  10   8  127.65    9.64
  -5 -10  -8   23.29    2.38
  -5 -10  -8   17.84    2.92
   5  10   8   18.32    2.24
   5  10   8   20.37    3.06
  -6 -10  -8   54.39    5.41
  -6 -10  -8   65.41    4.84
   6  10   8   54.09    4.66
   6  10   8   64.54    5.61
  -7 -10  -8   41.16    3.70
   7  10   8   39.99    4.24
   7  10   8   41.14    3.66
  -8 -10  -8    2.03    1.12
   8  10   8    2.73    1.19
   8  10   8    3.05    1.16
  -9 -10  -8    9.03    1.84
 -10 -10  -8   22.80    3.33
  10  10   8   29.92    3.10
 -11 -10  -8   -0.65    1.25
  11  10   8    0.35    0.85
 -12 -10  -8   39.35    4.65
  12  10   8   38.55    3.99
   9 -11  -8   -3.65    1.94
   9 -11  -8   -0.14    0.85
   8 -11  -8   28.25    4.73
   8 -11  -8   24.62    2.86
   7 -11  -8   35.51    4.76
   7 -11  -8   26.37    3.01
   6 -11  -8    5.05    2.47
   5 -11  -8   40.59    3.89
   5 -11  -8   49.80    5.54
  -5  11   8   45.65    3.42
   4 -11  -8   44.22    4.96
   4 -11  -8   33.36    3.37
  -4  11   8   33.26    2.90
   3 -11  -8   12.40    3.02
   3 -11  -8    9.12    1.74
  -3  11   8    9.25    1.50
   2 -11  -8  101.38    8.26
   2 -11  -8   75.30    7.23
  -2  11   8  102.51    8.88
  -2  11   8   97.59    6.45
   1 -11  -8   12.92    2.76
   1 -11  -8   17.59    3.45
  -1  11   8   20.95    3.64
  -1  11   8   17.75    1.96
   0 -11  -8   41.86    4.45
   0 -11  -8   32.88    3.69
   0  11   8   40.41    3.18
   0  11   8   39.89    4.94
  -1 -11  -8  100.43    6.10
  -1 -11  -8   70.93    6.70
  -1 -11  -8   91.61    7.34
   1  11   8   93.50    6.12
   1  11   8   81.18    7.75
  -2 -11  -8   47.34    4.65
  -2 -11  -8   39.18    4.32
  -2 -11  -8   48.73    3.63
   2  11   8   47.90    5.16
  -3 -11  -8   22.89    3.23
   3  11   8   28.82    2.75
   3  11   8   25.42    5.80
  -4 -11  -8   53.05    5.58
  -4 -11  -8   71.80    4.99
   4  11   8   60.73    4.97
   4  11   8   68.21    6.22
  -5 -11  -8    1.18    0.91
  -5 -11  -8   -0.85    1.18
   5  11   8    0.43    0.75
   5  11   8   -0.59    1.15
  -6 -11  -8   48.67    3.87
  -6 -11  -8   35.78    4.36
   6  11   8   40.35    3.72
   6  11   8   38.95    4.44
  -7 -11  -8   41.57    3.76
   7  11   8   41.78    3.78
   7  11   8   35.36    4.07
  -8 -11  -8   -0.68    0.95
   8  11   8   -0.85    0.97
  -9 -11  -8   25.76    3.29
   9  11   8   27.83    3.05
 -10 -11  -8    5.80    1.67
  10  11   8   10.86    2.03
 -11 -11  -8    2.16    1.53
  11  11   8    2.80    1.35
   8 -12  -8   33.00    3.47
   8 -12  -8   39.69    5.54
   7 -12  -8   10.17    3.32
   7 -12  -8    6.31    1.62
   6 -12  -8    5.29    2.73
   6 -12  -8    2.96    1.28
   5 -12  -8   25.58    2.91
   5 -12  -8   33.93    4.72
  -5  12   8   25.67    2.62
   4 -12  -8    2.12    1.78
   4 -12  -8    2.16    1.06
  -4  12   8    1.67    0.93
   3 -12  -8   21.95    2.81
   3 -12  -8   28.76    4.15
  -3  12   8   22.94    2.48
   2 -12  -8   61.45    6.13
   2 -12  -8   49.62    4.79
  -2  12   8   60.85    6.51
  -2  12   8   58.34    4.47
   1 -12  -8    2.84    1.26
   1 -12  -8    1.20    1.63
  -1  12   8    0.39    0.69
  -1  12   8   -0.10    1.55
   0 -12  -8   52.65    5.31
   0 -12  -8   70.92    6.27
   0  12   8   67.77    6.95
   0  12   8   70.08    4.89
  -1 -12  -8   44.57    4.61
  -1 -12  -8   43.04    3.94
  -1 -12  -8   34.44    4.04
   1  12   8   42.83    5.09
  -2 -12  -8    2.79    1.42
  -2 -12  -8    0.63    1.34
  -2 -12  -8   -0.11    0.73
   2  12   8    0.29    0.77
   2  12   8   -0.52    1.45
   2  12   8    0.99    0.77
  -3 -12  -8   20.95    3.41
  -3 -12  -8   33.17    2.90
   3  12   8   25.72    3.99
   3  12   8   31.17    3.00
  -4 -12  -8   47.15    3.73
  -4 -12  -8   31.90    4.14
   4  12   8   39.01    3.67
   4  12   8   41.41    4.84
  -5 -12  -8    2.73    1.06
  -5 -12  -8    1.86    1.74
   5  12   8    3.53    1.18
   5  12   8    0.83    1.51
  -6 -12  -8   60.55    4.66
   6  12   8   52.61    4.59
   6  12   8   45.15    5.20
  -7 -12  -8   15.38    2.40
   7  12   8   11.28    2.43
  -8 -12  -8    1.48    1.32
   8  12   8    5.16    1.52
  -9 -12  -8   31.03    3.53
   9  12   8   31.11    3.36
 -10 -12  -8    5.17    1.79
  10  12   8    8.18    1.91
   7 -13  -8    4.41    2.84
   6 -13  -8    0.98    2.29
   6 -13  -8    0.71    1.20
   5 -13  -8   33.33    4.72
   5 -13  -8   22.13    2.90
  -5  13   8   26.13    2.82
   4 -13  -8   -1.68    0.89
   4 -13  -8   -0.33    1.52
  -4  13   8   -0.35    0.86
   3 -13  -8   21.93    2.87
  -3  13   8   28.62    3.54
   2 -13  -8   33.18    3.71
   2 -13  -8   39.87    4.96
  -2  13   8   39.43    4.04
  -2  13   8   40.75    5.52
   1 -13  -8   10.71    2.89
   1 -13  -8    6.21    1.76
  -1  13   8    6.74    1.39
  -1  13   8    7.88    2.71
   0 -13  -8   78.35    6.80
   0 -13  -8   61.27    5.82
   0  13   8   74.13    5.34
   0  13   8   73.39    7.42
   0  13   8   69.36    5.39
  -1 -13  -8   24.60    3.55
  -1 -13  -8   37.00    3.11
  -1 -13  -8   35.74    4.20
   1  13   8   34.33    3.11
   1  13   8   34.20    3.25
   1  13   8   34.05    4.60
  -2 -13  -8   -0.28    1.59
  -2 -13  -8    0.47    0.77
  -2 -13  -8    0.97    1.36
   2  13   8   -0.58    0.65
   2  13   8    0.65    0.82
   2  13   8   -1.68    1.36
  -3 -13  -8   50.56    4.01
  -3 -13  -8   42.05    4.86
   3  13   8   41.18    4.03
   3  13   8   45.14    5.27
   3  13   8   48.60    3.96
  -4 -13  -8    7.31    2.16
  -4 -13  -8    6.68    1.47
   4  13   8    6.73    2.41
   4  13   8    8.46    1.76
  -5 -13  -8    3.90    1.32
   5  13   8    7.70    1.71
   5  13   8    3.89    1.77
   6  13   8   50.64    4.96
   6  13   8   43.45    4.86
  -7 -13  -8    1.82    1.35
   7  13   8    4.29    1.32
  -8 -13  -8    3.70    1.50
   8  13   8    7.86    1.84
   9  13   8   13.59    2.53
   6 -14  -8   14.28    3.81
   5 -14  -8    9.64    2.05
   5 -14  -8   11.99    3.36
   4 -14  -8   -1.44    1.02
   4 -14  -8   -0.11    1.53
  -4  14   8   -1.67    0.98
   3 -14  -8   26.93    3.37
   3 -14  -8   37.97    4.98
  -3  14   8   33.05    3.36
   2 -14  -8   18.38    2.91
   2 -14  -8   27.53    4.20
  -2  14   8   24.05    2.80
  -2  14   8   27.75    4.73
   1 -14  -8   13.36    3.63
   1 -14  -8    6.75    1.98
  -1  14   8   12.09    1.82
  -1  14   8    7.79    1.69
  -1  14   8    9.89    4.25
   0 -14  -8   42.73    4.96
   0 -14  -8   35.27    4.12
   0  14   8   41.74    5.59
   0  14   8   40.98    3.67
   0  14   8   41.99    3.69
  -1 -14  -8    3.95    1.86
  -1 -14  -8    4.45    2.16
   1  14   8    4.86    2.33
   1  14   8    3.40    1.11
   1  14   8    5.88    1.55
  -2 -14  -8   19.08    2.25
  -2 -14  -8   19.37    3.12
  -2 -14  -8   10.77    2.57
   2  14   8   16.30    2.25
   2  14   8   13.26    3.26
   2  14   8   16.87    2.22
  -3 -14  -8   48.07    3.98
   3  14   8   38.58    3.89
   3  14   8   47.43    3.97
   3  14   8   36.07    5.13
  -4 -14  -8    1.98    1.18
   4  14   8    0.81    1.00
   4  14   8    3.45    1.93
   4  14   8    1.63    1.08
  -5 -14  -8   29.85    3.20
   5  14   8   20.17    3.81
   5  14   8   25.50    3.03
  -6 -14  -8   54.33    4.73
   6  14   8   51.43    4.80
  -7 -14  -8   -1.21    0.95
   7  14   8   -0.22    0.93
  -8 -14  -8    8.25    1.88
   5 -15  -8    6.61    2.85
   4 -15  -8    4.13    2.53
  -4  15   8    1.49    1.24
   3 -15  -8   42.85    5.55
   3 -15  -8   35.58    4.22
  -3  15   8   45.81    4.17
  -3  15   8   46.98    3.76
   2 -15  -8   -1.26    1.56
   2 -15  -8   -2.58    1.29
  -2  15   8   -1.85    0.86
  -2  15   8   -0.25    0.83
  -2  15   8   -0.13    1.82
   1 -15  -8   27.03    3.60
   1 -15  -8   27.65    4.39
  -1  15   8   28.83    3.01
  -1  15   8   33.66    3.22
  -1  15   8   34.12    5.11
   0 -15  -8   63.46    7.84
   0 -15  -8   61.24    5.92
   0  15   8   74.97    5.60
   0  15   8   73.00    8.70
   0  15   8   75.69    5.56
  -1 -15  -8   -0.31    1.52
   1  15   8    2.85    1.96
   1  15   8    1.50    0.98
   1  15   8    1.43    0.96
  -2 -15  -8   44.85    4.48
   2  15   8   35.30    3.62
   2  15   8   29.37    4.75
  -3 -15  -8   31.26    3.39
   3  15   8   34.94    4.50
   3  15   8   30.61    3.23
  -4 -15  -8    0.95    1.18
   4  15   8    0.21    0.85
   4  15   8   -1.08    1.54
   4  15   8   -0.42    0.88
  -5 -15  -8   36.84    3.85
   5  15   8   35.27    3.84
   5  15   8   41.05    3.98
  -6 -15  -8   35.57    3.73
   6  15   8   32.28    3.88
   2 -16  -8   -2.29    1.66
  -2  16   8   -1.18    1.76
  -2  16   8   -2.45    1.92
   1 -16  -8   26.83    4.23
  -1  16   8   22.66    4.79
  -1  16   8   26.88    3.08
  -1  16   8   25.83    2.73
   0 -16  -8   40.93    5.23
   0  16   8   46.78    3.98
   0  16   8   42.10    4.03
   0  16   8   45.96    6.03
  -1 -16  -8   -1.10    1.65
   1  16   8    1.41    1.02
   1  16   8   -0.86    1.82
   1  16   8    1.00    0.97
   2  16   8   31.00    5.42
   2  16   8   23.52    2.90
   2  16   8   21.27    2.81
  -3 -16  -8    9.32    1.84
   3  16   8    7.08    1.71
   3  16   8   10.90    2.93
   3  16   8    8.30    1.98
  -1   9  -9   21.72    3.21
   1  -9   9   21.14    5.01
  -2   9  -9    0.87    1.15
  -3   9  -9   31.61    3.84
   3  -9   9   27.95    4.69
  -4   9  -9    4.10    1.48
   4  -9   9    5.07    2.63
  -5   9  -9    0.93    1.26
   5  -9   9   -0.48    1.85
  -6   9  -9   11.88    2.76
   6  -9   9   12.41    3.66
  -7   9  -9    4.71    1.79
   7  -9   9    3.05    2.37
   2   8  -9    5.16    1.46
   2   8  -9    4.91    1.62
   1   8  -9    1.57    1.27
   1   8  -9    0.09    0.62
  -1  -8   9   -4.44    3.01
   0   8  -9   40.18    3.38
   0   8  -9   35.26    3.81
   0  -8   9   41.68    5.06
  -1   8  -9    3.63    1.46
  -1   8  -9    3.89    1.10
   1  -8   9    6.13    2.39
  -2   8  -9    6.40    1.43
  -2   8  -9    5.23    1.59
   2  -8   9    4.67    2.37
  -3   8  -9   51.92    5.01
   3  -8   9   59.06    6.35
  -4   8  -9    2.53    1.23
  -5   8  -9    2.72    1.37
   5  -8   9    0.15    2.07
  -6   8  -9   19.80    3.13
   6  -8   9   14.39    3.39
  -7   8  -9   -0.50    1.17
   7  -8   9   -3.07    1.55
  -8   8  -9   10.20    2.56
   8  -8   9   15.89    4.53
  -9   8  -9   20.97    3.42
   9  -8   9   27.01    5.35
   4   7  -9    2.47    1.08
   4   7  -9    3.19    1.36
   3   7  -9   34.19    3.61
   3   7  -9   33.36    3.33
   2   7  -9    1.19    1.08
   2   7  -9    3.59    1.40
   1   7  -9   10.81    1.70
   1   7  -9    5.52    2.35
  -1  -7   9    6.46    2.59
   0   7  -9   69.43    5.22
   0   7  -9   65.38    7.09
   0  -7   9   74.01    6.98
  -1   7  -9    2.06    1.07
  -1   7  -9    2.89    0.99
   1  -7   9    1.14    2.00
  -2   7  -9   17.49    2.08
  -2   7  -9   12.17    2.32
   2  -7   9   14.09    3.26
  -3   7  -9   27.20    3.57
   3  -7   9   29.56    4.40
  -4   7  -9    0.73    0.73
   4  -7   9   -1.33    1.59
  -5   7  -9   12.32    2.74
   5  -7   9   23.13    4.46
  -6   7  -9   33.64    3.90
   6  -7   9   44.72    5.79
  -7   7  -9   -1.11    0.96
   7  -7   9   -0.61    1.81
  -8   7  -9   19.03    3.05
   8  -7   9   18.94    4.25
  -9   7  -9    8.75    2.17
   9  -7   9   15.14    4.24
 -10   7  -9    0.97    1.36
  10  -7   9   -3.54    1.97
 -11   7  -9   19.67    3.42
  11  -7   9    9.35    3.49
   5   6  -9   10.05    2.02
   5   6  -9    5.33    1.58
   4   6  -9   19.70    2.50
   3   6  -9   32.33    4.49
   3   6  -9   34.64    3.47
   2   6  -9   15.78    2.15
   2   6  -9   12.25    2.08
   1   6  -9   14.78    2.25
   1   6  -9   17.82    2.04
  -1  -6   9   15.73    3.18
   0   6  -9   52.18    4.12
   0   6  -9   50.75    4.46
   0  -6   9   52.99    5.56
  -1   6  -9    0.11    0.55
  -1   6  -9    0.61    0.86
   1  -6   9    0.25    1.60
  -2   6  -9   55.15    4.72
  -2   6  -9   55.22    4.23
   2  -6   9   61.56    6.06
  -3   6  -9   31.98    3.42
  -3   6  -9   31.87    2.76
   3  -6   9   37.09    4.70
  -4   6  -9    1.06    0.67
  -4   6  -9    0.00    0.95
   4  -6   9    0.69    1.81
  -5   6  -9   23.01    3.06
  -5   6  -9   20.45    1.98
   5  -6   9   27.26    4.07
  -6   6  -9   15.25    2.66
   6  -6   9   16.03    3.54
   7  -6   9    8.68    3.97
  -8   6  -9   34.38    4.05
   8  -6   9   43.82    5.72
  -9   6  -9   11.08    2.49
   9  -6   9    6.48    2.59
 -10   6  -9    2.26    1.50
  10  -6   9    1.99    1.93
 -11   6  -9   17.23    3.20
  11  -6   9   12.85    4.17
 -12   6  -9   -0.69    1.30
  12  -6   9   -1.82    2.06
   6   5  -9   16.48    2.51
   6   5  -9   16.29    2.66
   5   5  -9   -0.68    0.73
   5   5  -9   -1.55    0.85
   4   5  -9   29.21    2.99
   4   5  -9   23.71    2.82
   3   5  -9   25.41    2.75
   3   5  -9   28.25    2.82
  -3  -5   9   20.78    3.60
   2   5  -9    0.19    0.71
   2   5  -9   -1.05    0.68
  -2  -5   9   -1.47    1.54
   1   5  -9   35.63    3.20
   1   5  -9   31.54    3.25
  -1  -5   9   43.12    4.84
   0   5  -9   12.15    1.97
   0   5  -9   13.18    1.77
   0  -5   9   15.72    3.35
  -1   5  -9   15.01    1.76
  -1   5  -9   14.95    2.24
   1  -5   9   14.14    2.90
  -2   5  -9   72.73    5.62
  -2   5  -9   69.61    5.12
   2  -5   9   74.84    7.36
  -3   5  -9   24.91    2.30
  -3   5  -9   22.51    2.79
   3  -5   9   24.94    3.84
  -4   5  -9    1.23    0.67
  -4   5  -9    0.79    1.10
   4  -5   9    2.58    1.86
  -5   5  -9   24.40    2.26
  -5   5  -9   32.01    3.28
  -6   5  -9   -1.40    0.90
   6  -5   9   -2.21    1.54
  -7   5  -9   24.70    3.29
   7  -5   9   31.23    4.72
  -8   5  -9   37.43    4.20
   8  -5   9   46.73    5.64
  -9   5  -9   -0.51    1.28
   9  -5   9   -0.11    1.90
 -10   5  -9   30.61    3.81
  10  -5   9   32.20    5.10
 -11   5  -9   27.54    3.80
  11  -5   9   27.25    4.72
 -12   5  -9   -1.00    1.22
 -13   5  -9   20.18    3.38
  13  -5   9   14.64    3.78
   7   4  -9    8.50    2.11
   7   4  -9    5.00    1.53
   6   4  -9   39.77    3.90
   6   4  -9   39.19    3.64
   5   4  -9    3.48    1.29
   5   4  -9    1.36    0.98
   4   4  -9   21.32    2.54
   4   4  -9   21.01    2.55
  -4  -4   9   22.35    3.50
   3   4  -9   22.59    2.50
   3   4  -9   24.95    2.62
  -3  -4   9   22.25    3.55
   2   4  -9   23.88    2.49
   2   4  -9   19.51    2.32
  -2  -4   9   20.77    3.58
   1   4  -9  107.10    7.33
   1   4  -9  104.33    7.32
  -1  -4   9  103.85    8.55
   0   4  -9   55.16    4.19
   0   4  -9   53.80    4.32
   0  -4   9   51.27    7.43
  -1   4  -9   28.49    2.94
  -1   4  -9   28.57    2.64
   1  -4   9   32.77    4.10
  -2   4  -9   76.93    6.05
  -2   4  -9   85.72    5.81
   2  -4   9   86.37    7.56
  -3   4  -9   15.87    1.75
  -3   4  -9   12.59    1.96
   3  -4   9   16.97    3.38
  -4   4  -9   21.45    2.21
  -4   4  -9   22.92    2.64
   4  -4   9   30.08    4.16
  -5   4  -9   70.99    5.41
  -5   4  -9   77.08    6.07
   5  -4   9   98.57    8.00
  -6   4  -9   -0.07    0.57
  -6   4  -9   -0.44    1.02
   6  -4   9   -2.00    1.50
  -7   4  -9   47.57    4.36
  -8   4  -9   60.60    5.49
   8  -4   9   79.18    7.44
   8  -4   9   65.41    4.32
  -9   4  -9    4.44    1.54
   9  -4   9    4.60    2.47
 -10   4  -9    7.65    2.77
  10  -4   9    7.17    2.83
 -11   4  -9    8.30    2.08
  11  -4   9   12.48    3.52
 -12   4  -9    5.59    1.94
  12  -4   9    4.86    2.70
 -13   4  -9   25.93    3.74
  13  -4   9   15.32    3.85
   8   3  -9   -0.98    0.75
   7   3  -9   21.86    2.80
   7   3  -9   19.54    2.59
   6   3  -9   20.22    2.68
   6   3  -9   24.80    2.64
   5   3  -9    2.98    1.08
   5   3  -9    5.25    1.65
  -5  -3   9   -1.27    1.72
   4   3  -9   38.68    3.29
   4   3  -9   39.21    3.53
  -4  -3   9   33.63    4.42
   3   3  -9   16.62    2.10
   3   3  -9   18.93    2.45
  -3  -3   9   14.22    2.96
   2   3  -9   18.28    2.11
   2   3  -9   16.16    2.00
  -2  -3   9   17.93    3.21
   1   3  -9   55.06    4.15
  -1  -3   9   46.99    5.14
   0   3  -9    3.08    0.97
   0   3  -9    1.39    0.81
   0  -3   9    1.33    1.65
  -1   3  -9   36.18    3.33
  -1   3  -9   43.49    3.27
   1  -3   9   32.57    6.61
  -2   3  -9  115.46    8.36
  -2   3  -9  132.64    8.29
   2  -3   9  126.24   10.08
  -3   3  -9    8.78    1.35
  -3   3  -9    5.40    1.50
   3  -3   9   10.23    2.84
  -4   3  -9   54.00    4.81
  -4   3  -9   65.59    4.59
   4  -3   9   66.25    6.40
  -5   3  -9   30.57    2.69
  -5   3  -9   28.61    3.00
   5  -3   9   34.42    4.42
  -6   3  -9    1.15    0.67
  -6   3  -9    0.51    0.88
   6  -3   9    1.55    1.92
  -7   3  -9   41.49    3.52
  -7   3  -9   50.81    4.37
   7  -3   9   60.35    6.02
  -8   3  -9   21.71    2.04
  -8   3  -9   21.79    2.94
   8  -3   9   26.91    4.20
   8  -3   9   23.26    1.90
  -9   3  -9   15.63    2.69
   9  -3   9   15.46    3.27
   9  -3   9   12.88    1.35
 -10   3  -9   56.67    5.26
  10  -3   9   58.48    4.01
  10  -3   9   63.81    6.86
 -11   3  -9   14.88    2.71
  11  -3   9   23.37    5.52
 -12   3  -9    5.92    1.79
  12  -3   9    6.55    2.46
 -13   3  -9   26.11    3.53
  13  -3   9   18.19    4.10
 -14   3  -9   -0.39    1.24
  14  -3   9    0.49    2.09
   8   2  -9    1.92    1.14
   7   2  -9   51.53    4.49
   7   2  -9   45.20    3.94
  -7  -2   9   47.26    3.81
   6   2  -9    2.77    1.18
  -6  -2   9    1.50    2.01
   5   2  -9   21.38    2.44
   5   2  -9   19.21    2.13
  -5  -2   9   16.22    3.35
   4   2  -9   51.33    4.36
   4   2  -9   52.42    4.04
  -4  -2   9   57.31    5.45
   3   2  -9    1.18    0.70
   3   2  -9    0.31    0.73
  -3  -2   9    0.85    1.46
   2   2  -9   45.22    3.75
   2   2  -9   44.76    3.50
  -2  -2   9   45.52    4.75
   1   2  -9   72.04    5.31
   1   2  -9   77.14    5.55
  -1  -2   9   82.33    6.82
   0   2  -9    0.03    0.47
   0   2  -9   -0.19    0.59
   0  -2   9    1.15    1.36
  -1   2  -9   63.09    4.87
  -1   2  -9   69.95    4.95
   1  -2   9   72.00    6.39
  -2   2  -9   97.42    6.97
  -2   2  -9  106.95    6.98
   2  -2   9  103.91    8.50
  -3   2  -9    1.88    0.78
  -3   2  -9    0.11    0.67
  -4   2  -9   30.26    2.99
  -4   2  -9   33.15    2.83
   4  -2   9   33.95    4.27
  -5   2  -9   55.31    5.01
  -5   2  -9   68.27    4.80
   5  -2   9   72.40    6.73
  -6   2  -9   17.34    2.33
  -6   2  -9   16.93    1.94
   6  -2   9   20.39    3.48
  -7   2  -9   25.71    2.38
  -7   2  -9   23.35    2.76
   7  -2   9   23.87    3.87
  -8   2  -9   25.31    2.43
  -8   2  -9   23.74    2.96
   8  -2   9   30.57    4.38
   8  -2   9   26.76    2.18
  -9   2  -9    9.88    1.48
  -9   2  -9    9.54    1.99
   9  -2   9   11.26    1.30
   9  -2   9   14.10    3.50
 -10   2  -9   37.19    3.99
  10  -2   9   43.53    5.31
  10  -2   9   40.08    3.02
 -11   2  -9    0.70    1.12
  11  -2   9    0.86    1.76
  11  -2   9    0.87    0.63
 -12   2  -9    9.39    2.17
  12  -2   9   10.69    3.23
  12  -2   9   11.28    1.53
 -13   2  -9   25.74    3.75
  13  -2   9   26.33    4.83
 -14   2  -9    0.56    1.28
  14  -2   9   -0.63    1.92
   9   1  -9    5.69    1.67
   8   1  -9   14.84    2.29
   7   1  -9   46.07    3.56
   7   1  -9   38.36    3.84
  -7  -1   9   40.29    4.92
   6   1  -9    5.44    1.10
  -6  -1   9    4.19    2.14
   5   1  -9   20.40    2.38
   5   1  -9   21.17    2.10
  -5  -1   9   20.03    3.59
   4   1  -9   39.71    3.08
   4   1  -9   39.39    3.53
  -4  -1   9   39.59    4.46
   3   1  -9    0.56    0.52
   3   1  -9   -0.10    0.57
  -3  -1   9    0.69    1.41
   2   1  -9   55.28    4.34
   2   1  -9   58.34    4.00
  -2  -1   9   51.46    5.29
   1   1  -9   27.16    2.37
   1   1  -9   29.80    2.68
  -1  -1   9   28.33    3.57
   0   1  -9    3.66    0.81
   0   1  -9    5.57    1.14
   0  -1   9    4.79    1.87
  -1   1  -9   78.42    5.67
  -1   1  -9   87.00    5.87
   1  -1   9   86.47    7.24
  -2   1  -9   80.87    5.51
  -2   1  -9   73.51    5.39
   2  -1   9   79.10    6.94
  -3   1  -9   50.03    4.16
  -3   1  -9   61.10    4.29
   3  -1   9   57.62    5.75
  -4   1  -9   52.37    3.95
  -4   1  -9   49.32    4.02
   4  -1   9   49.16    5.44
  -5   1  -9   34.27    3.07
  -5   1  -9   29.23    2.76
   5  -1   9   33.74    4.39
  -6   1  -9   22.57    2.61
  -6   1  -9   21.09    2.27
   6  -1   9   23.48    3.68
  -7   1  -9   60.35    5.05
  -7   1  -9   60.72    4.70
   7  -1   9   68.31    6.64
  -8   1  -9    0.93    1.09
  -8   1  -9    1.50    0.90
   8  -1   9    2.12    1.83
  -9   1  -9   41.06    3.93
  -9   1  -9   52.06    4.64
   9  -1   9   53.75    3.78
   9  -1   9   63.60    6.23
 -10   1  -9   25.27    3.19
  10  -1   9   22.02    3.96
  10  -1   9   29.23    2.36
 -11   1  -9   -1.64    0.74
  11  -1   9   -0.09    1.59
  11  -1   9   -0.65    0.46
 -12   1  -9   41.84    4.53
  12  -1   9   41.50    5.28
  12  -1   9   40.44    3.32
 -13   1  -9   15.51    2.96
  13  -1   9   20.26    2.14
  13  -1   9   27.39    4.26
 -14   1  -9    6.74    2.11
  14  -1   9    8.45    2.85
  14  -1   9   10.20    1.69
   9   0  -9    1.94    1.15
   8   0  -9   22.03    2.72
   7   0  -9   19.44    2.45
   7   0  -9   18.88    2.01
  -7   0   9   18.76    3.75
  -7   0   9   17.56    1.86
   6   0  -9    6.07    0.99
   6   0  -9    6.19    1.47
  -6   0   9    4.79    2.21
   5   0  -9   31.57    3.18
   5   0  -9   36.67    2.74
  -5   0   9   36.98    4.42
   4   0  -9   29.85    2.30
   4   0  -9   27.57    2.78
  -4   0   9   27.54    3.77
   3   0  -9   22.93    2.41
   3   0  -9   23.27    1.91
  -3   0   9   19.23    3.25
   2   0  -9   89.52    5.96
   2   0  -9   89.85    6.38
  -2   0   9   91.92    7.51
   1   0  -9    8.65    1.16
  -1   0   9    8.47    2.19
   0   0  -9   45.21    3.55
   0   0  -9   42.44    3.20
   0   0   9   46.00    4.66
  -1   0  -9  114.62    7.54
  -1   0  -9  124.48    7.86
   1   0   9  110.90    8.99
  -2   0  -9    4.56    1.02
   2   0   9    4.93    1.87
  -3   0  -9    5.56    1.17
  -3   0  -9    7.26    1.27
   3   0   9    7.50    2.45
  -4   0  -9  177.49   11.06
  -4   0  -9  156.74   11.02
   4   0   9  183.38   12.87
  -5   0  -9    7.34    1.41
  -5   0  -9   10.86    1.55
   5   0   9   11.21    2.96
  -6   0  -9   72.00    5.24
  -6   0  -9   69.17    5.30
   6   0   9   68.74    7.97
  -7   0  -9  140.35    9.66
   7   0   9  151.74   11.54
  -8   0  -9    5.60    1.43
  -8   0  -9    6.58    1.62
   8   0   9    8.08    2.36
  -9   0  -9   37.60    3.34
  -9   0  -9   33.51    3.59
   9   0   9   36.19    4.58
   9   0   9   29.51    2.69
 -10   0  -9   35.27    3.82
  10   0   9   43.96    5.19
  10   0   9   40.09    3.19
 -11   0  -9    2.18    1.29
  11   0   9    2.41    0.81
  11   0   9    1.34    1.63
  12   0   9   60.41    4.48
  12   0   9   55.92    6.20
 -13   0  -9   15.06    2.77
  13   0   9   19.42    2.21
  13   0   9   19.58    4.19
 -14   0  -9    4.91    1.89
  14   0   9    1.88    2.12
  14   0   9    2.43    1.03
 -15   0  -9   24.43    3.69
  15   0   9   27.62    2.73
  15   0   9   15.38    3.65
   9  -1  -9    0.24    0.89
  -9   1   9   -7.48    3.98
   8  -1  -9   37.25    3.64
  -8   1   9   35.87    5.17
   7  -1  -9   34.92    2.66
   7  -1  -9   35.83    3.73
  -7   1   9   28.39    4.52
   6  -1  -9    1.55    0.95
  -6   1   9    1.48    2.10
   5  -1  -9   52.35    3.54
   5  -1  -9   40.57    3.75
  -5   1   9   37.79    4.71
   4  -1  -9   15.59    1.40
   4  -1  -9   16.49    2.02
  -4   1   9   15.77    2.83
   3  -1  -9   68.24    4.41
   3  -1  -9   65.47    5.08
  -3   1   9   71.41    6.21
   2  -1  -9  138.51    9.16
   2  -1  -9  135.24    8.48
  -2   1   9  140.12   10.31
   1  -1  -9   10.81    1.56
   1  -1  -9   12.12    1.19
  -1   1   9   12.85    2.68
   0  -1  -9   69.40    4.56
   0  -1  -9   68.99    4.98
   0   1   9   67.52    6.05
  -1  -1  -9  107.63    6.88
  -1  -1  -9  104.90    7.22
   1   1   9  109.05    8.46
  -2  -1  -9    9.00    1.25
  -2  -1  -9    9.98    1.43
   2   1   9   11.24    2.67
  -3  -1  -9   23.25    2.43
  -3  -1  -9   29.98    2.39
   3   1   9   27.26    3.55
  -4  -1  -9   51.43    4.03
  -4  -1  -9   50.60    3.85
   4   1   9   50.51    5.22
  -5  -1  -9    8.25    1.46
  -5  -1  -9    7.20    1.41
   5   1   9    6.76    2.04
  -6  -1  -9   96.07    7.01
  -6  -1  -9  100.70    7.11
   6   1   9  106.65    8.66
  -7  -1  -9   50.27    4.22
  -7  -1  -9   52.17    4.34
   7   1   9   53.54    7.10
  -8  -1  -9    1.17    0.98
  -8  -1  -9    2.23    1.00
   8   1   9    4.06    1.84
   8   1   9    3.09    0.85
  -9  -1  -9    9.71    1.90
  -9  -1  -9   12.05    1.95
   9   1   9   10.05    1.41
   9   1   9   13.21    2.99
 -10  -1  -9   26.22    3.23
  10   1   9   30.02    4.02
  10   1   9   28.49    2.62
 -11  -1  -9   11.67    2.21
  11   1   9   14.00    3.20
  11   1   9   13.17    1.70
 -12  -1  -9   34.68    4.43
  12   1   9   42.52    3.46
  12   1   9   35.44    4.84
 -13  -1  -9    1.77    1.34
  13   1   9    2.55    1.07
  13   1   9    3.35    2.14
 -14  -1  -9   11.77    2.73
  14   1   9   16.01    2.10
  15   1   9   12.31    2.39
  15   1   9    9.79    2.94
  10  -2  -9   16.14    2.46
   9  -2  -9    7.11    1.78
  -9   2   9    2.83    2.87
   8  -2  -9   22.97    2.74
  -8   2   9   23.66    4.59
   7  -2  -9    1.30    0.82
  -7   2   9    2.36    2.22
   6  -2  -9   23.84    2.49
   6  -2  -9   22.45    1.70
  -6   2   9   19.77    3.66
   5  -2  -9   43.97    2.82
   5  -2  -9   45.20    3.78
  -5   2   9   34.74    6.33
   4  -2  -9   11.53    0.94
   4  -2  -9   11.08    1.65
  -4   2   9    9.02    2.27
   3  -2  -9   53.46    4.11
   3  -2  -9   47.07    3.17
  -3   2   9   55.86    5.30
   2  -2  -9   21.72    2.23
   2  -2  -9   19.98    1.48
  -2   2   9   24.07    3.26
   1  -2  -9   45.76    3.11
   1  -2  -9   50.27    3.84
  -1   2   9   50.23    4.81
   0  -2  -9  268.61   16.04
   0  -2  -9  230.92   15.95
   0  -2  -9  284.19   16.76
   0   2   9  294.07   18.09
  -1  -2  -9   85.50    6.14
  -1  -2  -9   89.65    5.65
   1   2   9   90.44    7.32
  -2  -2  -9   26.12    2.08
  -2  -2  -9   24.95    2.38
   2   2   9   25.62    3.36
  -3  -2  -9  140.41    8.71
  -3  -2  -9  131.73    9.05
   3   2   9  137.51   10.26
  -4  -2  -9   71.35    5.33
  -4  -2  -9   76.98    5.06
   4   2   9   65.05    6.24
  -5  -2  -9   42.01    3.52
  -5  -2  -9   37.31    3.21
   5   2   9   40.03    4.43
  -6  -2  -9   83.16    6.30
  -6  -2  -9   92.89    6.18
   6   2   9   81.28    7.34
  -7  -2  -9    8.35    1.65
  -7  -2  -9    7.25    1.62
   7   2   9    9.80    2.60
  -8  -2  -9   24.39    2.83
  -8  -2  -9   27.98    2.92
   8   2   9   26.59    2.41
   8   2   9   25.50    4.21
  -9  -2  -9   97.29    7.48
  -9  -2  -9  108.48    7.70
   9   2   9  105.46    8.66
   9   2   9  101.32    7.02
 -10  -2  -9   20.37    2.91
  10   2   9   21.62    3.58
  10   2   9   21.29    2.28
 -11  -2  -9   29.00    3.33
  11   2   9   28.39    3.99
  11   2   9   27.77    2.77
 -12  -2  -9   31.56    3.73
  12   2   9   33.87    3.13
  12   2   9   35.86    4.64
 -13  -2  -9   -1.30    0.81
  13   2   9   -1.14    1.43
  13   2   9   -1.01    0.63
 -14  -2  -9   19.99    3.41
  14   2   9   22.58    4.05
  14   2   9   18.82    2.44
 -15  -2  -9   24.17    3.67
  15   2   9   21.25    2.57
  10  -3  -9   11.42    2.23
 -10   3   9   14.41    4.50
   9  -3  -9   17.56    2.43
  -9   3   9   14.88    3.86
   8  -3  -9   41.29    3.77
  -8   3   9   35.70    5.48
   7  -3  -9    0.68    0.81
  -7   3   9    0.12    1.68
   6  -3  -9   46.32    4.17
  -6   3   9   57.09    5.86
   5  -3  -9   80.45    6.08
  -5   3   9   87.88    7.65
   4  -3  -9    0.22    0.50
  -4   3   9   -0.63    1.37
   3  -3  -9   99.11    6.91
  -3   3   9   97.72    8.15
  -2   3   9   78.53    6.86
   1  -3  -9   22.33    2.25
  -1   3   9   20.56    3.10
   0  -3  -9   99.98    6.71
   0  -3  -9   90.65    5.85
   0   3   9  102.49    7.91
  -1  -3  -9   39.97    3.49
  -1  -3  -9   38.60    2.88
   1   3   9   50.77    2.98
   1   3   9   46.78    4.58
  -2  -3  -9    3.74    1.01
  -2  -3  -9    4.57    0.78
   2   3   9    4.60    1.71
  -3  -3  -9   72.80    5.42
   3   3   9   74.84    6.39
  -4  -3  -9   39.42    2.90
  -4  -3  -9   32.26    3.16
   4   3   9   33.82    4.01
  -5  -3  -9   64.84    4.43
  -5  -3  -9   58.30    4.72
   5   3   9   52.36    5.40
  -6  -3  -9   78.43    5.37
  -6  -3  -9   66.18    5.53
   6   3   9   74.67    6.61
  -7  -3  -9   -0.75    0.75
  -7  -3  -9    0.08    0.69
   7   3   9   -0.69    1.08
  -8  -3  -9    7.16    1.73
  -8  -3  -9    5.59    1.51
   8   3   9    6.55    1.22
   8   3   9    7.39    2.29
  -9  -3  -9   47.21    4.57
  -9  -3  -9   48.17    4.32
   9   3   9   51.94    5.35
   9   3   9   49.45    3.94
 -10  -3  -9    2.93    1.15
  10   3   9    1.97    0.89
  10   3   9    1.75    1.56
 -11  -3  -9   39.08    3.92
  11   3   9   35.35    3.36
  11   3   9   36.74    4.44
 -12  -3  -9   11.29    2.55
  12   3   9    7.82    1.58
  12   3   9    6.21    2.15
 -13  -3  -9    1.75    1.46
  13   3   9    2.42    1.83
  13   3   9    4.75    1.26
 -14  -3  -9   34.64    4.21
  14   3   9   24.82    3.98
 -15  -3  -9   12.21    2.65
  15   3   9   15.92    2.22
  10  -4  -9    0.21    0.84
 -10   4   9   -2.85    2.55
   9  -4  -9   16.69    2.29
  -9   4   9    8.82    3.36
   8  -4  -9   39.74    5.15
  -8   4   9   43.32    5.80
   7  -4  -9    0.08    0.70
  -7   4   9    0.23    1.78
   6  -4  -9   31.67    3.13
  -6   4   9   35.38    4.87
   5  -4  -9   50.24    4.34
  -5   4   9   61.71    6.20
   4  -4  -9    8.03    1.53
  -4   4   9    5.16    2.03
   3  -4  -9   78.82    5.92
  -3   4   9   87.26    7.47
   2  -4  -9   29.89    3.08
  -2   4   9   29.92    3.86
   1  -4  -9   59.88    4.60
  -1   4   9   61.67    5.74
   0  -4  -9   99.52    7.00
   0   4   9  104.12    8.23
  -1  -4  -9   29.09    2.06
  -1  -4  -9   29.39    2.78
   1   4   9   36.61    3.91
  -2  -4  -9   70.02    4.58
  -2  -4  -9   69.11    5.23
   2   4   9   74.92    6.30
  -3  -4  -9  105.67    6.47
  -3  -4  -9   93.03    6.96
   3   4   9   97.80    7.87
  -4  -4  -9   -0.58    0.49
  -4  -4  -9    0.17    0.40
   4   4   9   -0.49    0.83
  -5  -4  -9   83.40    6.84
  -5  -4  -9  106.31    6.57
   5   4   9   99.28    7.85
  -6  -4  -9   49.93    4.67
  -6  -4  -9   64.66    4.51
   6   4   9   59.85    5.55
  -7  -4  -9   -0.38    0.54
  -7  -4  -9   -1.16    0.76
   7   4   9   -0.59    0.94
  -8  -4  -9   75.52    5.75
  -8  -4  -9   63.15    6.28
   8   4   9   82.41    6.81
  -9  -4  -9   33.93    3.54
  -9  -4  -9   28.65    3.23
   9   4   9   28.73    4.30
   9   4   9   35.66    2.99
 -10  -4  -9    8.88    1.81
  10   4   9   11.43    2.63
  10   4   9    8.07    1.55
 -11  -4  -9   55.90    5.10
  11   4   9   59.84    5.75
  11   4   9   55.62    4.59
 -12  -4  -9    6.94    2.57
  12   4   9   13.44    2.74
  12   4   9   15.72    2.03
 -13  -4  -9    0.71    1.08
  13   4   9    2.20    1.09
  13   4   9    0.12    1.77
 -14  -4  -9   36.48    4.30
  14   4   9   34.79    3.45
  14   4   9   24.64    4.00
 -15  -4  -9    3.92    1.84
  15   4   9    6.54    3.76
  15   4   9    6.42    1.72
  10  -5  -9   -0.07    0.75
 -10   5   9   -3.79    3.12
   9  -5  -9   36.85    3.68
  -9   5   9   38.89    5.94
   8  -5  -9    7.38    1.97
  -8   5   9    9.82    3.24
   7  -5  -9    7.29    1.60
  -7   5   9    5.03    2.41
   6  -5  -9   44.49    3.90
  -6   5   9   46.26    5.66
   5  -5  -9   10.81    1.84
  -5   5   9    9.20    2.83
   4  -5  -9   41.45    3.66
  -4   5   9   46.58    5.29
   3  -5  -9   57.16    4.71
  -3   5   9   70.97    7.04
   2  -5  -9   13.88    2.08
  -2   5   9   15.12    3.12
   1  -5  -9   69.49    5.43
  -1   5   9   82.38    6.96
   0  -5  -9   70.86    5.48
   0   5   9   82.82    6.84
  -1  -5  -9    8.40    0.78
  -1  -5  -9    7.89    1.47
   1   5   9    7.18    2.02
  -2  -5  -9  106.45    6.85
  -2  -5  -9  107.02    7.65
   2   5   9  118.98    8.77
  -3  -5  -9   52.45    3.77
  -3  -5  -9   46.50    4.13
   3   5   9   50.76    4.95
  -4  -5  -9   -0.26    0.35
  -4  -5  -9    0.04    0.70
   4   5   9    0.43    1.04
  -5  -5  -9   82.45    5.61
  -5  -5  -9   75.66    6.14
   5   5   9   85.22    6.91
  -6  -5  -9   31.40    2.85
  -6  -5  -9   29.18    3.25
   6   5   9   32.46    3.76
  -7  -5  -9    3.92    1.74
  -7  -5  -9    5.97    1.33
   7   5   9    6.07    1.73
  -8  -5  -9  123.77    8.64
   8   5   9  128.68    9.66
   8   5   9  121.63    8.35
  -9  -5  -9   21.76    2.65
  -9  -5  -9   20.73    2.95
   9   5   9   18.16    3.06
   9   5   9   20.85    2.25
 -10  -5  -9   10.72    1.97
  10   5   9   12.02    3.31
  10   5   9   12.01    1.77
 -11  -5  -9   18.62    2.99
  11   5   9   22.90    2.53
  11   5   9   22.20    3.40
  12   5   9    0.41    1.41
  12   5   9    0.12    0.73
 -13  -5  -9   27.35    3.69
  13   5   9   33.22    3.30
  13   5   9   27.11    3.95
 -14  -5  -9   36.33    4.37
  14   5   9   39.46    3.74
  14   5   9   24.23    3.98
  10  -6  -9    2.46    1.19
 -10   6   9    1.34    2.70
   9  -6  -9   46.10    4.26
   8  -6  -9    7.99    1.76
   8  -6  -9    6.95    2.45
  -8   6   9    8.49    3.55
   7  -6  -9   17.28    2.12
   7  -6  -9   12.08    2.93
  -7   6   9    9.99    3.50
   6  -6  -9   51.10    4.31
   6  -6  -9   50.44    5.37
  -6   6   9   52.72    6.25
   5  -6  -9   -0.31    1.34
   5  -6  -9    0.25    0.69
  -5   6   9   -1.05    1.57
   4  -6  -9   62.42    5.01
   4  -6  -9   64.48    6.11
  -4   6   9   74.27    7.07
   3  -6  -9   41.53    3.69
  -3   6   9   46.78    5.25
   2  -6  -9   -0.49    0.54
  -2   6   9   -0.92    0.96
   1  -6  -9   92.09    6.90
  -1   6   9  108.14    8.57
   0  -6  -9  118.50    8.38
   0   6   9  127.60    9.76
  -1  -6  -9    8.79    1.73
  -1  -6  -9    9.97    0.92
   1   6   9   13.50    1.26
   1   6   9    9.35    2.27
  -2  -6  -9  123.56    7.78
  -2  -6  -9  120.26    8.63
   2   6   9  132.42    9.71
  -3  -6  -9   13.07    1.40
  -3  -6  -9   14.04    2.07
   3   6   9   15.80    2.65
  -4  -6  -9   22.20    2.61
  -4  -6  -9   25.45    2.12
   4   6   9   23.06    3.14
  -5  -6  -9   84.05    5.46
  -5  -6  -9   73.12    6.06
   5   6   9   73.47    6.51
  -6  -6  -9   55.54    5.67
  -6  -6  -9   66.15    4.76
   6   6   9   66.52    5.80
  -7  -6  -9   43.84    4.32
  -7  -6  -9   47.59    3.87
   7   6   9   43.95    3.65
   7   6   9   46.91    4.68
  -8  -6  -9   96.72    7.35
  -8  -6  -9   97.08    6.83
   8   6   9   87.07    7.49
   8   6   9   89.46    6.51
  -9  -6  -9    7.75    2.23
  -9  -6  -9   11.41    2.04
   9   6   9    8.40    2.27
   9   6   9    8.20    1.56
 -10  -6  -9   21.83    2.77
  10   6   9   15.87    2.96
  10   6   9   22.70    2.41
 -11  -6  -9   19.93    2.87
  11   6   9   23.83    2.57
  11   6   9   17.67    3.50
 -12  -6  -9    2.70    1.31
  12   6   9    0.20    1.52
 -13  -6  -9   27.12    3.87
  13   6   9   29.39    3.19
 -14  -6  -9   13.58    2.78
  14   6   9   15.39    2.45
  10  -7  -9   18.61    3.85
 -10   7   9   19.24    5.17
   9  -7  -9   15.66    3.40
  -9   7   9   14.85    4.32
   8  -7  -9   -0.83    0.60
   8  -7  -9   -2.58    1.41
   7  -7  -9   36.20    4.81
   7  -7  -9   40.71    3.74
  -7   7   9   43.80    6.00
   6  -7  -9   38.04    3.62
   6  -7  -9   42.23    4.85
  -6   7   9   43.12    5.84
   5  -7  -9    2.68    2.01
   5  -7  -9    1.66    0.88
  -5   7   9    2.65    2.10
   4  -7  -9   81.95    6.29
   4  -7  -9   84.12    7.39
  -4   7   9   95.52    8.36
   3  -7  -9   60.61    5.73
   3  -7  -9   56.27    4.61
  -3   7   9   56.95    6.21
   2  -7  -9    8.28    2.37
  -2   7   9    6.21    2.40
   1  -7  -9   99.54    7.27
  -1   7   9  107.60    9.34
   0  -7  -9   91.40    6.90
   0   7   9  107.86    5.91
   0   7   9   83.81    6.22
   0   7   9  100.04    8.24
  -1  -7  -9    8.42    0.87
  -1  -7  -9    7.43    1.59
   1   7   9    7.85    2.13
  -2  -7  -9  145.68    8.68
  -2  -7  -9  124.14    9.45
   2   7   9  146.33   10.64
  -3  -7  -9   18.58    2.39
  -3  -7  -9   20.54    1.85
   3   7   9   20.08    3.09
  -4  -7  -9   24.38    2.15
  -4  -7  -9   18.36    2.53
   4   7   9   28.22    3.40
  -5  -7  -9   25.89    3.28
  -5  -7  -9   34.29    2.82
   5   7   9   35.51    3.86
  -6  -7  -9   35.27    2.99
  -6  -7  -9   28.89    3.45
   6   7   9   30.50    3.75
  -7  -7  -9   96.90    7.01
  -7  -7  -9   84.68    7.11
   7   7   9   93.78    6.53
   7   7   9   95.42    7.55
  -8  -7  -9   52.73    4.50
  -8  -7  -9   49.98    4.95
   8   7   9   54.62    5.09
   8   7   9   54.47    4.27
  -9  -7  -9   -0.39    1.09
  -9  -7  -9    0.47    0.92
   9   7   9    0.20    0.56
   9   7   9   -0.73    1.09
 -10  -7  -9   36.05    3.97
  10   7   9   39.95    3.58
  10   7   9   38.99    4.23
 -11  -7  -9   12.54    2.36
  11   7   9   16.33    2.94
 -12  -7  -9   -1.36    0.88
  12   7   9    0.07    0.82
  12   7   9   -1.76    1.14
 -13  -7  -9   15.14    2.85
  13   7   9   20.43    2.66
 -14  -7  -9    2.16    1.79
  14   7   9    4.55    1.67
  10  -8  -9   21.48    4.38
  10  -8  -9   18.92    2.64
 -10   8   9   16.05    4.58
   9  -8  -9   10.94    2.64
  -9   8   9   12.88    3.87
   8  -8  -9   -1.22    1.62
   8  -8  -9   -0.43    0.74
  -8   8   9   -3.24    2.30
   7  -8  -9   56.70    6.16
   7  -8  -9   54.63    4.72
  -7   8   9   65.84    7.69
   6  -8  -9   27.84    4.03
   6  -8  -9   28.33    2.98
  -6   8   9   33.79    5.06
   5  -8  -9    0.86    0.83
   5  -8  -9   -2.77    1.32
  -5   8   9   -0.28    1.80
   4  -8  -9   35.75    3.53
   4  -8  -9   46.02    4.92
  -4   8   9   41.42    5.40
   3  -8  -9    2.80    1.85
   3  -8  -9    3.47    1.21
  -3   8   9    3.07    2.06
   2  -8  -9   17.61    2.89
   2  -8  -9   16.44    2.04
  -2   8   9   16.96    3.44
   1  -8  -9   97.32    8.22
   1  -8  -9  117.32    8.81
  -1   8   9  110.23    6.79
  -1   8   9  116.15    9.43
  -1   8   9  116.02    7.17
   0  -8  -9   24.60    2.95
   0   8   9   33.70    2.23
   0   8   9   30.89    4.12
   0   8   9   29.86    2.27
  -1  -8  -9    4.97    1.47
  -1  -8  -9    5.01    0.77
   1   8   9    7.52    3.37
  -2  -8  -9   18.31    2.51
  -2  -8  -9   18.76    1.67
   2   8   9   16.84    3.37
  -3  -8  -9    1.93    0.68
   3   8   9    2.86    1.44
  -4  -8  -9   28.75    3.41
  -4  -8  -9   39.84    3.01
   4   8   9   35.84    4.12
  -5  -8  -9   72.80    6.35
  -5  -8  -9   83.32    5.71
   5   8   9   84.70    6.95
  -6  -8  -9    0.03    1.09
  -6  -8  -9    1.49    0.70
   6   8   9    1.00    1.19
   6   8   9    0.92    0.67
  -7  -8  -9   30.68    2.94
  -7  -8  -9   25.90    3.36
   7   8   9   27.66    3.48
   7   8   9   25.60    2.62
  -8  -8  -9   25.33    2.85
  -8  -8  -9   20.03    2.86
   8   8   9   24.09    2.44
   8   8   9   23.96    3.13
  -9  -8  -9    8.46    1.83
   9   8   9    8.89    1.67
   9   8   9    7.92    2.12
 -10  -8  -9   39.61    4.13
  10   8   9   37.35    4.22
  10   8   9   39.39    3.63
 -11  -8  -9    7.76    2.27
  11   8   9    9.09    1.80
  11   8   9    9.65    2.13
 -12  -8  -9    7.25    2.06
 -13  -8  -9   43.70    4.97
  13   8   9   47.00    4.41
   9  -9  -9    4.43    2.38
   9  -9  -9    4.24    1.19
  -9   9   9    1.21    2.81
   8  -9  -9   12.33    3.70
   8  -9  -9   10.14    1.98
  -8   9   9   12.16    4.19
   7  -9  -9   50.83    4.64
   7  -9  -9   59.38    6.73
  -7   9   9   63.23    8.08
   6  -9  -9   19.77    2.51
   6  -9  -9   19.54    3.45
  -6   9   9   17.71    4.28
   5  -9  -9   23.07    3.76
   5  -9  -9   18.59    2.45
  -5   9   9   24.02    4.84
   4  -9  -9   49.83    5.32
   4  -9  -9   44.28    4.05
  -4   9   9   44.51    5.77
   3  -9  -9    0.27    0.74
   3  -9  -9    0.51    1.41
  -3   9   9   -0.88    1.46
   2  -9  -9   79.89    6.67
   2  -9  -9   73.34    5.60
  -2   9   9   79.13    7.30
  -2   9   9   62.54    4.47
   1  -9  -9   44.51    4.72
   1  -9  -9   40.34    3.95
  -1   9   9   47.99    3.18
  -1   9   9   49.75    5.40
   0  -9  -9    3.06    1.34
   0  -9  -9    4.31    1.78
   0   9   9    1.90    0.57
   0   9   9    2.43    1.65
  -1  -9  -9  110.74    6.70
  -1  -9  -9   92.85    7.72
   1   9   9  110.55    8.94
  -2  -9  -9   58.73    5.36
  -2  -9  -9   68.50    4.46
  -3  -9  -9    1.95    1.31
  -3  -9  -9    2.02    0.73
   3   9   9    3.14    1.68
  -4  -9  -9   40.76    4.34
  -4  -9  -9   46.00    3.54
   4   9   9   42.61    4.66
  -5  -9  -9   31.69    3.78
  -5  -9  -9   36.41    3.03
   5   9   9   32.56    4.05
  -6  -9  -9   14.25    2.87
  -6  -9  -9   24.13    2.48
   6   9   9   21.61    3.18
   6   9   9   22.92    2.37
  -7  -9  -9   60.87    4.61
  -7  -9  -9   50.90    5.13
   7   9   9   53.83    4.40
   7   9   9   52.85    5.25
  -8  -9  -9   21.58    3.17
  -8  -9  -9   21.25    2.66
   8   9   9   18.69    2.99
   8   9   9   21.51    2.40
   9   9   9   16.82    2.26
   9   9   9   23.57    3.07
 -10  -9  -9   40.17    4.50
  10   9   9   36.57    3.61
  10   9   9   36.01    4.06
 -11  -9  -9    7.07    1.84
  11   9   9    9.06    1.85
 -12  -9  -9    9.67    2.15
  12   9   9   15.01    2.32
 -13  -9  -9   16.81    3.41
  13   9   9   20.65    2.76
   9 -10  -9    0.77    0.85
   9 -10  -9    1.16    2.12
  -9  10   9   -2.64    2.34
   8 -10  -9   26.01    4.92
   8 -10  -9   28.25    3.17
  -8  10   9   33.99    6.03
   7 -10  -9   43.53    4.20
   7 -10  -9   52.26    5.99
  -7  10   9   52.36    7.00
   6 -10  -9   -0.23    0.79
   6 -10  -9    0.62    2.59
  -6  10   9   -3.32    2.85
   5 -10  -9   34.08    4.63
   5 -10  -9   30.11    3.19
  -5  10   9   34.55    5.37
   4 -10  -9   39.33    4.75
   4 -10  -9   32.67    3.36
  -4  10   9   29.92    4.90
   3 -10  -9   -0.03    0.75
   3 -10  -9   -1.44    1.25
  -3  10   9   -0.38    0.33
  -3  10   9   -0.30    1.93
   2 -10  -9   73.38    6.57
   2 -10  -9   62.84    5.40
  -2  10   9   73.91    7.20
  -2  10   9   69.01    4.63
   1 -10  -9   34.42    3.74
   1 -10  -9   45.83    4.80
  -1  10   9   44.69    5.16
   0 -10  -9   -0.78    0.73
   0 -10  -9   -0.22    1.20
   0  10   9   -0.37    0.45
   0  10   9   -1.84    1.17
  -1 -10  -9   35.02    2.67
  -1 -10  -9   28.32    3.48
   1  10   9   36.46    4.59
   1  10   9   37.95    2.79
  -2 -10  -9    1.41    1.25
  -2 -10  -9    2.51    0.74
   2  10   9    1.92    1.48
  -3 -10  -9    3.55    1.60
  -3 -10  -9    5.83    1.08
   3  10   9    6.50    2.34
  -4 -10  -9  177.13   10.40
  -4 -10  -9  131.22   11.05
   4  10   9  166.76   15.05
  -5 -10  -9    0.01    0.74
  -5 -10  -9    0.89    1.41
   5  10   9   -0.03    0.64
   5  10   9    0.09    1.12
  -6 -10  -9   15.53    2.04
  -6 -10  -9    9.50    2.35
   6  10   9   12.25    2.56
   6  10   9   11.67    1.67
  -7 -10  -9   80.44    5.85
  -7 -10  -9   65.72    6.35
   7  10   9   76.29    5.75
   7  10   9   74.62    6.63
  -8 -10  -9    8.68    1.81
   8  10   9    9.94    2.10
   8  10   9   11.01    1.78
  -9 -10  -9   19.22    2.65
   9  10   9   19.91    3.01
 -10 -10  -9   28.80    3.50
  10  10   9   27.24    3.03
 -11 -10  -9   -0.22    1.08
  11  10   9   -1.38    0.64
 -12 -10  -9   33.26    4.36
  12  10   9   33.80    3.64
   8 -11  -9   18.94    2.57
   8 -11  -9   13.73    3.38
  -8  11   9   14.45    4.04
   7 -11  -9   35.67    3.75
   7 -11  -9   43.70    5.62
  -7  11   9   46.29    6.65
   6 -11  -9    1.73    2.05
   6 -11  -9    1.50    1.13
  -6  11   9    1.31    2.10
   5 -11  -9   61.36    7.13
   5 -11  -9   53.04    4.76
  -5  11   9   66.15    8.14
   4 -11  -9   33.97    4.55
   4 -11  -9   26.17    3.05
  -4  11   9   27.53    4.82
   3 -11  -9    6.38    1.65
   3 -11  -9    6.63    2.16
  -3  11   9    3.61    2.12
   2 -11  -9   72.35    6.71
   2 -11  -9   62.94    5.45
  -2  11   9   66.98    4.74
  -2  11   9   72.53    7.29
   1 -11  -9   50.79    5.19
   1 -11  -9   38.22    4.15
  -1  11   9   43.36    5.49
  -1  11   9   49.12    3.56
   0 -11  -9   12.19    2.68
   0 -11  -9    9.90    2.09
   0  11   9   11.50    3.03
   0  11   9   16.13    1.69
  -1 -11  -9   62.78    6.04
  -1 -11  -9   79.47    5.22
  -1 -11  -9   74.88    6.67
   1  11   9   80.54    5.32
   1  11   9   80.35    7.47
  -2 -11  -9    6.45    1.99
  -2 -11  -9    9.18    1.46
   2  11   9   10.26    2.93
  -3 -11  -9    7.08    1.92
  -3 -11  -9    6.84    1.30
   3  11   9    6.78    2.39
  -4 -11  -9   29.41    3.89
  -4 -11  -9   38.96    3.23
   4  11   9   33.55    4.29
   4  11   9   35.67    3.29
  -5 -11  -9   -0.01    1.24
  -5 -11  -9    0.28    0.84
   5  11   9   -2.12    1.32
   5  11   9   -0.09    0.70
  -6 -11  -9   26.75    3.70
  -6 -11  -9   30.03    2.97
   6  11   9   23.32    2.72
   6  11   9   28.36    3.81
  -7 -11  -9   51.51    4.23
  -7 -11  -9   45.05    5.00
   7  11   9   49.78    4.25
   7  11   9   42.31    4.87
   8  11   9    0.21    1.31
  -9 -11  -9    8.83    2.14
   9  11   9    8.56    2.11
   9  11   9   10.77    1.97
 -10 -11  -9   20.59    2.96
  10  11   9   18.55    2.55
 -11 -11  -9   -0.10    1.07
  11  11   9    0.47    1.02
   8 -12  -9   46.71    6.03
  -8  12   9   32.85    6.54
   7 -12  -9   22.94    4.77
   7 -12  -9   20.64    2.63
  -7  12   9   19.94    4.94
   6 -12  -9    6.65    3.08
   6 -12  -9    4.38    1.36
  -6  12   9    3.47    2.73
   5 -12  -9   27.44    4.50
   5 -12  -9   27.25    3.11
  -5  12   9   29.94    5.15
   4 -12  -9    5.44    1.49
   4 -12  -9    5.18    2.08
  -4  12   9    5.54    2.54
  -4  12   9    6.62    1.45
   3 -12  -9   16.81    3.92
   3 -12  -9    9.08    1.96
  -3  12   9    9.90    3.34
  -3  12   9    9.77    1.55
   2 -12  -9   84.13    7.30
   2 -12  -9   62.51    5.76
  -2  12   9   76.03    7.78
   1 -12  -9   15.33    3.32
   1 -12  -9    8.34    2.06
  -1  12   9   10.78    1.65
  -1  12   9   13.26    3.38
   0 -12  -9   30.67    4.04
   0  12   9   31.40    2.82
   0  12   9   30.53    4.56
  -1 -12  -9   40.78    3.15
  -1 -12  -9   32.78    3.91
  -1 -12  -9   40.01    4.53
   1  12   9   37.16    3.17
   1  12   9   36.32    4.86
  -2 -12  -9    3.39    1.66
  -2 -12  -9    3.03    1.60
   2  12   9    3.93    1.22
   2  12   9    3.76    2.01
  -3 -12  -9   46.71    4.91
  -3 -12  -9   51.75    4.00
   3  12   9   49.99    4.22
   3  12   9   45.25    5.43
  -4 -12  -9    5.57    2.08
  -4 -12  -9    7.58    1.53
   4  12   9    9.13    2.41
   4  12   9    7.76    1.68
  -5 -12  -9    2.57    1.14
  -5 -12  -9   -0.03    1.33
   5  12   9    2.16    0.99
   5  12   9    1.18    1.60
  -6 -12  -9   42.22    4.95
  -6 -12  -9   48.93    4.14
   6  12   9   40.54    5.18
   6  12   9   51.38    4.30
  -7 -12  -9   22.78    2.85
   7  12   9   20.36    3.36
   7  12   9   26.04    2.90
  -8 -12  -9    3.12    1.46
   8  12   9    4.82    1.48
   8  12   9    4.49    1.65
  -9 -12  -9   37.64    3.95
   9  12   9   38.27    3.85
 -10 -12  -9    1.89    1.56
  10  12   9    2.42    1.23
   7 -13  -9    9.69    3.56
   7 -13  -9    3.27    1.51
  -7  13   9    4.30    3.41
   6 -13  -9    5.48    1.65
   6 -13  -9   13.70    3.73
  -6  13   9    8.55    3.62
   5 -13  -9   29.82    4.85
   5 -13  -9   22.22    2.95
  -5  13   9   38.02    5.71
   4 -13  -9   -1.58    0.87
   4 -13  -9   -1.56    1.61
   3 -13  -9   11.18    3.28
   3 -13  -9   11.35    2.14
  -3  13   9   14.27    3.87
  -3  13   9   12.09    1.89
   2 -13  -9   34.30    3.99
  -2  13   9   53.11    9.11
  -2  13   9   46.67    3.73
   1 -13  -9    3.86    1.57
   1 -13  -9    1.54    1.56
  -1  13   9   -0.21    0.81
  -1  13   9    2.45    1.94
   0 -13  -9   29.65    3.81
   0 -13  -9   37.46    4.57
   0  13   9   42.41    3.45
   0  13   9   34.23    4.95
  -1 -13  -9   25.15    2.39
  -1 -13  -9   23.46    3.57
  -1 -13  -9   18.94    3.01
   1  13   9   25.91    2.51
   1  13   9   23.21    4.04
  -2 -13  -9    1.65    1.00
  -2 -13  -9    0.82    1.33
   2  13   9    2.83    0.96
   2  13   9    3.92    1.77
   2  13   9    1.35    0.92
  -3 -13  -9   20.77    3.23
  -3 -13  -9   20.45    2.40
   3  13   9   20.20    2.39
   3  13   9   20.40    2.48
   3  13   9   16.53    3.61
  -4 -13  -9    8.98    2.47
  -4 -13  -9   11.44    1.84
   4  13   9   10.58    2.03
   4  13   9   13.35    3.05
  -5 -13  -9    4.64    2.21
  -5 -13  -9    9.83    1.68
   5  13   9    7.83    1.82
   5  13   9    6.37    2.48
  -6 -13  -9   88.47    6.12
   6  13   9   74.05    6.02
   6  13   9   59.99    6.74
  -7 -13  -9    5.02    1.44
   7  13   9    8.82    1.85
  -8 -13  -9    5.58    1.56
   8  13   9    4.38    1.52
  -9 -13  -9   36.05    3.91
   9  13   9   29.99    3.55
   6 -14  -9   20.70    4.61
  -6  14   9   12.09    4.19
   5 -14  -9   50.01    6.28
  -5  14   9   43.58    6.72
   4 -14  -9   -0.57    1.01
  -4  14   9   -3.09    1.95
   3 -14  -9   25.44    3.21
   3 -14  -9   30.48    4.56
  -3  14   9   24.72    2.94
  -3  14   9   30.26    5.08
   2 -14  -9   19.19    2.68
   2 -14  -9   25.95    3.97
  -2  14   9   18.24    2.54
  -2  14   9   16.20    3.75
   1 -14  -9   -1.81    1.05
   1 -14  -9   -0.94    1.70
  -1  14   9   -0.47    1.44
   0 -14  -9   35.59    4.27
   0 -14  -9   46.67    5.63
   0  14   9   44.99    3.90
   0  14   9   42.95    6.12
   0  14   9   45.23    3.84
  -1 -14  -9   28.57    3.98
  -1 -14  -9   21.96    3.26
   1  14   9   26.59    2.87
   1  14   9   22.39    4.08
   1  14   9   28.74    2.77
  -2 -14  -9    3.42    1.66
  -2 -14  -9    4.36    1.14
   2  14   9    6.24    1.52
   2  14   9    6.21    2.45
   2  14   9    4.37    1.24
  -3 -14  -9   24.19    3.95
  -3 -14  -9   35.39    3.19
   3  14   9   29.59    3.03
   3  14   9   30.37    4.46
   3  14   9   31.72    3.35
  -4 -14  -9    3.42    1.27
   4  14   9    3.92    2.06
   5  14   9    7.54    2.36
  -6 -14  -9   32.07    3.39
   6  14   9   26.04    3.23
  -7 -14  -9   -0.50    1.22
   7  14   9   -0.96    0.82
  -8 -14  -9   31.98    3.75
   8  14   9   32.02    3.73
   4 -15  -9    0.18    1.97
   4 -15  -9   -0.01    1.84
  -4  15   9    0.18    2.30
   3 -15  -9   12.23    2.37
  -3  15   9   19.42    4.42
   2 -15  -9    5.72    1.83
   2 -15  -9   11.14    3.35
  -2  15   9    6.87    3.05
  -2  15   9    5.77    1.45
  -2  15   9    7.06    1.47
   1 -15  -9    1.43    2.00
   1 -15  -9    3.30    1.64
  -1  15   9    2.09    1.01
  -1  15   9    2.04    2.16
  -1  15   9   -0.05    0.69
   0 -15  -9   19.52    3.13
   0 -15  -9   22.15    3.82
   0  15   9   22.13    2.65
   0  15   9   18.68    4.18
   0  15   9   19.74    2.58
  -1 -15  -9    0.73    1.53
  -1 -15  -9   -4.08    2.80
   1  15   9   -0.36    0.87
   1  15   9   -0.13    0.74
   1  15   9   -0.67    2.56
  -2 -15  -9   14.68    2.22
  -2 -15  -9   11.67    2.61
   2  15   9   14.15    2.20
   2  15   9   19.80    2.51
   2  15   9   13.59    3.25
   3  15   9   45.98    4.30
   3  15   9   47.90    5.91
  -4 -15  -9    0.56    1.08
   4  15   9   -0.44    0.90
   4  15   9   -1.81    1.53
   4  15   9    1.91    1.05
  -5 -15  -9   37.64    3.84
   5  15   9   41.60    3.89
   5  15   9   30.49    3.67
  -6 -15  -9   24.36    3.13
   6  15   9   24.88    3.11
   1 -16  -9    3.37    2.00
   1 -16  -9    4.14    2.20
  -1  16   9    4.17    1.22
  -1  16   9    2.88    1.18
  -1  16   9    7.39    3.07
   0 -16  -9    6.87    2.72
   0 -16  -9   11.53    2.59
   0  16   9   14.68    3.76
  -1 -16  -9    3.03    2.07
   1  16   9    1.68    1.30
   1  16   9   -0.45    0.88
   1  16   9    2.07    2.18
   2  16   9    7.50    2.71
   2  16   9    4.56    1.33
   2  16   9    6.90    1.74
  -3 -16  -9   16.52    2.48
   3  16   9   15.82    2.34
   3  16   9   10.59    4.66
   3  16   9   11.31    2.05
  -1   8 -10   11.45    2.16
   1  -8  10   14.92    3.63
  -2   8 -10    4.17    1.66
   2  -8  10    3.44    2.73
  -3   8 -10   32.99    3.86
  -4   8 -10    6.56    1.87
   4  -8  10    6.85    2.50
  -5   8 -10    5.78    1.88
   5  -8  10    9.28    2.84
  -6   8 -10   29.48    3.82
   6  -8  10   30.75    5.29
  -7   8 -10    4.90    1.71
   7  -8  10    3.30    2.95
   2   7 -10    8.46    1.63
   2   7 -10    4.06    1.36
   1   7 -10   -0.88    0.96
  -1  -7  10   -3.45    1.99
   0   7 -10   28.12    3.34
   0   7 -10   30.87    2.90
   0  -7  10   29.30    4.43
  -1   7 -10   -0.25    1.06
  -1   7 -10    0.32    0.78
  -2   7 -10    4.67    1.50
  -2   7 -10    7.46    1.39
   2  -7  10    4.62    2.36
  -3   7 -10   29.81    3.55
  -3   7 -10   33.15    3.66
   3  -7  10   30.93    5.14
  -4   7 -10    1.30    1.42
   4  -7  10    2.64    3.08
  -5   7 -10    7.45    1.84
   5  -7  10   11.90    3.24
  -6   7 -10   23.75    3.23
   6  -7  10   31.09    5.08
  -7   7 -10   -1.64    1.11
   7  -7  10    0.91    2.17
  -8   7 -10   15.73    3.13
   8  -7  10   17.11    4.05
  -9   7 -10    9.82    2.26
   9  -7  10   12.78    3.68
 -10   7 -10    0.58    1.23
   3   6 -10   26.44    2.98
   3   6 -10   23.45    2.94
   2   6 -10    9.19    1.86
  -2  -6  10    3.32    2.54
   1   6 -10   20.12    2.29
   1   6 -10   16.97    2.46
  -1  -6  10   16.40    3.63
   0   6 -10   41.21    4.03
   0   6 -10   44.96    3.68
   0  -6  10   41.51    5.20
  -1   6 -10   -0.34    0.59
  -1   6 -10    0.27    1.08
  -2   6 -10   28.55    2.58
  -2   6 -10   25.33    3.13
   2  -6  10   24.05    4.09
  -3   6 -10   24.73    2.38
   3  -6  10   24.61    4.18
  -4   6 -10   -1.34    0.98
  -4   6 -10    0.24    0.70
   4  -6  10   -0.75    1.52
   5  -6  10   43.85    6.22
  -6   6 -10   45.54    4.73
   6  -6  10   52.93    6.80
  -7   6 -10    3.60    1.51
   7  -6  10    1.23    2.04
  -8   6 -10   24.61    3.42
   8  -6  10   36.75    5.54
  -9   6 -10   20.18    3.08
   9  -6  10   22.59    4.89
 -10   6 -10    2.55    1.42
  10  -6  10   -0.72    2.36
 -11   6 -10   12.61    2.84
  11  -6  10   10.75    3.75
   5   5 -10   10.24    2.04
   4   5 -10    2.83    1.13
   4   5 -10    0.05    0.92
   3   5 -10    2.66    1.12
  -3  -5  10    3.66    2.61
   2   5 -10   -1.48    0.68
   2   5 -10   -0.69    0.67
   1   5 -10   28.35    2.77
   1   5 -10   25.41    2.82
  -1  -5  10   23.34    4.04
   0   5 -10   51.21    4.25
   0   5 -10   53.21    4.50
   0  -5  10   55.00    5.84
  -1   5 -10    0.06    0.66
  -1   5 -10   -0.29    0.90
   1  -5  10   -2.44    1.48
  -2   5 -10   21.51    2.24
  -2   5 -10   21.19    2.70
   2  -5  10   19.09    3.80
  -3   5 -10   23.07    2.38
  -3   5 -10   25.19    2.94
   3  -5  10   28.68    4.16
  -4   5 -10    4.88    1.51
  -4   5 -10    3.16    1.07
   4  -5  10    8.53    2.72
  -5   5 -10   43.01    4.20
   5  -5  10   53.45    5.96
  -6   5 -10   12.09    1.53
  -6   5 -10   19.87    2.64
   6  -5  10   24.11    4.53
  -7   5 -10    6.19    1.68
  -8   5 -10   35.96    4.19
   8  -5  10   48.84    6.15
  -9   5 -10    1.38    1.24
   9  -5  10    3.55    2.36
 -10   5 -10   12.87    2.59
  10  -5  10   10.34    3.01
 -11   5 -10   26.86    3.75
  11  -5  10   24.21    4.97
 -12   5 -10   -0.14    1.44
  12  -5  10   -2.80    1.99
   6   4 -10   14.06    2.52
   6   4 -10    7.65    1.83
   5   4 -10    0.50    1.02
   5   4 -10   -0.84    0.79
   4   4 -10   28.18    2.89
   4   4 -10   27.63    3.05
   3   4 -10   19.00    2.47
  -3  -4  10   21.96    3.84
   2   4 -10    0.48    0.85
   2   4 -10    2.14    1.05
  -2  -4  10    0.67    1.74
   1   4 -10   28.88    2.98
   1   4 -10   34.55    3.04
  -1  -4  10   29.57    4.26
   0   4 -10   17.35    2.28
   0   4 -10   18.23    2.15
   0  -4  10   18.18    3.51
  -1   4 -10    9.24    1.42
  -1   4 -10    7.82    1.59
   1  -4  10    5.85    2.22
  -2   4 -10   60.50    4.64
  -2   4 -10   43.61    4.38
   2  -4  10   57.09    5.97
  -3   4 -10   22.25    2.72
  -3   4 -10   23.42    2.36
   3  -4  10   24.46    4.00
  -4   4 -10   15.91    2.38
  -4   4 -10   15.29    1.87
   4  -4  10   12.29    2.87
  -5   4 -10   39.12    3.42
  -5   4 -10   43.44    3.99
   5  -4  10   55.40    5.71
  -6   4 -10    2.48    1.19
  -6   4 -10    3.32    0.88
   6  -4  10    4.38    2.26
  -7   4 -10   36.15    3.63
  -7   4 -10   30.77    2.60
  -8   4 -10   49.13    4.18
  -9   4 -10   12.83    3.70
   9  -4  10    6.31    2.79
 -10   4 -10   10.33    2.26
  10  -4  10   17.80    4.27
 -11   4 -10   13.50    2.60
  11  -4  10    8.80    3.13
 -12   4 -10    1.12    1.57
  12  -4  10    0.24    2.45
 -13   4 -10   17.77    3.16
  13  -4  10   14.56    3.77
   6   3 -10   14.76    2.41
   6   3 -10   20.00    2.65
   5   3 -10   -0.84    0.83
   5   3 -10    0.60    0.84
   4   3 -10   34.86    3.41
   4   3 -10   34.29    3.19
  -4  -3  10   28.80    6.62
   3   3 -10    4.55    1.12
   3   3 -10    9.98    1.82
  -3  -3  10    5.15    2.81
   2   3 -10   10.97    1.74
   2   3 -10   14.95    1.94
  -2  -3  10   10.52    2.77
   1   3 -10   55.01    4.43
   1   3 -10   55.96    4.41
  -1  -3  10   55.30    5.86
   0   3 -10   17.01    2.50
   0   3 -10   20.67    2.11
   0  -3  10   11.72    2.72
  -1   3 -10   27.24    2.55
  -1   3 -10   24.19    2.66
   1  -3  10   25.05    3.88
  -2   3 -10   60.30    4.89
  -2   3 -10   65.50    4.84
   2  -3  10   66.86    6.54
  -3   3 -10    4.18    1.30
  -3   3 -10    6.36    1.33
   3  -3  10    4.80    2.31
  -4   3 -10   31.85    2.94
  -4   3 -10   33.03    3.29
   4  -3  10   33.88    4.63
  -5   3 -10   45.66    3.78
  -5   3 -10   44.76    4.17
   5  -3  10   58.41    6.08
  -6   3 -10    0.15    0.59
  -6   3 -10   -0.85    0.97
  -7   3 -10   38.63    3.13
  -7   3 -10   35.47    3.80
   7  -3  10   42.03    5.37
  -8   3 -10   28.41    3.24
  -8   3 -10   21.94    2.19
  -9   3 -10    2.24    0.78
  -9   3 -10    0.82    1.28
   9  -3  10    1.21    0.61
   9  -3  10   -0.05    1.91
 -10   3 -10   41.79    5.27
  10  -3  10   46.47    6.44
  10  -3  10   37.95    2.92
 -11   3 -10    8.28    2.01
  11  -3  10   13.45    3.93
 -12   3 -10    5.28    1.73
  12  -3  10    4.01    2.26
 -13   3 -10   46.14    4.98
  13  -3  10   37.29    6.00
   7   2 -10   20.78    2.80
   6   2 -10    7.44    1.50
   6   2 -10   11.15    2.13
   5   2 -10   10.94    1.77
  -5  -2  10    6.93    3.43
   4   2 -10   38.40    3.64
   4   2 -10   34.63    3.10
   3   2 -10    8.93    1.72
   3   2 -10    7.05    1.61
  -3  -2  10    5.35    2.98
   2   2 -10   30.99    2.83
   2   2 -10   33.93    3.14
  -2  -2  10   33.39    5.05
   1   2 -10   36.51    3.19
   1   2 -10   39.65    3.41
  -1  -2  10   39.84    4.75
   0   2 -10    0.72    0.76
   0   2 -10    0.48    0.65
   0  -2  10    1.26    1.73
  -1   2 -10   54.05    4.26
  -1   2 -10   54.57    4.23
   1  -2  10   57.73    5.85
  -2   2 -10  139.24    8.92
  -2   2 -10  126.10    8.84
   2  -2  10  135.23   10.64
  -3   2 -10    1.54    0.78
  -3   2 -10    0.65    0.82
   3  -2  10    1.18    1.83
  -4   2 -10   28.48    2.70
   4  -2  10   29.39    4.34
  -5   2 -10   30.87    3.21
  -5   2 -10   31.59    2.96
   5  -2  10   38.54    4.83
  -6   2 -10   -0.16    0.90
  -6   2 -10   -0.45    0.62
   6  -2  10    0.35    1.63
  -7   2 -10   70.70    5.76
  -7   2 -10   65.21    5.21
   7  -2  10   90.18    7.90
  -8   2 -10   35.36    3.55
  -8   2 -10   28.86    2.80
   8  -2  10   42.61    5.10
  -9   2 -10    6.03    1.29
  -9   2 -10    7.31    1.79
   9  -2  10    6.88    1.11
   9  -2  10   11.95    3.33
 -10   2 -10   23.28    3.05
  10  -2  10   21.45    2.00
  10  -2  10   24.29    4.74
 -11   2 -10    4.58    1.71
  11  -2  10    0.77    1.89
  11  -2  10    1.83    0.73
 -12   2 -10   20.92    3.39
  12  -2  10   18.71    2.80
  12  -2  10   14.52    3.61
 -13   2 -10   55.33    5.54
  13  -2  10   57.77    6.93
 -14   2 -10   -0.99    1.14
  14  -2  10   -2.25    1.94
   8   1 -10   16.61    2.57
   7   1 -10   51.66    4.70
   6   1 -10    5.36    1.23
   6   1 -10    6.71    1.54
   5   1 -10   16.45    1.94
   5   1 -10   19.66    2.47
  -5  -1  10   22.25    5.06
   4   1 -10   39.22    3.66
   4   1 -10   38.85    3.15
  -4  -1  10   49.86    7.10
   3   1 -10    0.76    0.67
   3   1 -10   -0.25    0.53
   2   1 -10   41.38    3.52
   2   1 -10   36.68    3.03
   1   1 -10   93.16    6.56
   1   1 -10   90.31    6.16
   0   1 -10    0.89    0.67
   0   1 -10    2.39    0.91
  -1   1 -10   61.18    4.49
   1  -1  10   62.39    6.21
  -2   1 -10   40.65    3.42
  -2   1 -10   37.71    3.29
   2  -1  10   46.78    5.04
  -3   1 -10    4.31    1.12
  -3   1 -10    2.66    0.96
   3  -1  10    2.94    1.73
  -4   1 -10   29.07    2.95
  -4   1 -10   33.19    2.93
   4  -1  10   34.55    4.48
  -5   1 -10   27.20    2.70
  -5   1 -10   30.00    2.99
   5  -1  10   27.21    4.11
  -6   1 -10   25.56    2.62
  -6   1 -10   27.05    2.95
   6  -1  10   29.88    4.36
  -7   1 -10   76.00    5.92
  -7   1 -10   72.06    5.55
   7  -1  10   81.79    7.76
  -8   1 -10   14.26    1.99
  -8   1 -10   16.91    2.42
   8  -1  10   21.80    3.72
  -9   1 -10    5.21    1.38
  -9   1 -10    5.77    1.56
   9  -1  10    4.47    2.01
   9  -1  10    7.46    1.15
 -10   1 -10   11.62    2.18
  10  -1  10   10.12    1.40
  10  -1  10    7.37    2.67
 -11   1 -10   -0.94    1.67
  11  -1  10    0.26    1.94
  11  -1  10   -0.82    0.57
 -12   1 -10   34.39    3.92
  12  -1  10   30.03    2.97
  12  -1  10   30.18    4.93
 -13   1 -10   33.59    4.11
  13  -1  10   34.08    5.06
  13  -1  10   32.79    3.01
 -14   1 -10   -1.93    1.23
  14  -1  10   -0.59    1.79
   8   0 -10    4.72    1.61
   7   0 -10   17.20    2.38
  -7   0  10   12.67    3.61
   6   0 -10   -0.07    0.81
   6   0 -10   -1.78    0.89
  -6   0  10   -1.31    1.95
   5   0 -10   32.17    3.24
   5   0 -10   30.21    2.45
  -5   0  10   26.82    4.30
   4   0 -10   22.79    2.50
   4   0 -10   19.35    1.86
  -4   0  10   23.25    3.70
   3   0 -10   -0.14    0.63
   3   0 -10   -0.26    0.46
   2   0 -10   62.18    4.41
   2   0 -10   64.35    4.96
  -2   0  10   75.29    8.41
   1   0 -10   34.22    2.95
   1   0 -10   27.84    2.40
  -1   0  10   30.04    4.41
   0   0 -10   14.24    1.49
   0   0 -10   12.14    1.70
   0   0  10    9.17    2.98
  -1   0 -10  111.52    7.59
  -1   0 -10  108.30    7.19
   1   0  10  110.04   10.61
  -2   0 -10    8.37    1.52
  -2   0 -10    7.69    1.30
  -3   0 -10   50.43    4.03
  -3   0 -10   54.14    4.19
   3   0  10   55.02    5.70
  -4   0 -10   38.72    3.47
  -4   0 -10   42.11    3.47
   4   0  10   44.99    5.13
  -5   0 -10   23.97    2.56
  -5   0 -10   24.21    2.63
   5   0  10   32.65    4.38
  -6   0 -10   72.27    5.61
  -6   0 -10   77.39    5.67
   6   0  10   75.85    7.41
  -7   0 -10   51.82    4.48
  -7   0 -10   52.42    4.33
   7   0  10   59.80    6.23
  -8   0 -10    6.48    1.53
  -8   0 -10    8.09    1.83
   8   0  10    6.34    2.60
  -9   0 -10   78.59    6.33
   9   0  10   89.74    8.08
   9   0  10   76.60    5.58
 -10   0 -10   26.44    2.85
 -10   0 -10   23.48    3.04
  10   0  10   24.26    4.17
  10   0  10   25.28    2.35
 -11   0 -10   -0.75    1.07
  11   0  10   -2.33    1.32
 -12   0 -10   38.61    4.25
  12   0  10   37.45    3.23
  12   0  10   38.16    5.54
 -13   0 -10   19.92    3.30
  13   0  10   11.77    3.05
  13   0  10   14.84    1.97
 -14   0 -10    6.88    2.01
  14   0  10    2.42    2.35
  14   0  10    5.99    1.34
   9  -1 -10    0.51    0.78
   8  -1 -10   30.24    3.18
  -8   1  10   22.56    4.69
   7  -1 -10   14.14    2.14
  -7   1  10   10.38    3.36
   6  -1 -10   10.17    1.98
  -6   1  10   15.85    3.47
   5  -1 -10   45.54    4.13
   5  -1 -10   53.98    3.79
  -5   1  10   46.22    5.48
   4  -1 -10    6.38    0.91
   4  -1 -10    7.01    1.50
  -4   1  10    6.77    2.28
   3  -1 -10    9.91    1.10
   3  -1 -10    9.33    1.70
  -3   1  10    8.58    3.77
   2  -1 -10  147.16    9.32
   2  -1 -10  151.69   10.08
  -2   1  10  159.06   13.16
   1  -1 -10   35.93    3.12
   1  -1 -10   31.23    2.50
  -1   1  10   37.94    4.35
   0  -1 -10   54.05    4.11
   0  -1 -10   45.26    3.60
   0   1  10   56.48    5.40
  -1  -1 -10  105.26    7.13
  -1  -1 -10   98.65    6.66
   1   1  10  105.12    8.49
  -2  -1 -10    4.22    1.12
  -2  -1 -10    5.35    1.06
   2   1  10    4.41    1.89
  -3  -1 -10   22.97    2.18
  -3  -1 -10   21.89    2.34
   3   1  10   22.08    3.81
  -4  -1 -10  131.91    9.46
  -4  -1 -10  142.46    9.28
   4   1  10  163.61   14.18
  -5  -1 -10   -0.74    0.62
  -5  -1 -10    0.10    0.73
   5   1  10   -0.46    1.04
  -6  -1 -10   74.26    6.11
  -6  -1 -10   85.17    6.14
   6   1  10   99.74    8.15
  -7  -1 -10   61.76    5.01
   7   1  10   64.11    6.53
  -8  -1 -10   -0.37    0.93
  -8  -1 -10    1.18    0.90
   8   1  10   -0.81    1.61
  -9  -1 -10   58.94    4.94
  -9  -1 -10   59.60    5.06
   9   1  10   61.04    6.38
   9   1  10   57.92    4.44
 -10  -1 -10    7.68    1.98
 -10  -1 -10    7.42    1.73
  10   1  10    5.75    2.09
 -11  -1 -10   10.31    2.29
  11   1  10   10.27    1.56
  11   1  10   11.24    3.15
 -12  -1 -10   47.13    4.91
  12   1  10   52.68    4.14
  12   1  10   51.16    5.94
 -13  -1 -10    9.62    2.40
  13   1  10    8.83    1.66
 -14  -1 -10    7.14    2.02
  14   1  10    8.72    1.70
  14   1  10    7.53    2.48
   9  -2 -10    3.96    1.45
  -9   2  10    6.20    3.35
   8  -2 -10   44.35    4.19
  -8   2  10   43.55    6.20
   7  -2 -10   30.55    3.14
  -6   2  10    3.43    2.36
   5  -2 -10   19.99    2.32
   4  -2 -10    6.93    1.51
  -4   2  10    9.83    2.74
   3  -2 -10   49.85    3.19
   3  -2 -10   52.25    4.02
   3  -2 -10   40.48    3.10
  -3   2  10   51.80    5.37
   2  -2 -10   52.72    3.61
   2  -2 -10   67.21    4.70
   1  -2 -10    9.36    1.52
   1  -2 -10    8.35    0.86
   1  -2 -10    6.58    0.83
  -1   2  10    8.92    2.28
   0  -2 -10  150.91    9.68
   0  -2 -10  165.79   10.88
   0   2  10  161.42   11.78
  -1  -2 -10  126.31    8.29
  -1  -2 -10  135.88    8.95
   1   2  10  140.12   10.34
  -2  -2 -10    1.83    0.84
   2   2  10    0.62    1.28
  -3  -2 -10   45.56    3.36
  -3  -2 -10   43.90    3.74
   3   2  10   43.93    4.90
  -4  -2 -10   52.51    4.49
  -4  -2 -10   61.96    4.30
   4   2  10   58.33    6.27
  -5  -2 -10    9.75    1.82
  -5  -2 -10    9.95    1.60
  -6  -2 -10   97.53    6.85
  -6  -2 -10   92.12    7.02
   6   2  10  104.41    8.53
  -7  -2 -10   21.19    2.40
  -7  -2 -10   17.74    2.41
   7   2  10   22.22    3.70
  -8  -2 -10   17.14    2.36
  -8  -2 -10   17.43    2.35
   8   2  10   15.70    3.35
  -9  -2 -10   44.29    4.12
  -9  -2 -10   39.62    4.12
   9   2  10   43.00    5.16
 -10  -2 -10    9.95    2.00
 -10  -2 -10    6.87    1.81
  10   2  10    9.84    1.58
  10   2  10    5.68    2.41
 -11  -2 -10   31.47    3.70
  11   2  10   32.02    4.50
  11   2  10   37.52    3.21
 -12  -2 -10   26.77    4.67
  12   2  10   22.09    3.64
  12   2  10   23.36    2.52
 -13  -2 -10    1.57    1.41
  13   2  10   -0.12    0.70
  13   2  10   -3.07    1.51
 -14  -2 -10   26.24    3.72
  14   2  10   24.77    2.89
  14   2  10   34.19    5.79
 -15  -2 -10    8.35    2.29
   9  -3 -10    6.88    1.84
  -9   3  10    6.90    3.04
   8  -3 -10   31.06    3.20
  -8   3  10   19.45    4.43
   7  -3 -10    5.72    1.52
  -7   3  10    3.17    2.56
   6  -3 -10   23.21    2.67
  -6   3  10   24.09    4.07
   5  -3 -10   26.63    2.83
  -5   3  10   28.47    4.28
   4  -3 -10    0.46    0.68
  -4   3  10   -1.86    1.26
   3  -3 -10   73.08    5.68
  -3   3  10   82.03    7.21
   2  -3 -10   85.11    6.27
  -2   3  10   91.76    9.06
   1  -3 -10    2.56    0.92
  -1   3  10   -0.05    1.19
   0  -3 -10   80.75    5.10
   0   3  10   87.64    7.37
  -1  -3 -10   53.71    4.39
  -1  -3 -10   48.75    3.63
   1   3  10   59.03    5.56
   1   3  10   64.07    3.73
  -2  -3 -10    5.91    0.94
  -2  -3 -10    7.78    1.49
   2   3  10    5.46    1.88
  -3  -3 -10  161.18    9.82
  -3  -3 -10  148.19   10.36
   3   3  10  159.41   11.68
  -4  -3 -10   29.04    2.52
  -4  -3 -10   30.06    2.97
   4   3  10   28.85    3.78
  -5  -3 -10   34.57    3.55
  -5  -3 -10   47.13    3.48
   5   3  10   45.42    5.18
  -6  -3 -10   36.08    3.14
  -6  -3 -10   31.21    3.29
  -7  -3 -10   15.21    2.13
  -7  -3 -10   13.21    2.21
   7   3  10   14.68    3.05
  -8  -3 -10   21.57    3.34
  -8  -3 -10   31.67    3.14
   8   3  10   29.35    3.94
  -9  -3 -10   44.19    4.22
  -9  -3 -10   43.87    4.10
   9   3  10   44.58    3.65
   9   3  10   40.46    5.00
 -10  -3 -10    2.63    1.22
 -10  -3 -10   -0.15    1.13
  10   3  10    4.21    2.01
  10   3  10    2.38    1.01
 -11  -3 -10   86.33    6.95
  11   3  10   83.67    7.79
  11   3  10   88.27    6.37
  12   3  10   15.65    3.22
  12   3  10   17.53    2.28
 -13  -3 -10    3.08    1.44
  13   3  10    1.34    1.00
 -14  -3 -10   14.71    2.85
  14   3  10   19.01    2.32
  14   3  10   11.58    2.91
 -15  -3 -10    8.17    2.26
   9  -4 -10   11.13    2.07
  -9   4  10    4.64    3.25
   8  -4 -10   16.65    2.35
  -8   4  10   12.49    4.15
   7  -4 -10   -0.17    0.52
  -7   4  10   -3.33    1.59
   6  -4 -10   48.75    4.30
  -6   4  10   56.35    6.40
   5  -4 -10   40.15    3.70
  -5   4  10   42.25    5.28
   4  -4 -10    6.99    1.50
  -4   4  10    6.43    2.49
   3  -4 -10   64.42    5.18
  -3   4  10   75.50    6.89
   2  -4 -10   24.53    2.63
  -2   4  10   28.41    3.76
   1  -4 -10   22.76    2.41
   0   4  10  122.97    9.84
  -1  -4 -10   54.08    3.68
  -1  -4 -10   62.61    4.65
   1   4  10   60.71    5.71
  -2  -4 -10   18.83    2.21
   2   4  10   17.50    2.90
  -3  -4 -10   74.42    5.98
   3   4  10   90.88    7.28
  -4  -4 -10    6.35    1.46
  -4  -4 -10    5.91    1.02
   4   4  10    5.26    1.95
  -5  -4 -10   97.86    6.44
  -5  -4 -10   90.51    6.96
   5   4  10   93.97    7.91
  -6  -4 -10   48.71    4.58
  -6  -4 -10   64.77    4.46
   6   4  10   54.29    6.03
  -7  -4 -10    1.81    1.44
  -7  -4 -10    3.41    1.03
   7   4  10    1.14    1.96
  -8  -4 -10   25.42    2.80
  -8  -4 -10   19.58    2.75
   8   4  10   21.67    3.51
  -9  -4 -10   34.39    3.54
  -9  -4 -10   35.38    3.75
   9   4  10   32.85    4.30
   9   4  10   32.12    3.04
 -10  -4 -10   15.24    2.39
 -10  -4 -10   19.96    2.82
  10   4  10   17.03    2.13
  10   4  10   13.61    3.05
 -11  -4 -10  118.27    8.81
  11   4  10  115.62    9.70
  11   4  10  120.29    8.31
 -12  -4 -10   19.64    4.08
  12   4  10   21.47    4.07
  12   4  10   30.51    3.02
 -13  -4 -10    8.98    2.19
  13   4  10   10.62    1.93
  13   4  10    9.52    2.64
 -14  -4 -10   25.06    3.60
  14   4  10   21.72    3.81
   9  -5 -10   12.00    2.33
  -9   5  10   15.53    6.78
   8  -5 -10   10.37    1.97
  -8   5  10    7.20    3.11
  -7   5  10   -2.17    2.05
   6  -5 -10   37.59    3.70
  -6   5  10   48.34    5.93
   5  -5 -10   27.21    2.88
  -5   5  10   28.32    4.59
   4  -5 -10   12.46    1.91
  -4   5  10   10.14    2.98
   3  -5 -10   90.49    6.76
  -3   5  10   98.64    8.54
   2  -5 -10    3.36    1.10
  -2   5  10    3.93    2.01
   1  -5 -10   36.99    3.53
  -1   5  10   47.80    5.01
  -1  -5 -10   43.47    3.62
  -1  -5 -10   34.37    2.45
   1   5  10   42.91    4.66
  -2  -5 -10   75.11    5.81
  -2  -5 -10   74.15    4.94
   2   5  10   85.79    7.07
  -3  -5 -10   84.14    6.60
   3   5  10   98.11    7.77
  -4  -5 -10    0.87    0.51
  -4  -5 -10   -0.12    0.78
   4   5  10   -0.06    1.17
  -5  -5 -10   67.91    5.66
  -5  -5 -10   71.69    5.01
   5   5  10   71.30    6.42
  -6  -5 -10   28.32    3.36
  -6  -5 -10   32.13    2.91
   6   5  10   35.77    4.15
  -7  -5 -10   -0.40    0.94
  -7  -5 -10   -0.21    0.72
  -8  -5 -10   84.36    6.10
  -8  -5 -10   74.13    6.43
   8   5  10   78.02    5.79
   8   5  10   85.90    7.36
  -9  -5 -10    5.49    1.85
  -9  -5 -10   10.78    2.02
   9   5  10   10.14    2.43
   9   5  10   10.49    1.60
 -10  -5 -10   10.54    2.37
 -10  -5 -10   11.38    2.08
  10   5  10   15.75    1.99
  10   5  10   15.16    3.19
 -11  -5 -10   85.61    6.90
  11   5  10   84.54    7.53
  11   5  10   84.18    6.35
 -12  -5 -10    2.98    1.60
  12   5  10    0.40    1.57
  12   5  10    0.29    0.82
 -13  -5 -10   10.02    2.27
  13   5  10    6.27    2.40
  13   5  10    6.89    1.60
 -14  -5 -10   36.21    4.44
  14   5  10   37.46    3.71
   9  -6 -10   24.00    2.97
  -9   6  10   30.63    6.30
  -8   6  10   -0.15    4.21
   7  -6 -10   11.90    2.43
  -7   6  10   18.88    4.42
   6  -6 -10   35.54    3.45
   5  -6 -10   10.24    1.88
  -5   6  10    8.00    2.67
   4  -6 -10   45.02    4.02
  -4   6  10   49.75    5.82
   3  -6 -10   67.80    5.38
  -3   6  10   72.83    7.13
   2  -6 -10    0.04    0.70
  -2   6  10    0.13    1.61
   1  -6 -10   79.66    6.17
  -1   6  10   89.33    7.83
   0  -6 -10  132.32    9.50
   0   6  10  150.85   11.14
  -1  -6 -10   18.79    1.33
  -2  -6 -10   24.50    3.08
  -2  -6 -10   22.38    1.84
   2   6  10   26.20    3.62
  -3  -6 -10   22.38    2.06
   3   6  10   24.99    3.41
  -4  -6 -10   23.03    2.08
   4   6  10   22.40    3.38
  -5  -6 -10  139.32    8.83
  -5  -6 -10  124.68    9.52
   5   6  10  141.99   10.45
  -6  -6 -10   55.96    5.29
  -6  -6 -10   65.00    4.72
   6   6  10   67.19    6.04
  -7  -6 -10    3.55    1.12
  -7  -6 -10    2.20    1.51
   7   6  10    3.49    1.90
  -8  -6 -10   38.12    3.61
  -8  -6 -10   33.07    3.91
   8   6  10   40.91    3.40
   8   6  10   43.11    6.13
  -9  -6 -10    7.65    2.05
  -9  -6 -10    9.79    1.96
   9   6  10    8.63    1.62
   9   6  10    5.79    2.02
 -10  -6 -10   21.37    3.10
 -10  -6 -10   18.81    2.69
  10   6  10   20.62    2.36
  10   6  10   17.31    3.16
 -11  -6 -10   34.14    3.80
  11   6  10   30.78    4.13
  11   6  10   36.68    3.40
 -12  -6 -10    0.76    1.13
  12   6  10    0.49    0.92
  12   6  10   -1.14    1.42
 -13  -6 -10   46.27    4.96
  13   6  10   42.75    4.16
  13   6  10   43.80    4.96
 -14  -6 -10   31.50    4.44
  14   6  10   35.14    3.69
   9  -7 -10   38.99    3.89
  -9   7  10   44.29    6.56
   8  -7 -10   -0.16    0.93
  -8   7  10   -3.63    2.64
   7  -7 -10   11.34    2.04
  -7   7  10    7.67    2.99
   6  -7 -10   21.94    3.63
   6  -7 -10   25.73    2.80
  -6   7  10   26.93    4.55
   5  -7 -10   -0.16    0.67
  -5   7  10   -0.79    1.60
   4  -7 -10  100.69    7.50
  -4   7  10  109.51    9.69
   3  -7 -10   30.06    3.09
  -3   7  10   32.08    4.53
   2  -7 -10    8.69    1.79
  -2   7  10   10.27    2.74
   1  -7 -10  132.77    9.77
  -1   7  10  160.73   11.74
   0  -7 -10   86.43    6.73
   0   7  10   98.71    8.37
  -1  -7 -10    2.68    1.16
  -1  -7 -10    1.78    0.39
   1   7  10    1.09    1.32
   1   7  10    2.91    0.67
  -2  -7 -10   61.59    5.39
  -2  -7 -10   70.78    4.47
   2   7  10   72.02    8.99
  -3  -7 -10   16.34    1.64
  -3  -7 -10   16.17    2.36
   3   7  10   20.57    5.12
  -4  -7 -10   11.58    2.26
  -4  -7 -10   13.83    1.51
   4   7  10   12.55    2.94
  -5  -7 -10   47.95    3.57
  -5  -7 -10   38.30    4.17
   5   7  10   46.25    4.88
  -6  -7 -10    5.77    1.23
  -6  -7 -10    5.04    1.79
   6   7  10    2.87    1.61
  -7  -7 -10   62.31    4.79
  -7  -7 -10   52.40    5.19
   7   7  10   62.34    6.37
   7   7  10   63.41    4.67
  -8  -7 -10   25.87    3.46
  -8  -7 -10   31.37    3.14
   8   7  10   30.06    2.85
  -9  -7 -10   -0.07    0.84
  -9  -7 -10   -0.06    1.09
   9   7  10    0.06    0.59
   9   7  10   -1.51    1.30
 -10  -7 -10   41.10    4.24
  10   7  10   40.84    3.77
  10   7  10   48.68    5.01
 -11  -7 -10   30.38    4.05
  11   7  10   29.02    3.48
  11   7  10   30.86    3.93
 -12  -7 -10    1.01    1.32
  12   7  10    0.06    0.77
  12   7  10   -1.42    1.40
 -13  -7 -10   41.74    4.60
  13   7  10   38.56    4.66
  13   7  10   41.72    4.04
 -14  -7 -10    8.89    2.55
  14   7  10    7.71    1.86
   9  -8 -10   13.55    3.78
  -9   8  10   15.47    4.80
   8  -8 -10    0.45    0.85
   8  -8 -10    0.71    1.80
  -8   8  10    0.38    2.40
   7  -8 -10   27.20    4.53
   7  -8 -10   23.56    2.84
  -7   8  10   31.26    6.53
   6  -8 -10   42.00    3.92
   6  -8 -10   44.13    5.41
  -6   8  10   42.28    6.27
   5  -8 -10    1.09    0.86
   5  -8 -10    0.97    1.52
  -5   8  10    0.07    2.25
   4  -8 -10   81.78    6.43
   4  -8 -10   91.34    7.81
  -4   8  10   84.71    8.36
   3  -8 -10   45.80    4.30
   3  -8 -10   53.03    5.53
  -3   8  10   56.85    6.24
   2  -8 -10    7.91    1.69
  -2   8  10   10.49    3.32
   1  -8 -10   75.40    6.07
  -1   8  10   85.54    7.80
   0  -8 -10    9.57    1.90
   0   8  10   10.54    2.63
   0   8  10    9.95    0.87
  -1  -8 -10   33.07    2.28
  -1  -8 -10   29.00    3.26
   1   8  10   36.43    4.60
  -2  -8 -10  142.99   10.71
   2   8  10  171.53   12.19
  -3  -8 -10   16.45    2.56
  -3  -8 -10   21.45    1.92
   3   8  10   22.18    3.46
  -4  -8 -10   15.04    1.74
  -4  -8 -10   12.89    2.47
  -5  -8 -10   48.80    3.77
  -5  -8 -10   41.86    4.37
   5   8  10   53.64    6.96
  -6  -8 -10   -1.19    0.97
  -6  -8 -10    0.60    0.70
  -7  -8 -10   42.47    3.65
  -7  -8 -10   37.24    4.22
   7   8  10   38.86    3.44
   7   8  10   39.18    5.94
  -8  -8 -10   20.29    2.90
  -8  -8 -10   21.45    2.65
   8   8  10   21.57    2.32
  -9  -8 -10    8.90    1.84
  -9  -8 -10    2.86    1.63
   9   8  10    6.15    1.40
   9   8  10    7.53    3.29
 -10  -8 -10   38.28    3.99
  10   8  10   33.94    3.42
  10   8  10   38.59    5.06
 -11  -8 -10   16.04    2.77
  11   8  10    9.40    2.32
  11   8  10   14.71    2.09
 -12  -8 -10    6.96    1.87
  12   8  10    4.26    1.96
  12   8  10    7.83    1.76
 -13  -8 -10   32.10    4.40
  13   8  10   35.46    3.69
   9  -9 -10   20.22    2.69
  -9   9  10   16.92    4.79
   8  -9 -10   -0.59    0.71
  -8   9  10   -1.80    2.63
   7  -9 -10   36.99    5.03
   7  -9 -10   35.91    3.68
  -7   9  10   32.55    5.99
   6  -9 -10   24.05    5.80
   6  -9 -10   28.58    3.11
  -6   9  10   29.72    7.43
   5  -9 -10    9.12    2.92
   5  -9 -10    9.43    1.85
  -5   9  10   12.12    4.04
   4  -9 -10   58.81    4.91
   4  -9 -10   57.38    6.02
  -4   9  10   57.75    6.65
   3  -9 -10    6.27    2.19
   3  -9 -10    4.63    1.44
  -3   9  10    6.61    2.92
   2  -9 -10   35.75    3.64
   2  -9 -10   44.45    4.87
  -2   9  10   39.50    5.19
   1  -9 -10   97.82    7.71
  -1   9  10  121.88    9.84
   0  -9 -10    1.31    1.05
   0   9  10    1.98    0.51
   0   9  10    1.68    1.77
  -1  -9 -10   19.96    1.56
  -1  -9 -10   13.27    2.42
   1   9  10   10.93    2.80
  -2  -9 -10   42.41    4.52
  -2  -9 -10   55.95    3.69
   2   9  10   58.04    5.81
  -3  -9 -10    0.36    1.12
  -3  -9 -10    0.68    0.62
   3   9  10    1.11    1.36
  -4  -9 -10   60.39    5.81
  -4  -9 -10   70.93    4.95
   4   9  10   72.68    6.64
  -5  -9 -10   44.98    3.59
  -5  -9 -10   39.01    4.33
   5   9  10   44.47    4.97
  -6  -9 -10    1.92    1.45
  -6  -9 -10    0.91    0.82
   6   9  10   -0.37    1.78
   6   9  10    3.08    0.99
  -7  -9 -10   37.27    3.30
  -7  -9 -10   30.20    3.82
   7   9  10   30.23    3.03
  -8  -9 -10    6.66    1.99
  -8  -9 -10    5.88    1.46
   8   9  10    7.33    1.60
  -9  -9 -10    8.78    1.79
  -9  -9 -10    7.70    2.34
   9   9  10   11.43    1.80
   9   9  10    4.31    3.07
 -10  -9 -10   47.66    5.08
  10   9  10   47.82    4.24
 -11  -9 -10    1.52    1.31
  11   9  10    3.62    1.18
 -12  -9 -10   11.81    2.47
  12   9  10   14.83    2.30
 -13  -9 -10   30.34    4.25
  13   9  10   31.03    3.45
   8 -10 -10   -1.10    1.70
   8 -10 -10   -0.99    0.84
  -8  10  10   -1.26    2.48
   7 -10 -10   32.52    4.87
   7 -10 -10   28.59    3.20
  -7  10  10   34.72    5.89
   6 -10 -10    3.10    2.31
   6 -10 -10    2.50    1.03
  -6  10  10    1.71    2.76
   5 -10 -10   21.96    5.86
   5 -10 -10   20.74    2.58
   4 -10 -10   46.51    4.51
   4 -10 -10   58.06    5.96
  -4  10  10   62.12    6.83
   3 -10 -10    0.10    0.78
   3 -10 -10   -1.67    1.26
   2 -10 -10   65.61    5.55
   2 -10 -10   79.37    6.95
  -2  10  10   86.22    7.76
  -2  10  10   60.08    4.43
   1 -10 -10   37.93    4.05
   1 -10 -10   53.27    5.33
  -1  10  10   50.56    5.82
  -1  10  10   46.67    3.19
   0 -10 -10    1.73    1.19
   0  10  10    0.38    1.90
  -1 -10 -10   77.19    4.79
  -1 -10 -10   58.16    5.70
   1  10  10   74.31    4.87
   1  10  10   74.28    7.13
  -2 -10 -10   20.17    3.01
  -2 -10 -10   27.95    2.18
   2  10  10   23.49    3.96
  -3 -10 -10   29.59    2.55
  -3 -10 -10   24.17    3.34
   3  10  10   27.56    3.93
  -4 -10 -10   61.08    6.12
  -4 -10 -10   81.53    5.37
   4  10  10   72.51    6.86
  -5 -10 -10    5.82    1.46
  -5 -10 -10    2.46    1.63
   5  10  10    2.35    1.93
  -6 -10 -10   21.79    3.23
  -6 -10 -10   30.07    2.87
   6  10  10   26.60    2.69
   6  10  10   27.69    3.84
  -7 -10 -10   47.55    5.27
  -7 -10 -10   60.23    4.66
   7  10  10   59.47    5.83
   7  10  10   52.10    4.50
  -8 -10 -10    3.94    1.33
  -8 -10 -10    1.40    1.69
   8  10  10    2.72    1.06
   8  10  10    4.21    2.24
  -9 -10 -10   20.59    2.74
   9  10  10   21.98    2.58
 -10 -10 -10   26.00    3.30
  10  10  10   17.32    3.69
  10  10  10   31.17    3.09
 -11 -10 -10   -0.38    1.11
  11  10  10   -0.41    0.59
 -12 -10 -10   11.72    2.71
  12  10  10   16.11    2.28
   8 -11 -10   10.93    3.27
   8 -11 -10    5.66    1.46
  -8  11  10    6.52    3.56
   7 -11 -10   23.23    2.80
   7 -11 -10   26.60    4.27
  -7  11  10   14.27    3.86
   6 -11 -10   -1.45    1.49
   6 -11 -10   -0.98    0.73
  -6  11  10   -2.76    1.56
   5 -11 -10   35.21    3.71
   5 -11 -10   44.83    5.33
  -5  11  10   43.27    6.02
   4 -11 -10   31.39    3.55
   4 -11 -10   37.68    6.28
  -4  11  10   38.60    8.29
   3 -11 -10   -1.03    0.70
   3 -11 -10    0.46    1.55
  -3  11  10   -1.22    1.47
   2 -11 -10   77.42    6.75
   2 -11 -10  107.13    8.41
  -2  11  10  100.61    9.05
  -2  11  10   84.81    5.76
   1 -11 -10   41.35    4.77
   1 -11 -10   35.11    3.71
  -1  11  10   38.92    5.26
   0 -11 -10    0.42    0.99
   0 -11 -10    0.01    1.28
   0  11  10   -0.72    1.27
  -1 -11 -10   74.02    4.85
   1  11  10   70.78    7.19
   1  11  10   68.22    4.92
  -2 -11 -10   13.99    2.68
   2  11  10   11.22    2.93
  -3 -11 -10   40.33    3.26
   3  11  10   35.70    4.84
  -4 -11 -10  101.37    8.67
  -4 -11 -10  105.37    8.04
   4  11  10  136.09    9.95
  -5 -11 -10    4.07    1.95
  -5 -11 -10    6.31    1.40
   5  11  10    7.24    1.54
   5  11  10    4.25    2.05
  -6 -11 -10    0.86    1.56
  -6 -11 -10    3.13    1.15
   6  11  10    3.90    1.85
   6  11  10    4.42    1.31
  -7 -11 -10   25.68    3.83
  -7 -11 -10   29.39    3.08
   7  11  10   25.51    3.98
   7  11  10   29.18    3.03
  -8 -11 -10   -1.73    0.88
  -8 -11 -10    0.57    1.06
   8  11  10   -0.13    0.68
   8  11  10   -0.51    1.29
  -9 -11 -10   44.22    4.43
   9  11  10   40.58    3.88
 -10 -11 -10    6.08    1.68
 -11 -11 -10    1.52    1.20
  11  11  10    0.41    0.96
   7 -12 -10   36.42    5.37
  -7  12  10   27.53    6.16
   6 -12 -10   -0.85    0.79
   6 -12 -10    0.71    2.10
  -6  12  10   -2.35    1.98
   5 -12 -10   20.07    2.83
   5 -12 -10   24.04    4.37
  -5  12  10   28.92    5.74
   4 -12 -10    8.99    2.02
   4 -12 -10    8.24    2.70
  -4  12  10    6.74    2.80
   3 -12 -10   17.95    2.48
   3 -12 -10   22.44    4.81
  -3  12  10   14.44    4.23
   2 -12 -10   46.61    4.88
   2 -12 -10   74.92    6.83
  -2  12  10   67.34    7.12
  -2  12  10   59.54    4.25
   1 -12 -10   28.13    3.91
   1 -12 -10   21.68    2.91
  -1  12  10   24.33    4.17
   0 -12 -10   10.57    2.33
   0 -12 -10   17.66    3.55
   0  12  10   16.48    4.03
   0  12  10   17.32    1.93
  -1 -12 -10   57.71    5.77
  -1 -12 -10   75.35    4.91
   1  12  10   69.94    7.17
   1  12  10   70.81    4.98
  -2 -12 -10   -0.32    0.65
  -2 -12 -10   -1.15    0.93
   2  12  10   -0.53    0.59
   2  12  10   -0.36    1.37
  -3 -12 -10   14.83    2.94
  -3 -12 -10   25.73    2.42
   3  12  10   23.41    4.13
  -4 -12 -10   34.17    4.47
  -4 -12 -10   52.55    3.94
   4  12  10   43.73    5.43
   4  12  10   46.50    4.04
  -5 -12 -10   -0.63    1.45
  -5 -12 -10   -0.40    0.85
   5  12  10   -0.93    1.42
   5  12  10   -0.83    0.68
  -6 -12 -10   44.24    3.76
  -6 -12 -10   27.03    4.28
   6  12  10   37.48    3.71
   6  12  10   39.14    4.86
  -7 -12 -10   23.27    3.87
  -7 -12 -10   35.34    3.37
   7  12  10   27.56    4.21
   7  12  10   33.06    3.32
  -8 -12 -10    1.02    1.17
   8  12  10    4.45    1.38
   8  12  10    0.76    1.58
  -9 -12 -10   27.56    3.75
   9  12  10   36.43    3.62
 -10 -12 -10    8.90    2.20
  10  12  10    8.81    2.03
   6 -13 -10   -0.86    1.06
   6 -13 -10    2.47    2.36
  -6  13  10   -1.89    2.34
   5 -13 -10   16.39    2.77
   5 -13 -10   29.11    4.68
  -5  13  10   22.04    5.32
   4 -13 -10    6.88    2.64
   4 -13 -10    6.54    1.83
  -4  13  10    1.49    2.79
   3 -13 -10   13.72    3.49
   3 -13 -10    8.93    2.00
  -3  13  10   13.24    3.81
   2 -13 -10   56.45    6.05
  -2  13  10   54.64    6.59
  -2  13  10   55.42    4.27
   1 -13 -10    6.79    3.82
   1 -13 -10    6.22    1.73
  -1  13  10    3.91    1.08
  -1  13  10    5.44    3.71
   0 -13 -10   13.17    2.90
   0 -13 -10    8.19    2.06
   0  13  10    6.96    1.33
   0  13  10   13.50    3.15
  -1 -13 -10   20.25    3.13
   1  13  10   32.05    4.62
   1  13  10   31.23    3.08
  -2 -13 -10   -1.37    1.15
  -2 -13 -10   -1.04    0.67
   2  13  10    2.94    1.68
  -3 -13 -10   42.69    3.59
  -3 -13 -10   32.69    4.29
   3  13  10   42.90    3.56
   3  13  10   43.95    3.88
   3  13  10   40.13    5.26
  -4 -13 -10   13.54    2.00
  -4 -13 -10    8.07    2.35
   4  13  10   11.74    2.88
   4  13  10    8.71    1.87
  -5 -13 -10    1.57    1.07
   5  13  10   -0.28    1.81
  -6 -13 -10   33.74    4.69
  -6 -13 -10   50.80    4.11
   6  13  10   35.98    5.00
   6  13  10   40.76    3.97
  -7 -13 -10    8.89    1.81
   7  13  10   10.33    1.95
   7  13  10    3.24    2.23
  -8 -13 -10    8.70    1.96
   8  13  10   12.05    4.01
   8  13  10   11.75    2.25
  -9 -13 -10    9.98    2.09
   9  13  10   11.29    2.22
   5 -14 -10    7.63    3.02
  -5  14  10    8.73    3.59
   4 -14 -10    2.53    2.37
   4 -14 -10    0.00    1.06
  -4  14  10   -0.96    2.45
   3 -14 -10   22.87    3.13
   3 -14 -10   27.03    4.30
  -3  14  10   34.53    5.18
   2 -14 -10   35.77    4.96
   2 -14 -10   29.19    3.57
  -2  14  10   37.17    5.59
  -2  14  10   38.89    4.51
   1 -14 -10   -2.26    1.12
   1 -14 -10   -1.99    1.52
  -1  14  10   -1.02    0.85
  -1  14  10    0.82    1.91
   0 -14 -10   33.21    3.91
   0 -14 -10   32.95    4.84
   0  14  10   43.97    3.54
   0  14  10   36.69    5.53
  -1 -14 -10    4.18    1.81
   1  14  10    3.83    1.27
   1  14  10    4.93    1.16
  -2 -14 -10    6.46    1.36
  -2 -14 -10    3.02    1.88
   2  14  10    4.82    2.16
   2  14  10    6.70    1.66
   2  14  10    5.35    1.34
  -3 -14 -10   31.35    3.05
   3  14  10   32.59    3.09
   3  14  10   29.84    3.33
  -4 -14 -10   18.77    2.45
  -4 -14 -10   11.13    2.85
   4  14  10   14.49    3.41
   4  14  10   15.20    2.30
  -5 -14 -10   15.58    2.34
  -5 -14 -10   14.47    3.18
   5  14  10   12.16    3.23
   5  14  10   12.87    2.46
  -6 -14 -10   65.67    5.21
   6  14  10   56.06    6.48
   6  14  10   56.60    5.20
  -7 -14 -10   -0.16    1.19
   7  14  10    0.55    1.00
  -8 -14 -10   18.39    2.89
   8  14  10   13.73    2.64
   3 -15 -10   11.92    2.56
  -3  15  10   21.21    4.66
   2 -15 -10    2.37    1.99
   2 -15 -10    3.27    1.54
  -2  15  10    7.26    2.75
   1 -15 -10    2.83    2.10
   1 -15 -10    1.97    1.65
  -1  15  10    5.84    2.52
  -1  15  10    5.83    1.51
   0 -15 -10   39.18    5.16
   0 -15 -10   27.67    3.63
   0  15  10   37.28    3.43
   0  15  10   36.27    3.44
  -1 -15 -10    2.18    2.62
   1  15  10    0.61    0.87
   1  15  10    2.27    2.19
  -2 -15 -10   20.47    3.43
   2  15  10   20.44    4.44
   2  15  10   27.36    2.83
   2  15  10   30.21    3.10
  -3 -15 -10   31.39    4.56
  -3 -15 -10   47.93    3.89
   3  15  10   38.98    3.97
   3  15  10   31.51    7.10
   3  15  10   41.08    3.82
  -4 -15 -10    6.02    2.29
  -4 -15 -10   10.42    1.92
   4  15  10    9.39    1.89
   4  15  10    6.77    1.61
   4  15  10    4.81    2.27
  -5 -15 -10   10.44    1.90
   5  15  10   10.98    2.28
   5  15  10    7.91    2.65
  -6 -15 -10   29.09    3.41
   6  15  10   27.32    3.39
   0 -16 -10   22.87    4.38
   0  16  10   30.29    5.25
   0  16  10   28.86    3.09
   0  16  10   22.99    2.75
  -1 -16 -10   -1.10    1.38
   1  16  10   -1.13    1.68
   1  16  10   -0.84    0.85
  -2 -16 -10    3.58    2.18
   2  16  10    5.46    1.57
   2  16  10    1.68    1.14
   2  16  10    6.91    2.68
  -3 -16 -10   12.20    1.98
   3  16  10   11.68    1.97
  -1   7 -11   29.23    2.91
  -1   7 -11   31.55    3.55
  -2   7 -11    5.34    1.49
  -2   7 -11   10.56    2.19
   2  -7  11    4.00    2.65
  -3   7 -11    7.08    1.71
   3  -7  11   14.57    3.32
  -4   7 -11    7.81    2.22
   4  -7  11    7.68    2.87
  -5   7 -11    5.31    1.53
   5  -7  11    1.61    2.29
  -6   7 -11   20.30    3.26
   6  -7  11   29.53    5.16
  -7   7 -11   -0.46    1.33
   7  -7  11   -2.77    2.10
  -8   7 -11    4.72    1.74
   8  -7  11    5.51    2.79
   1   6 -11    2.44    1.31
   1   6 -11    3.80    1.15
  -1  -6  11   -3.46    2.05
   0   6 -11   15.33    2.49
   0   6 -11   19.25    2.27
   0  -6  11   15.06    3.76
  -1   6 -11   -1.53    0.97
  -1   6 -11    0.53    0.82
   1  -6  11   -3.45    1.72
  -2   6 -11   10.51    1.69
  -2   6 -11    9.11    2.04
   2  -6  11    9.56    3.27
  -3   6 -11   26.52    3.14
  -3   6 -11   19.41    2.32
  -4   6 -11   -0.17    1.02
   4  -6  11   -2.08    1.94
  -5   6 -11   23.51    3.30
   5  -6  11   31.94    4.99
  -6   6 -11    9.54    2.21
   6  -6  11   12.07    3.75
  -7   6 -11   -0.78    1.04
   7  -6  11   -0.31    2.03
  -8   6 -11   12.64    2.70
   8  -6  11   12.24    3.46
  -9   6 -11    9.69    2.37
   9  -6  11    3.95    2.57
 -10   6 -11    5.20    1.62
  10  -6  11    3.04    2.73
   3   5 -11   24.28    3.35
   3   5 -11   23.71    3.00
   2   5 -11   -0.24    0.85
   2   5 -11   -0.71    0.92
   1   5 -11   12.79    2.19
  -1  -5  11   14.85    3.41
   0   5 -11   30.23    3.44
   0   5 -11   37.13    3.32
   0  -5  11   33.38    4.70
  -1   5 -11   -1.42    0.83
  -1   5 -11    0.47    0.86
   1  -5  11    1.08    2.19
  -2   5 -11   17.46    2.12
  -2   5 -11   15.49    2.47
   2  -5  11   22.59    4.21
  -3   5 -11   14.03    1.85
  -3   5 -11   14.63    2.44
   3  -5  11   10.14    2.73
  -4   5 -11    2.06    1.38
  -4   5 -11    3.17    1.60
   4  -5  11    4.56    2.47
  -5   5 -11   25.74    2.54
  -5   5 -11   28.18    3.19
  -6   5 -11    7.98    2.89
   6  -5  11    8.34    2.84
  -7   5 -11    7.45    2.06
   7  -5  11    8.03    2.81
  -8   5 -11   24.86    3.40
   8  -5  11   19.61    4.37
  -9   5 -11   12.36    2.36
   9  -5  11   20.60    4.63
 -10   5 -11    6.11    1.93
  10  -5  11    9.77    3.86
 -11   5 -11    8.95    2.37
  11  -5  11    7.64    3.45
   4   4 -11   21.18    2.62
   4   4 -11   21.45    2.89
   3   4 -11   29.37    3.07
   3   4 -11   30.28    3.01
  -3  -4  11   20.28    3.99
   2   4 -11    1.45    0.89
   2   4 -11    2.14    1.11
  -2  -4  11   -2.17    1.98
   1   4 -11   40.60    3.66
  -1  -4  11   36.72    5.13
   0   4 -11   36.86    3.30
   0   4 -11   37.58    3.50
   0  -4  11   29.87    4.70
  -1   4 -11   -0.46    0.72
  -1   4 -11   -0.04    0.90
   1  -4  11   -1.55    1.51
  -2   4 -11   31.14    2.91
  -2   4 -11   30.03    3.18
   2  -4  11   32.62    4.56
  -3   4 -11   16.62    2.45
  -3   4 -11   17.15    2.11
   3  -4  11   24.20    3.95
  -4   4 -11   23.35    2.54
  -4   4 -11   23.62    2.92
   4  -4  11   29.01    4.16
  -5   4 -11   35.76    3.48
  -5   4 -11   27.66    2.87
   5  -4  11   43.59    5.37
  -6   4 -11    4.25    1.11
  -6   4 -11    5.57    1.56
   6  -4  11    4.98    2.22
  -7   4 -11   14.97    2.63
  -7   4 -11   12.79    1.61
   7  -4  11   18.07    4.43
  -8   4 -11   48.30    5.66
   8  -4  11   55.49    6.83
  -9   4 -11    1.59    1.35
   9  -4  11    4.66    3.11
 -10   4 -11    8.00    2.01
  10  -4  11    4.02    3.08
 -11   4 -11   21.62    3.37
  11  -4  11   31.59    5.62
 -12   4 -11   -0.03    1.21
  12  -4  11   -3.90    2.20
   4   3 -11   36.35    3.45
   4   3 -11   42.07    3.85
  -4  -3  11   29.72    5.18
   3   3 -11    7.60    1.69
   3   3 -11    7.04    1.47
  -3  -3  11    6.47    2.77
   2   3 -11    3.01    1.11
   2   3 -11   10.98    1.90
  -2  -3  11    6.16    2.71
   1   3 -11   52.57    4.24
   1   3 -11   52.79    4.15
  -1  -3  11   42.21    5.50
   0   3 -11   15.62    1.99
   0   3 -11    9.73    1.71
   0  -3  11   12.52    3.17
  -1   3 -11    5.71    1.38
  -1   3 -11    2.73    1.02
   1  -3  11    2.36    1.94
  -2   3 -11   40.12    3.66
  -2   3 -11   42.32    3.53
   2  -3  11   39.70    5.07
  -3   3 -11    0.81    0.82
  -3   3 -11   -0.96    0.83
   3  -3  11    1.02    1.71
  -4   3 -11   43.82    4.09
  -4   3 -11   45.91    3.87
   4  -3  11   50.26    5.81
  -5   3 -11   39.20    3.69
  -5   3 -11   31.24    3.13
   5  -3  11   40.25    5.24
  -6   3 -11    2.67    1.18
  -6   3 -11    1.90    0.84
   6  -3  11    3.51    2.02
  -7   3 -11   22.15    2.71
  -7   3 -11   17.11    2.08
   7  -3  11   27.16    4.35
  -8   3 -11   28.12    3.15
  -8   3 -11   19.79    2.15
  -9   3 -11    1.10    0.73
   9  -3  11   -0.83    1.60
   9  -3  11    0.07    0.53
 -10   3 -11   17.86    3.07
  10  -3  11   21.56    4.81
 -11   3 -11   11.10    2.29
  11  -3  11   12.71    4.14
 -12   3 -11    1.97    1.35
  12  -3  11    1.35    2.82
 -13   3 -11   25.54    3.92
  13  -3  11   31.83    5.45
   6   2 -11   25.40    3.09
   5   2 -11    0.33    0.95
   4   2 -11   53.13    4.68
  -4  -2  11   55.73    6.35
   3   2 -11    1.77    1.01
  -3  -2  11    3.53    2.15
   2   2 -11    6.78    1.31
   2   2 -11   11.21    1.79
  -2  -2  11   12.27    3.14
   1   2 -11   49.95    4.14
   1   2 -11   47.12    3.87
  -1  -2  11   50.32    5.54
   0   2 -11    6.09    1.40
   0   2 -11    5.00    1.19
   0  -2  11    4.62    2.26
  -1   2 -11   39.67    3.49
  -1   2 -11   40.18    3.49
   1  -2  11   43.21    5.16
  -2   2 -11   63.41    4.84
   2  -2  11   60.63    6.46
  -3   2 -11    1.21    0.90
  -3   2 -11   -0.51    0.75
   3  -2  11    1.32    1.72
  -4   2 -11   48.67    4.15
  -4   2 -11   47.79    4.05
   4  -2  11   55.86    5.91
  -5   2 -11   34.00    3.29
  -5   2 -11   30.19    3.07
   5  -2  11   37.01    4.92
  -6   2 -11    1.32    1.14
  -6   2 -11    1.77    0.89
   6  -2  11    2.85    2.20
  -7   2 -11   21.42    2.50
  -7   2 -11   26.28    3.06
   7  -2  11   35.70    4.74
  -8   2 -11    5.27    1.69
  -8   2 -11    1.94    0.95
   8  -2  11    3.26    2.44
  -9   2 -11    3.80    1.21
  -9   2 -11    5.58    1.66
   9  -2  11    8.95    4.16
   9  -2  11    7.92    1.17
 -10   2 -11   45.03    5.56
  10  -2  11   42.78    3.33
  10  -2  11   43.77    6.07
 -11   2 -11   10.38    2.37
  11  -2  11    5.16    1.17
  11  -2  11   10.34    3.53
 -12   2 -11   -0.12    1.14
  12  -2  11   -1.80    1.66
 -13   2 -11    7.86    2.08
  13  -2  11    7.01    2.86
   7   1 -11   26.73    3.25
   6   1 -11   14.50    2.29
  -6  -1  11    7.36    4.64
   5   1 -11   23.19    2.87
  -5  -1  11   26.63    4.58
   4   1 -11   34.44    2.96
   4   1 -11   38.36    3.59
  -4  -1  11   33.38    4.71
   3   1 -11    5.73    1.41
   3   1 -11    1.58    0.94
  -3  -1  11    1.98    2.05
   2   1 -11   29.49    2.96
   2   1 -11   28.79    2.59
  -2  -1  11   28.88    4.06
   1   1 -11   30.44    2.92
   1   1 -11   27.07    2.53
  -1  -1  11   27.74    4.10
   0   1 -11    4.66    1.20
   0   1 -11    2.58    0.87
   0  -1  11    3.03    1.79
  -1   1 -11   54.15    4.23
  -1   1 -11   48.34    3.95
   1  -1  11   53.61    5.75
  -2   1 -11   24.80    2.52
  -2   1 -11   24.57    2.52
   2  -1  11   24.87    3.98
  -3   1 -11   23.70    2.53
  -3   1 -11   23.43    2.77
   3  -1  11   31.66    4.24
  -4   1 -11   73.27    5.47
  -4   1 -11   73.31    5.57
   4  -1  11   69.03    7.16
  -5   1 -11   34.20    3.24
  -5   1 -11   35.13    3.21
   5  -1  11   28.31    4.47
  -6   1 -11   11.12    1.99
  -6   1 -11    7.61    1.66
   6  -1  11   11.27    3.32
  -7   1 -11   69.46    5.77
  -7   1 -11   81.33    6.17
   7  -1  11   89.57    8.13
  -8   1 -11   16.01    2.19
  -8   1 -11   18.14    2.63
   8  -1  11   22.12    4.25
  -9   1 -11   14.61    2.02
  -9   1 -11   17.99    2.64
   9  -1  11   19.95    4.31
   9  -1  11   17.10    2.21
 -10   1 -11   21.02    3.12
 -10   1 -11   20.60    2.43
  10  -1  11   27.43    6.47
  10  -1  11   20.24    2.11
 -11   1 -11    0.46    0.92
  11  -1  11   -0.42    0.57
 -12   1 -11   24.56    3.39
  12  -1  11   16.21    3.84
  12  -1  11   25.34    2.61
 -13   1 -11   39.67    4.56
  13  -1  11   32.26    5.41
 -14   1 -11   -1.49    1.04
   7   0 -11   45.41    4.32
   6   0 -11   14.15    2.25
  -6   0  11    9.28    3.45
   5   0 -11   20.44    2.60
  -5   0  11   23.03    4.16
   4   0 -11    5.74    1.03
  -4   0  11   10.73    2.94
   3   0 -11    1.18    0.61
   3   0 -11    3.32    1.19
  -3   0  11    2.41    1.64
   2   0 -11   60.85    4.39
   2   0 -11   64.53    5.07
  -2   0  11   68.72    6.56
   1   0 -11   63.72    4.51
   1   0 -11   65.99    5.10
  -1   0  11   66.58    6.44
   0   0 -11    0.51    0.61
   0   0 -11    1.49    0.81
   0   0  11    1.23    1.55
  -1   0 -11   54.91    4.13
  -1   0 -11   61.07    4.56
   1   0  11   53.34    5.79
  -2   0 -11    1.61    0.86
  -2   0 -11    2.57    0.94
   2   0  11    1.24    1.45
  -3   0 -11    8.73    1.56
   3   0  11    7.68    2.50
  -4   0 -11   67.75    5.17
  -4   0 -11   70.90    5.42
   4   0  11   72.23    6.98
  -5   0 -11    0.60    0.99
  -5   0 -11    1.14    0.93
   5   0  11    1.91    1.88
  -6   0 -11   44.86    4.02
  -6   0 -11   43.99    3.99
   6   0  11   52.22    5.80
  -7   0 -11   89.03    6.70
  -7   0 -11   85.12    6.67
   7   0  11  101.48    8.83
  -8   0 -11    6.87    1.61
  -8   0 -11   12.65    2.27
   8   0  11   10.57    2.58
  -9   0 -11   13.70    2.08
  -9   0 -11   15.53    2.36
   9   0  11   11.49    3.14
   9   0  11   13.33    1.63
 -10   0 -11    5.92    1.79
 -10   0 -11   12.36    2.35
  10   0  11    7.97    2.83
  11   0  11   -1.08    0.56
  11   0  11    0.61    2.95
 -12   0 -11   38.74    4.43
  12   0  11   34.10    3.18
  12   0  11   41.15    5.55
 -13   0 -11   22.11    3.35
  13   0  11   12.79    3.42
  13   0  11   22.29    2.33
 -14   0 -11   -1.45    1.14
  14   0  11   -1.04    0.79
  14   0  11   -1.34    1.78
   8  -1 -11    8.46    2.01
   7  -1 -11   23.75    2.83
  -7   1  11   13.56    3.96
   6  -1 -11   -0.29    0.53
   5  -1 -11   32.23    3.25
  -5   1  11   24.10    4.66
   4  -1 -11   27.98    2.92
  -4   1  11   22.72    4.15
   3  -1 -11    2.42    1.01
   3  -1 -11    1.53    0.52
  -3   1  11   -0.86    1.62
   2  -1 -11   41.80    3.61
   2  -1 -11   35.54    2.78
  -2   1  11   45.48    5.04
   1  -1 -11   12.84    1.93
   1  -1 -11   16.74    2.09
  -1   1  11   17.24    3.53
   0  -1 -11   19.32    2.27
   0  -1 -11   20.82    2.00
   0   1  11   16.22    3.37
  -1  -1 -11   60.13    4.17
  -1  -1 -11   60.83    4.66
   1   1  11   53.78    5.81
  -2  -1 -11    1.67    0.89
  -2  -1 -11    3.68    0.93
   2   1  11    4.19    1.79
  -3  -1 -11   73.28    5.01
   3   1  11   63.97    6.62
  -4  -1 -11   53.44    4.49
  -4  -1 -11   53.97    4.20
   4   1  11   56.96    6.03
  -5  -1 -11    5.12    1.31
  -5  -1 -11    3.86    1.35
   5   1  11    5.71    2.31
  -6  -1 -11   99.38    7.07
  -6  -1 -11   92.34    7.18
   6   1  11  110.46    9.13
  -7  -1 -11   55.37    4.61
  -7  -1 -11   49.32    4.48
   7   1  11   62.01    6.39
  -8  -1 -11    1.55    0.98
  -8  -1 -11   -0.09    1.07
   8   1  11   -0.72    1.29
  -9  -1 -11   33.29    3.87
  -9  -1 -11   46.01    4.22
   9   1  11   45.46    3.59
   9   1  11   44.45    5.32
 -10  -1 -11   11.40    2.18
 -10  -1 -11   10.79    2.19
  10   1  11   18.14    4.06
  10   1  11   14.18    1.88
 -11  -1 -11    1.32    1.17
  11   1  11    1.84    2.04
  11   1  11    2.05    0.98
 -12  -1 -11   36.25    4.20
  12   1  11   32.04    3.12
 -13  -1 -11    5.52    1.83
  13   1  11    6.65    1.37
  13   1  11    6.05    2.48
 -14  -1 -11    6.83    2.12
  14   1  11    5.15    2.58
  14   1  11    4.35    1.27
   8  -2 -11   31.07    3.46
  -8   2  11   29.85    5.37
   7  -2 -11   11.98    2.28
  -7   2  11   13.25    3.53
   6  -2 -11   10.19    1.98
  -6   2  11    8.36    3.28
   5  -2 -11   42.00    3.98
  -5   2  11   44.66    5.44
   4  -2 -11    4.92    1.33
  -4   2  11    6.31    2.39
   3  -2 -11    9.42    1.77
  -3   2  11   10.79    2.93
   2  -2 -11   65.85    4.92
   2  -2 -11   53.47    3.80
  -2   2  11   70.66    6.47
   1  -2 -11   -0.55    0.29
   1  -2 -11    0.31    0.51
  -1   2  11   -0.13    1.26
   0  -2 -11   64.28    4.42
   0  -2 -11   69.61    5.21
   0   2  11   74.04    6.71
  -1  -2 -11   11.03    1.70
  -1  -2 -11    8.70    1.19
   1   2  11   10.08    2.49
  -2  -2 -11    5.13    1.02
  -2  -2 -11    6.53    1.38
   2   2  11    7.76    2.56
  -3  -2 -11  113.52    7.43
   3   2  11  113.00    9.34
  -4  -2 -11   70.08    5.69
  -4  -2 -11   67.32    4.81
   4   2  11   60.69    6.30
  -5  -2 -11   -0.25    0.65
  -5  -2 -11   -0.50    0.63
   5   2  11   -0.40    1.17
  -6  -2 -11  113.68    8.64
  -6  -2 -11  122.27    8.32
   6   2  11  131.70   10.29
  -7  -2 -11   31.55    4.52
  -7  -2 -11   31.08    3.14
   7   2  11   29.83    4.37
  -8  -2 -11    0.64    0.95
  -8  -2 -11    0.06    1.06
   8   2  11   -2.32    1.39
  -9  -2 -11   79.11    6.19
  -9  -2 -11   71.77    6.12
   9   2  11   72.11    7.52
   9   2  11   85.14    5.77
 -10  -2 -11   26.52    3.29
 -10  -2 -11   30.90    3.34
  10   2  11   26.12    4.17
  10   2  11   26.39    2.76
 -11  -2 -11    8.26    2.06
 -11  -2 -11   11.05    2.36
  11   2  11    8.50    1.59
  11   2  11   11.22    3.07
 -12  -2 -11   33.50    3.92
  12   2  11   30.89    4.73
  12   2  11   35.75    3.20
 -13  -2 -11    3.00    1.46
  13   2  11   -1.65    2.01
  13   2  11    1.74    1.00
 -14  -2 -11   11.08    2.56
  14   2  11   17.74    2.60
  14   2  11   10.14    2.97
   8  -3 -11   62.21    5.39
  -8   3  11   60.47    7.44
   7  -3 -11   22.28    2.82
  -7   3  11   26.17    5.02
   6  -3 -11    6.60    1.61
  -6   3  11    4.74    2.59
   5  -3 -11   33.42    3.94
  -5   3  11   41.79    5.32
   4  -3 -11    4.07    1.29
  -4   3  11    5.30    2.58
   3  -3 -11   40.69    3.68
  -3   3  11   41.21    5.07
   2  -3 -11   61.94    4.93
  -2   3  11   62.27    6.32
   1  -3 -11    0.28    0.67
  -1   3  11    0.53    1.49
   0  -3 -11   42.49    3.78
   0  -3 -11   43.64    2.85
   0   3  11   47.54    5.08
  -1  -3 -11   63.83    4.30
  -1  -3 -11   67.28    5.17
   1   3  11   72.22    6.62
  -2  -3 -11    3.27    1.14
  -2  -3 -11    3.42    0.77
   2   3  11    3.47    1.75
  -3  -3 -11   15.08    2.05
  -3  -3 -11   15.13    1.59
   3   3  11   14.48    3.07
  -4  -3 -11   38.50    3.03
   4   3  11   36.06    4.66
  -5  -3 -11   34.25    3.07
   5   3  11   40.22    4.74
  -6  -3 -11   84.21    5.78
  -6  -3 -11   70.69    6.15
   6   3  11   79.76    7.37
  -7  -3 -11    7.65    1.86
   7   3  11   10.26    2.86
  -8  -3 -11    8.71    1.77
  -8  -3 -11    4.72    1.65
   8   3  11    7.56    2.57
  -9  -3 -11   46.39    4.40
  -9  -3 -11   48.30    4.26
   9   3  11   41.11    3.65
   9   3  11   41.15    5.13
 -10  -3 -11    1.64    1.39
 -10  -3 -11    3.90    1.36
  10   3  11    4.12    1.22
  10   3  11    3.70    2.08
 -11  -3 -11   18.03    2.86
 -11  -3 -11   18.21    2.80
  11   3  11   22.82    3.72
  11   3  11   20.47    2.34
 -12  -3 -11   36.90    4.02
  12   3  11   33.12    4.54
  12   3  11   37.01    3.42
 -13  -3 -11   -1.84    0.82
  13   3  11   -0.44    0.67
  13   3  11   -2.69    1.92
 -14  -3 -11   25.21    3.56
  14   3  11   19.85    2.55
  14   3  11   12.44    3.40
   8  -4 -11   29.78    3.39
   7  -4 -11   -0.39    0.72
  -7   4  11   -3.49    2.11
   6  -4 -11   27.48    2.95
  -6   4  11   26.37    4.62
   5  -4 -11   23.00    2.64
  -5   4  11   19.51    4.03
   4  -4 -11    0.62    0.80
  -4   4  11   -0.75    1.67
   3  -4 -11   59.13    4.87
  -3   4  11   62.14    6.52
   2  -4 -11   37.97    3.55
  -2   4  11   40.78    5.02
   1  -4 -11   13.29    1.79
  -1   4  11   12.65    3.05
   0  -4 -11   24.01    2.53
   0   4  11   22.77    3.75
  -1  -4 -11    3.70    1.18
  -1  -4 -11    3.22    0.52
   1   4  11    3.48    1.67
  -2  -4 -11   33.67    3.12
  -2  -4 -11   30.09    2.33
   2   4  11   34.73    4.38
  -3  -4 -11  119.97    8.73
  -3  -4 -11  124.25    7.99
   3   4  11  134.83   10.26
  -4  -4 -11   21.79    2.60
  -4  -4 -11   24.55    2.18
   4   4  11   28.25    3.96
  -5  -4 -11   46.30    4.35
  -5  -4 -11   52.91    3.92
   5   4  11   52.67    5.59
  -6  -4 -11   57.15    4.16
  -6  -4 -11   43.45    4.44
   6   4  11   52.78    5.48
  -7  -4 -11   12.80    1.99
  -7  -4 -11   10.17    2.12
   7   4  11   13.66    3.23
  -8  -4 -11   36.06    3.81
  -8  -4 -11   38.53    3.51
   8   4  11   32.88    4.43
  -9  -4 -11   37.53    3.97
  -9  -4 -11   37.86    3.73
   9   4  11   32.60    4.68
   9   4  11   38.83    3.39
 -10  -4 -11   -1.82    1.05
 -10  -4 -11    0.39    1.01
  10   4  11   -1.00    0.66
 -11  -4 -11   48.76    4.70
 -11  -4 -11   42.01    4.56
  11   4  11   46.65    5.34
  11   4  11   46.42    4.02
 -12  -4 -11   22.25    3.31
  12   4  11   15.99    3.42
  12   4  11   23.82    2.64
 -13  -4 -11    3.59    1.58
  13   4  11    2.20    2.07
 -14  -4 -11   29.73    4.19
  14   4  11   29.73    3.27
   8  -5 -11   41.12    4.18
  -8   5  11   51.77    7.12
   7  -5 -11   -0.10    0.71
   6  -5 -11   32.87    3.27
  -6   5  11   25.11    4.71
   5  -5 -11   12.02    1.99
  -5   5  11   14.25    3.79
   4  -5 -11    4.24    1.30
  -4   5  11    2.99    2.12
   3  -5 -11   62.30    5.21
  -3   5  11   73.19    7.18
   2  -5 -11   10.77    1.63
  -2   5  11    7.55    2.30
   1  -5 -11    4.77    1.32
  -1   5  11    2.03    1.63
   0  -5 -11   63.27    5.22
   0   5  11   71.77    6.74
  -1  -5 -11   13.54    1.08
  -1  -5 -11   15.99    2.11
   1   5  11   14.48    3.38
  -2  -5 -11   29.13    2.96
  -2  -5 -11   26.68    2.06
   2   5  11   26.36    3.97
  -3  -5 -11   42.65    4.06
   3   5  11   51.20    5.31
  -4  -5 -11    0.51    0.98
  -4  -5 -11   -0.02    0.46
  -5  -5 -11   55.01    5.17
  -5  -5 -11   65.17    4.62
   5   5  11   71.83    6.48
  -6  -5 -11   48.18    4.83
  -6  -5 -11   60.81    4.43
   6   5  11   61.22    5.89
  -7  -5 -11    0.52    0.95
  -7  -5 -11   -0.29    0.61
   7   5  11    1.80    1.49
  -8  -5 -11   41.97    4.28
  -8  -5 -11   45.50    3.93
   8   5  11   38.45    4.90
  -9  -5 -11   14.65    2.38
  -9  -5 -11   16.37    2.68
   9   5  11   14.62    3.26
   9   5  11   15.07    2.01
 -10  -5 -11    0.03    0.82
 -10  -5 -11    0.57    1.19
  10   5  11   -1.87    1.35
  10   5  11    1.50    0.96
 -11  -5 -11   43.07    4.94
 -11  -5 -11   54.88    4.94
  11   5  11   56.56    4.51
  11   5  11   51.97    5.75
 -12  -5 -11   21.08    3.20
  12   5  11   25.13    3.80
  12   5  11   18.47    2.53
 -13  -5 -11    9.23    2.31
  13   5  11    8.43    1.85
  13   5  11    6.43    2.33
 -14  -5 -11   17.75    3.37
  14   5  11   19.80    2.62
   8  -6 -11   11.48    2.25
  -8   6  11   11.38    4.24
   7  -6 -11    7.19    1.75
   6  -6 -11   37.07    3.75
  -6   6  11   40.33    5.93
   5  -6 -11    4.11    1.34
  -5   6  11    3.22    2.61
   4  -6 -11   24.72    2.72
  -4   6  11   25.33    4.85
   3  -6 -11  102.45    7.64
  -3   6  11  111.84    9.71
   2  -6 -11    6.77    1.59
  -2   6  11    6.12    2.30
   1  -6 -11   36.66    3.47
  -1   6  11   34.21    4.61
   0  -6 -11   50.38    4.38
   0   6  11   51.86    5.71
  -1  -6 -11    9.08    1.75
   1   6  11    9.20    2.88
  -2  -6 -11  101.62    7.92
  -2  -6 -11  111.30    6.93
   2   6  11  122.52    9.57
  -3  -6 -11   33.75    3.35
  -3  -6 -11   44.37    3.89
  -4  -6 -11    4.73    0.89
  -4  -6 -11    6.82    1.73
   4   6  11    6.74    2.28
  -5  -6 -11   71.51    6.14
  -5  -6 -11   78.21    5.35
   5   6  11   77.73    7.09
  -6  -6 -11   68.22    4.88
  -6  -6 -11   57.98    5.51
   6   6  11   68.07    6.44
  -7  -6 -11   13.95    2.61
   7   6  11   11.50    2.71
  -8  -6 -11   60.29    6.02
  -8  -6 -11   84.31    5.93
   8   6  11   83.59    7.19
   8   6  11   74.50    5.59
  -9  -6 -11   15.90    2.44
  -9  -6 -11   12.86    2.67
   9   6  11   14.34    1.95
   9   6  11   13.47    3.05
 -10  -6 -11    1.62    1.03
 -10  -6 -11    1.43    1.22
  10   6  11    2.46    1.84
  10   6  11    1.63    1.00
 -11  -6 -11   33.16    3.98
  11   6  11   37.95    3.49
  11   6  11   32.16    4.57
 -12  -6 -11    4.15    1.50
  12   6  11    5.67    2.18
  12   6  11    7.45    1.68
 -13  -6 -11    3.05    1.51
  13   6  11    3.76    1.36
  13   6  11    4.52    1.96
 -14  -6 -11   26.08    4.14
  14   6  11   31.41    3.45
   8  -7 -11   17.83    2.48
  -8   7  11   10.06    3.61
   7  -7 -11   12.18    2.28
  -7   7  11   14.28    4.23
  -6   7  11   32.24    7.57
   5  -7 -11    0.26    0.69
  -5   7  11    1.47    2.40
   4  -7 -11   31.38    3.23
  -4   7  11   29.69    4.71
   3  -7 -11   46.94    4.19
  -3   7  11   47.27    5.95
   2  -7 -11   -0.35    0.74
  -2   7  11   -1.30    1.39
   1  -7 -11  109.55    8.32
  -1   7  11  128.95   10.34
   0  -7 -11   63.76    5.52
   0   7  11   81.35    7.43
  -1  -7 -11   -0.11    0.62
   1   7  11   -0.70    1.25
   1   7  11   -0.18    0.40
  -2  -7 -11   22.19    2.84
  -2  -7 -11   25.13    1.91
   2   7  11   26.43    3.98
  -3  -7 -11    7.34    1.14
  -3  -7 -11    5.28    1.62
   3   7  11    7.19    2.36
  -4  -7 -11   12.73    1.51
  -4  -7 -11   10.39    2.10
   4   7  11   14.90    3.24
  -5  -7 -11   93.48    8.23
  -5  -7 -11  119.25    7.56
   5   7  11  124.94    9.49
  -6  -7 -11   22.76    3.28
  -6  -7 -11   29.72    2.70
   6   7  11   30.54    4.10
  -7  -7 -11    5.90    1.97
  -7  -7 -11    4.99    1.20
   7   7  11    9.25    2.48
  -8  -7 -11   22.58    3.26
  -8  -7 -11   26.97    2.87
   8   7  11   27.02    2.62
   8   7  11   23.07    3.48
  -9  -7 -11   -0.69    1.19
  -9  -7 -11   -0.36    0.81
   9   7  11   -1.67    1.18
   9   7  11   -0.16    0.69
 -10  -7 -11    8.08    1.84
 -10  -7 -11   10.43    2.50
  10   7  11   13.67    1.96
  10   7  11   15.32    3.28
  11   7  11   35.57    4.78
  11   7  11   29.16    4.18
 -12  -7 -11    0.17    1.23
  12   7  11   -1.65    1.68
  12   7  11   -0.15    0.77
 -13  -7 -11   11.74    2.52
  13   7  11   18.56    3.34
  13   7  11   18.19    2.53
  -8   8  11    8.61    3.95
   7  -8 -11   16.02    2.33
  -7   8  11   11.24    3.68
  -6   8  11   17.12    4.03
   5  -8 -11    0.04    0.75
  -5   8  11   -0.08    1.84
   4  -8 -11   45.77    4.27
  -4   8  11   53.20    6.53
   3  -8 -11   18.93    2.44
  -3   8  11   14.24    3.26
   2  -8 -11    2.20    1.06
  -2   8  11    2.82    2.20
   1  -8 -11   61.67    5.39
  -1   8  11   76.28    7.46
   0  -8 -11   11.68    1.86
   0   8  11    7.12    2.53
  -1  -8 -11   18.09    2.68
  -1  -8 -11   25.14    1.62
   1   8  11   20.03    3.73
  -2  -8 -11   66.15    4.34
  -2  -8 -11   61.86    5.49
   2   8  11   72.06    6.84
  -3  -8 -11    0.07    0.45
  -3  -8 -11    1.26    0.99
   3   8  11   -0.42    1.18
  -4  -8 -11   24.40    3.20
  -4  -8 -11   23.94    2.32
   4   8  11   29.85    4.01
  -5  -8 -11   59.41    5.95
  -5  -8 -11   76.77    5.28
   5   8  11   81.28    7.11
  -6  -8 -11    0.09    0.65
  -6  -8 -11   -0.76    0.85
   6   8  11    0.44    1.32
  -7  -8 -11   25.06    2.66
  -7  -8 -11   21.01    3.20
   7   8  11   24.93    3.67
  -8  -8 -11   24.01    2.67
  -8  -8 -11   18.96    3.12
   8   8  11   25.26    3.60
   8   8  11   25.26    2.61
  -9  -8 -11    1.05    1.01
  -9  -8 -11    0.00    1.29
   9   8  11    1.03    1.48
   9   8  11    1.07    0.88
 -10  -8 -11   36.06    3.91
  10   8  11   37.60    4.69
 -11  -8 -11   17.20    2.78
  11   8  11   23.61    2.64
  11   8  11   14.47    3.06
 -12  -8 -11   -0.09    1.12
  12   8  11   -2.25    1.67
  12   8  11   -0.87    0.70
 -13  -8 -11   18.49    3.37
  13   8  11   21.22    2.80
   8  -9 -11    3.26    1.24
  -8   9  11    1.30    2.98
   7  -9 -11   40.33    4.06
  -7   9  11   46.38    6.87
   6  -9 -11   29.85    4.52
  -6   9  11   30.21    5.55
   5  -9 -11    0.11    0.79
   5  -9 -11   -0.51    1.63
  -5   9  11    2.41    2.54
   4  -9 -11   43.80    4.26
  -4   9  11   56.20    6.66
   3  -9 -11   14.84    2.22
  -3   9  11   13.71    3.55
   2  -9 -11   17.34    2.48
  -2   9  11   16.73    3.99
   1  -9 -11   46.40    4.48
  -1   9  11   57.95    6.37
   0  -9 -11    1.67    1.15
   0   9  11    1.32    1.97
  -1  -9 -11   27.23    3.54
  -1  -9 -11   42.93    2.58
   1   9  11   35.13    4.80
   1   9  11   36.24    2.60
  -2  -9 -11   94.34    6.11
  -2  -9 -11   82.83    7.13
   2   9  11  102.96    8.75
  -3  -9 -11    0.20    0.55
  -3  -9 -11   -0.42    0.90
   3   9  11   -0.35    1.52
  -4  -9 -11   90.54    5.91
  -4  -9 -11   71.59    6.71
   4   9  11   89.88    7.98
  -5  -9 -11   40.50    3.43
  -5  -9 -11   38.88    4.35
   5   9  11   44.77    5.13
  -6  -9 -11   -0.50    0.63
  -6  -9 -11    0.04    1.23
   6   9  11   -0.66    1.27
  -7  -9 -11   30.39    2.97
  -7  -9 -11   26.31    3.59
   7   9  11   26.59    2.76
   7   9  11   25.06    3.96
  -8  -9 -11   16.10    3.19
  -8  -9 -11   18.91    2.47
   8   9  11   22.75    3.49
   8   9  11   20.70    2.44
  -9  -9 -11    7.81    1.83
   9   9  11    6.80    1.87
   9   9  11    5.61    2.00
  10   9  11   55.95    5.92
  10   9  11   56.20    4.77
 -11  -9 -11    3.58    1.53
  11   9  11    4.61    1.44
  11   9  11   -0.81    1.77
 -12  -9 -11    5.28    1.94
  12   9  11    2.12    3.61
  12   9  11    3.52    1.41
 -13  -9 -11   13.81    2.76
   7 -10 -11   14.39    2.24
   7 -10 -11    7.42    2.78
  -7  10  11   16.35    4.66
   6 -10 -11    3.98    1.66
   6 -10 -11    4.80    2.38
  -6  10  11    4.17    2.75
   5 -10 -11   14.16    3.27
   5 -10 -11   16.38    2.39
  -5  10  11   11.99    3.44
   4 -10 -11   30.03    5.37
   4 -10 -11   29.11    3.28
  -4  10  11   31.99    6.78
   3 -10 -11    0.09    1.65
   3 -10 -11   -0.47    0.80
  -3  10  11    0.12    2.00
   2 -10 -11   25.18    3.08
  -2  10  11   31.80    4.83
   1 -10 -11   29.72    3.35
  -1  10  11   31.13    4.74
   0 -10 -11   -0.19    0.84
   0  10  11   -0.10    0.36
  -1 -10 -11   25.54    3.28
   1  10  11   32.48    4.58
  -2 -10 -11   31.65    3.86
  -2 -10 -11   40.05    2.88
   2  10  11   43.77    5.39
  -3 -10 -11    3.56    0.87
  -3 -10 -11    1.97    1.36
   3  10  11    3.27    1.90
  -4 -10 -11   69.37    6.86
  -4 -10 -11   92.50    6.12
   4  10  11   98.86    8.34
  -5 -10 -11    4.17    1.70
   5  10  11    2.22    1.80
  -6 -10 -11    2.70    1.04
  -6 -10 -11    1.98    1.56
   6  10  11    4.16    1.25
   6  10  11   -0.11    1.63
  -7 -10 -11   61.08    4.87
  -7 -10 -11   54.43    5.77
   7  10  11   61.44    4.93
   7  10  11   61.46    6.30
  -8 -10 -11   15.26    2.24
   8  10  11   18.78    3.23
  -9 -10 -11    9.88    2.00
  -9 -10 -11    8.55    2.40
   9  10  11   11.64    1.76
   9  10  11    7.90    2.42
 -10 -10 -11   42.00    4.31
  10  10  11   47.34    4.23
  10  10  11   44.81    5.16
 -11 -10 -11   -1.50    0.87
  11  10  11   -1.38    0.70
  11  10  11   -3.06    1.74
 -12 -10 -11    7.93    2.01
  12  10  11   14.31    2.29
   7 -11 -11   26.31    3.07
   7 -11 -11   16.54    4.06
  -7  11  11   20.62    5.09
   6 -11 -11   -1.51    1.60
   6 -11 -11   -1.48    0.87
  -6  11  11   -2.82    1.91
   5 -11 -11   31.20    4.91
   5 -11 -11   27.38    3.38
  -5  11  11   39.84    5.90
   4 -11 -11   55.71    6.37
   4 -11 -11   46.90    4.67
  -4  11  11   61.79    7.40
   3 -11 -11    0.49    1.71
   3 -11 -11    0.51    1.02
  -3  11  11   -0.32    1.86
   2 -11 -11   36.92    4.84
   2 -11 -11   34.03    3.71
  -2  11  11   37.98    5.46
   1 -11 -11   26.35    3.26
  -1  11  11   36.21    5.13
   0 -11 -11    0.32    0.92
   0  11  11   -1.70    1.37
  -1 -11 -11   37.14    4.38
   1  11  11   53.42    3.58
   1  11  11   50.58    5.90
  -2 -11 -11   38.89    2.85
  -2 -11 -11   30.82    3.77
   2  11  11   32.58    4.90
  -3 -11 -11   41.80    3.20
  -3 -11 -11   29.75    4.02
   3  11  11   42.53    5.30
  -4 -11 -11   59.00    6.30
  -4 -11 -11   81.07    5.52
   4  11  11   83.22    7.62
  -5 -11 -11   26.85    2.65
  -5 -11 -11   15.57    3.17
   5  11  11   21.58    4.35
  -6 -11 -11    3.00    1.78
  -6 -11 -11    0.07    0.93
   6  11  11    4.35    2.05
   6  11  11    1.19    0.86
  -7 -11 -11   25.93    2.82
  -7 -11 -11   21.45    6.00
   7  11  11   20.52    3.65
  -8 -11 -11    4.76    1.47
  -8 -11 -11    5.01    2.14
   8  11  11    7.35    1.67
   8  11  11    6.37    2.30
  -9 -11 -11    6.01    1.53
   9  11  11    9.50    2.26
 -10 -11 -11    9.56    2.23
  10  11  11   14.82    2.21
  10  11  11    8.10    2.48
 -11 -11 -11    0.38    1.22
  11  11  11    0.10    0.92
   6 -12 -11   -0.31    2.30
   6 -12 -11   -0.25    0.99
  -6  12  11    5.65    3.04
   5 -12 -11   21.22    4.39
  -5  12  11   33.49    5.85
   4 -12 -11    4.33    2.11
   4 -12 -11    6.65    1.87
  -4  12  11    5.99    2.65
   3 -12 -11    1.87    1.19
   3 -12 -11    0.44    1.82
  -3  12  11    0.53    2.22
   2 -12 -11   44.94    5.33
   2 -12 -11   35.22    4.07
  -2  12  11   47.91    6.04
   1 -12 -11    4.18    1.45
   1 -12 -11    7.51    3.35
  -1  12  11    5.42    2.94
   0 -12 -11    4.59    1.64
   0  12  11    6.16    1.11
   0  12  11    5.01    2.26
   1  12  11   38.89    3.08
   1  12  11   34.65    5.08
  -2 -12 -11    8.51    2.23
  -2 -12 -11   11.79    1.60
   2  12  11   11.93    1.64
   2  12  11    6.97    2.63
  -3 -12 -11   27.34    3.81
  -3 -12 -11   39.90    3.22
   3  12  11   30.81    4.83
  -4 -12 -11   18.03    2.24
   4  12  11   22.38    3.76
  -5 -12 -11   -1.20    0.83
  -5 -12 -11   -1.24    1.29
   5  12  11   -0.65    1.30
   5  12  11    0.08    0.69
  -6 -12 -11   33.26    4.75
  -6 -12 -11   50.90    4.12
   6  12  11   43.92    4.13
   6  12  11   45.68    5.54
  -7 -12 -11   36.05    3.52
  -7 -12 -11   30.31    4.33
   7  12  11   30.97    4.84
   7  12  11   35.08    3.53
  -8 -12 -11   -0.86    1.53
   8  12  11   -1.15    0.66
   8  12  11    0.96    1.60
  -9 -12 -11   30.61    3.64
   9  12  11   30.36    4.70
   9  12  11   37.60    3.71
 -10 -12 -11    4.57    1.58
  10  12  11    7.25    1.76
   5 -13 -11   37.93    4.62
   5 -13 -11   53.01    6.28
  -5  13  11   46.63    6.80
   4 -13 -11    3.77    2.41
   4 -13 -11    2.54    1.37
  -4  13  11    2.38    2.74
   3 -13 -11    9.76    3.02
   3 -13 -11    7.67    1.95
  -3  13  11    9.73    3.39
   2 -13 -11   31.23    3.70
   2 -13 -11   37.94    5.10
  -2  13  11   39.04    5.73
   1 -13 -11    4.81    2.22
   1 -13 -11    2.11    1.29
  -1  13  11    1.07    2.11
   0 -13 -11   18.66    2.76
   0  13  11   21.82    5.85
   0  13  11   16.98    2.11
  -1 -13 -11   51.02    5.45
   1  13  11   65.24    4.61
   1  13  11   68.54    7.12
  -2 -13 -11    1.14    1.39
  -2 -13 -11   -1.05    0.86
   2  13  11   -2.39    1.56
  -3 -13 -11    7.93    1.41
  -3 -13 -11    3.58    1.93
   3  13  11   10.69    3.24
   3  13  11    4.62    1.11
  -4 -13 -11   51.17    4.02
   4  13  11   39.11    5.55
  -5 -13 -11   -0.95    0.87
  -5 -13 -11   -1.64    1.48
   5  13  11   -0.55    0.71
   5  13  11    1.17    1.56
  -6 -13 -11   17.80    2.41
  -6 -13 -11   11.45    3.01
   6  13  11   10.01    2.09
   6  13  11   13.52    3.26
  -7 -13 -11    7.37    2.52
   7  13  11    5.40    2.56
   7  13  11    8.59    1.89
  -8 -13 -11    4.29    1.50
   8  13  11    4.33    2.44
   8  13  11    4.21    1.50
  -9 -13 -11   30.80    3.53
   9  13  11   34.83    3.70
   4 -14 -11    2.23    2.42
  -4  14  11    0.63    2.66
   3 -14 -11   15.44    3.41
   3 -14 -11   11.46    2.72
  -3  14  11   11.89    3.38
   2 -14 -11   20.35    4.16
   2 -14 -11   17.02    2.66
  -2  14  11   21.66    5.06
   1 -14 -11   -0.34    1.18
   1 -14 -11    0.49    1.84
  -1  14  11    0.86    2.00
   0 -14 -11   12.50    2.44
  -1 -14 -11   14.27    3.15
  -2 -14 -11    6.20    1.32
   2  14  11    3.63    1.11
  -3 -14 -11   25.21    2.67
   3  14  11   28.14    3.04
   3  14  11   25.20    2.65
   3  14  11   21.75    4.67
  -4 -14 -11   22.63    2.68
  -4 -14 -11   14.21    3.20
   4  14  11   21.28    2.68
   4  14  11   12.45    3.57
  -5 -14 -11    0.98    1.68
  -5 -14 -11    0.96    1.08
   5  14  11    2.89    1.30
   5  14  11   -1.77    1.73
  -6 -14 -11   14.26    3.45
  -6 -14 -11   21.89    2.79
   6  14  11   25.37    3.97
   6  14  11   14.39    2.46
  -7 -14 -11    1.22    1.33
   7  14  11   -0.94    1.85
   7  14  11    2.81    1.25
  -8 -14 -11    6.07    1.60
   8  14  11    9.80    2.10
   2 -15 -11   26.25    4.60
  -2  15  11   22.85    5.45
   1 -15 -11   -1.94    1.70
   1 -15 -11   -1.24    1.21
  -1  15  11   -1.56    1.95
   0 -15 -11   20.96    3.02
  -1 -15 -11   -0.03    1.42
   1  15  11   -0.39    0.85
   1  15  11    0.30    0.90
  -2 -15 -11    8.15    2.21
   2  15  11   12.62    3.58
   2  15  11    5.33    1.38
   2  15  11   10.05    1.90
  -3 -15 -11   49.06    3.96
  -3 -15 -11   32.42    4.71
   3  15  11   39.92    4.06
   3  15  11   49.51    6.11
   3  15  11   45.78    3.88
  -4 -15 -11    7.47    2.27
   4  15  11    3.39    4.21
   4  15  11    7.80    1.82
  -5 -15 -11   10.82    1.95
  -5 -15 -11    7.96    2.78
   5  15  11   12.67    3.45
   5  15  11    5.38    1.69
  -6 -15 -11   27.29    3.38
   6  15  11   24.99    3.43
   6  15  11   39.33    5.00
  -1   6 -12    3.77    1.46
   1  -6  12    4.45    2.99
  -2   6 -12    4.21    1.13
  -2   6 -12    5.03    1.57
   2  -6  12   -0.66    2.11
  -3   6 -12    2.98    1.19
  -3   6 -12    2.89    1.53
   3  -6  12    1.32    2.39
  -4   6 -12   -0.35    1.13
  -5   6 -12   30.16    3.60
   5  -6  12   26.71    5.26
  -6   6 -12   33.52    4.03
   6  -6  12   34.93    5.59
  -7   6 -12   -1.38    1.13
   7  -6  12   -1.24    2.07
   1   5 -12    0.23    1.54
  -1  -5  12    1.50    2.74
   0   5 -12    2.84    1.04
   0  -5  12    3.58    2.76
  -1   5 -12   -0.42    0.65
   1  -5  12   -3.71    1.79
  -2   5 -12    8.27    1.68
  -3   5 -12    8.12    1.70
  -3   5 -12    6.07    2.51
   3  -5  12    9.02    2.88
  -4   5 -12   -1.05    1.00
  -4   5 -12    0.21    0.80
   4  -5  12   -1.71    1.81
  -5   5 -12   31.65    3.48
  -5   5 -12   22.57    3.04
  -6   5 -12    6.81    1.88
   6  -5  12    6.31    2.76
  -7   5 -12    0.15    1.50
  -8   5 -12   21.34    3.15
   8  -5  12   29.61    5.22
  -9   5 -12    3.51    1.52
   9  -5  12   -0.11    2.35
   2   4 -12    0.87    1.01
   2   4 -12    1.43    0.94
  -2  -4  12   -0.92    2.26
   1   4 -12   20.02    2.73
   1   4 -12   25.53    2.83
  -1  -4  12   25.85    4.56
   0   4 -12   50.15    4.29
   0   4 -12   46.07    4.19
   0  -4  12   50.40    5.99
  -1   4 -12   -1.10    0.80
  -1   4 -12   -0.29    0.55
   1  -4  12   -3.48    1.63
  -2   4 -12   10.62    1.96
  -2   4 -12   12.05    1.81
   2  -4  12    5.53    2.74
  -3   4 -12    2.32    1.23
  -3   4 -12    2.35    1.10
   3  -4  12    2.91    2.60
  -4   4 -12    5.02    1.64
  -4   4 -12    5.33    1.32
  -5   4 -12   48.36    4.37
  -5   4 -12   42.83    3.97
   5  -4  12   50.77    5.97
  -6   4 -12    2.01    0.98
   6  -4  12    3.63    2.24
  -7   4 -12    9.83    2.19
   7  -4  12    8.09    2.85
  -8   4 -12   31.87    3.75
   8  -4  12   39.33    5.75
  -9   4 -12    0.41    1.30
   9  -4  12   -2.19    2.00
 -10   4 -12   15.85    2.88
  10  -4  12   14.63    4.56
 -11   4 -12   22.45    3.53
  11  -4  12   39.48    6.14
   4   3 -12   28.77    3.34
   3   3 -12   15.34    2.29
  -3  -3  12   14.47    3.79
   2   3 -12    0.23    0.72
   2   3 -12   -0.82    1.01
  -2  -3  12    1.41    1.96
   1   3 -12   18.42    2.34
  -1  -3  12   13.07    3.03
   0   3 -12   13.73    1.94
   0   3 -12    8.61    1.70
   0  -3  12   12.84    3.27
  -1   3 -12    0.85    1.01
  -1   3 -12    1.33    0.85
   1  -3  12    0.79    1.73
  -2   3 -12   47.20    4.01
  -2   3 -12   42.57    3.79
   2  -3  12   39.51    5.30
  -3   3 -12    4.25    1.18
  -3   3 -12    1.62    1.03
   3  -3  12    1.56    1.84
  -4   3 -12   26.52    2.92
  -4   3 -12   32.43    3.30
   4  -3  12   32.40    4.83
  -5   3 -12   17.93    2.37
  -5   3 -12   25.91    2.95
   5  -3  12   28.82    4.74
  -6   3 -12    0.85    0.93
  -6   3 -12    2.73    1.21
  -7   3 -12   30.70    3.02
  -7   3 -12   38.91    3.85
  -8   3 -12   26.05    2.63
  -8   3 -12   28.29    4.22
   8  -3  12   41.35    5.63
   9  -3  12   -1.75    2.03
 -10   3 -12   36.06    4.17
  10  -3  12   34.73    5.63
 -11   3 -12    5.18    1.73
  11  -3  12    7.04    3.32
 -12   3 -12    2.16    1.40
  12  -3  12    0.69    2.53
   4   2 -12   41.04    3.91
  -4  -2  12   29.89    5.35
   3   2 -12    5.27    1.42
   3   2 -12    3.21    1.22
  -3  -2  12    5.02    2.88
   2   2 -12    4.75    1.38
   2   2 -12    4.91    1.36
  -2  -2  12    4.61    2.67
   1   2 -12   33.65    3.29
   1   2 -12   43.87    3.75
  -1  -2  12   38.17    5.15
   0   2 -12   17.84    2.21
   0   2 -12   18.32    2.19
   0  -2  12   13.05    3.30
  -1   2 -12   14.29    1.95
   1  -2  12   15.12    3.59
  -2   2 -12   46.01    3.97
  -2   2 -12   46.70    4.06
   2  -2  12   51.34    5.93
  -3   2 -12    3.29    1.16
  -3   2 -12    2.42    1.05
   3  -2  12    3.42    2.07
  -4   2 -12   37.52    3.37
  -4   2 -12   28.16    3.19
   4  -2  12   37.50    5.08
  -5   2 -12   31.13    3.19
  -5   2 -12   30.19    3.28
   5  -2  12   38.80    5.31
  -6   2 -12    0.59    1.16
   6  -2  12    0.11    1.77
  -7   2 -12   22.77    2.70
  -7   2 -12   32.21    3.25
   7  -2  12   37.95    5.59
  -8   2 -12   25.77    2.66
  -8   2 -12   29.85    3.39
  -9   2 -12    0.84    0.90
   9  -2  12   -0.58    1.89
 -10   2 -12   30.58    3.61
 -10   2 -12   22.95    2.61
  10  -2  12   29.15    2.56
  10  -2  12   41.84    5.73
  11  -2  12    9.58    3.36
 -12   2 -12    1.99    1.41
  12  -2  12    0.47    2.77
   5   1 -12    9.01    1.93
  -5  -1  12    3.32    3.14
   4   1 -12   47.36    4.32
  -4  -1  12   41.41    5.64
   3   1 -12    6.81    1.50
   3   1 -12   11.08    2.03
  -3  -1  12    5.24    2.59
   2   1 -12    6.05    1.20
  -2  -1  12    2.67    2.23
   1   1 -12   28.42    2.69
   1   1 -12   30.40    3.08
  -1  -1  12   29.96    4.43
   0   1 -12    6.19    1.33
   0   1 -12   11.60    1.76
   0  -1  12    6.89    2.47
  -1   1 -12   21.25    2.38
  -1   1 -12   20.40    2.45
   1  -1  12   17.88    3.58
  -2   1 -12   26.20    2.74
  -2   1 -12   26.47    2.65
   2  -1  12   27.69    4.26
  -3   1 -12    2.43    1.10
  -3   1 -12    3.53    1.62
   3  -1  12    1.89    2.12
  -4   1 -12   37.50    3.70
  -4   1 -12   46.87    3.89
   4  -1  12   45.62    5.59
  -5   1 -12   20.98    2.50
  -5   1 -12   19.88    2.52
   5  -1  12   18.62    3.87
  -6   1 -12   -0.66    0.81
  -6   1 -12    0.71    1.04
   6  -1  12   -1.00    1.70
  -7   1 -12   39.74    3.76
   7  -1  12   37.31    5.33
  -8   1 -12    1.91    1.30
  -8   1 -12    2.70    1.99
   8  -1  12    1.82    2.34
  -9   1 -12   25.56    3.23
   9  -1  12   31.85    5.17
 -10   1 -12   52.50    5.57
 -10   1 -12   37.20    4.21
  10  -1  12   53.58    6.45
 -11   1 -12    3.51    1.54
  11  -1  12    8.52    3.36
  11  -1  12    4.78    1.16
 -12   1 -12   11.41    2.46
  12  -1  12   12.46    3.78
  12  -1  12   10.64    2.59
 -13   1 -12    6.56    2.02
  13  -1  12    3.00    2.61
   6   0 -12    0.20    0.92
  -6   0  12    3.13    2.51
   5   0 -12   17.46    2.48
  -5   0  12   14.98    3.52
   4   0 -12   21.73    2.70
  -4   0  12   17.01    3.76
   3   0 -12   -0.35    0.75
  -3   0  12   -2.59    1.76
   2   0 -12   29.03    2.94
   2   0 -12   21.63    2.19
  -2   0  12   31.91    4.29
   1   0 -12   24.64    2.33
   1   0 -12   30.81    3.01
  -1   0  12   29.54    4.24
   0   0 -12    0.50    0.75
   0   0 -12   -0.42    0.54
   0   0  12   -1.32    1.30
  -1   0 -12   33.52    2.92
  -1   0 -12   34.62    3.26
   1   0  12   34.33    4.73
  -2   0 -12    6.39    1.25
  -2   0 -12    7.23    1.53
   2   0  12    5.22    2.21
  -3   0 -12   16.33    2.23
  -3   0 -12   12.45    1.90
   3   0  12   20.90    3.55
  -4   0 -12   93.60    6.67
  -4   0 -12   91.47    6.92
   4   0  12  101.21    8.91
  -5   0 -12   22.61    2.69
  -5   0 -12   25.55    2.83
   5   0  12   27.17    4.46
  -6   0 -12    5.96    1.64
  -6   0 -12   10.14    1.88
   6   0  12    8.44    3.13
  -7   0 -12   62.37    5.49
  -7   0 -12   72.95    5.63
   7   0  12   80.87    7.75
  -8   0 -12    0.67    1.03
  -8   0 -12    4.42    1.38
   8   0  12   -0.70    1.73
  -9   0 -12   25.45    3.03
  -9   0 -12   33.53    3.45
   9   0  12   35.35    5.27
 -10   0 -12   41.14    4.08
 -10   0 -12   48.03    4.80
  10   0  12   54.94    6.88
  10   0  12   50.76    3.93
 -11   0 -12    0.71    1.04
 -11   0 -12   -0.96    0.92
  11   0  12    1.16    1.91
 -12   0 -12   29.07    3.89
  12   0  12   29.72    4.80
 -13   0 -12   15.19    2.80
  13   0  12   15.20    2.16
  13   0  12   11.51    3.24
  -6   1  12    1.80    2.16
   5  -1 -12   27.99    3.19
   4  -1 -12   10.65    2.02
  -4   1  12    5.14    2.72
  -3   1  12    2.55    1.89
   2  -1 -12   70.38    5.20
   2  -1 -12   49.34    4.41
  -2   1  12   73.78    6.87
   1  -1 -12   44.53    3.87
  -1   1  12   42.29    5.28
   0  -1 -12    3.52    1.23
   0  -1 -12    3.51    0.79
   0   1  12    2.32    1.75
  -1  -1 -12   36.71    3.42
  -1  -1 -12   36.10    2.90
   1   1  12   37.96    4.72
  -2  -1 -12    4.42    1.33
  -2  -1 -12    2.33    0.91
   2   1  12    1.81    1.77
  -3  -1 -12   16.01    2.16
  -3  -1 -12   15.99    1.91
   3   1  12   19.57    4.01
  -4  -1 -12   66.45    5.01
  -4  -1 -12   64.48    5.33
   4   1  12   76.41    7.17
  -5  -1 -12    4.64    1.29
  -5  -1 -12    4.66    1.31
   5   1  12    8.26    2.90
  -6  -1 -12   36.81    3.34
  -6  -1 -12   30.31    3.29
   6   1  12   34.74    4.93
  -7  -1 -12   67.06    5.24
  -7  -1 -12   53.46    5.06
   7   1  12   72.50    7.10
  -8  -1 -12    1.75    1.11
  -8  -1 -12    2.22    1.22
   8   1  12    1.99    1.74
  -9  -1 -12   34.63    3.56
  -9  -1 -12   27.07    3.29
   9   1  12   34.15    5.09
 -10  -1 -12   25.58    3.47
 -10  -1 -12   27.94    3.28
  10   1  12   30.91    2.89
  10   1  12   29.57    4.82
 -11  -1 -12   -1.00    0.95
 -11  -1 -12   -0.48    1.20
  11   1  12   -1.25    1.67
 -12  -1 -12   18.01    3.05
  12   1  12   18.69    2.23
  12   1  12   16.91    4.24
 -13  -1 -12   16.19    3.06
  13   1  12   18.40    2.23
 -14  -1 -12    4.43    1.75
  -7   2  12    5.14    3.68
   6  -2 -12    2.04    1.11
  -6   2  12   -1.67    2.58
   5  -2 -12   20.58    2.65
  -5   2  12   21.25    4.39
   4  -2 -12    5.82    1.62
  -4   2  12    0.97    1.89
   3  -2 -12   15.82    2.18
  -3   2  12    7.93    2.75
   2  -2 -12   51.60    4.40
  -2   2  12   49.66    5.87
   1  -2 -12   20.74    2.27
   1  -2 -12   14.61    1.32
  -1   2  12   17.33    3.67
   0  -2 -12   13.50    1.39
   0  -2 -12   20.19    2.29
   0   2  12   18.58    3.73
  -1  -2 -12   32.07    3.17
   1   2  12   33.88    4.59
  -2  -2 -12    0.61    0.54
  -2  -2 -12    0.11    0.69
   2   2  12   -0.08    1.67
  -3  -2 -12   80.93    6.16
  -3  -2 -12   77.37    5.56
   3   2  12   90.18    7.85
  -4  -2 -12   68.58    5.01
  -4  -2 -12   68.13    5.48
   4   2  12   72.86    7.06
  -5  -2 -12    0.93    0.98
  -5  -2 -12    1.01    0.80
   5   2  12   -0.45    1.64
  -6  -2 -12   51.07    4.61
  -6  -2 -12   52.57    4.93
   6   2  12   58.11    6.20
  -7  -2 -12   29.02    3.45
  -7  -2 -12   34.25    3.33
   7   2  12   36.37    4.78
  -8  -2 -12    4.30    1.40
  -8  -2 -12    3.47    1.45
   8   2  12    2.56    1.95
  -9  -2 -12   78.74    5.99
  -9  -2 -12   66.44    5.88
   9   2  12   69.17    7.34
 -10  -2 -12   10.71    2.35
 -10  -2 -12   11.66    2.21
  10   2  12   15.74    3.98
  10   2  12   15.50    1.94
 -11  -2 -12    1.85    1.40
  11   2  12    2.60    1.06
  11   2  12    2.76    2.99
 -12  -2 -12   28.67    3.83
  12   2  12   29.70    4.57
  12   2  12   28.67    2.94
 -13  -2 -12   11.86    2.56
  13   2  12    4.72    2.46
  13   2  12    5.02    1.38
 -14  -2 -12    3.47    1.64
  14   2  12    6.42    3.02
  14   2  12    6.55    2.33
   7  -3 -12   11.48    2.14
  -7   3  12    5.28    3.70
   6  -3 -12   10.19    2.10
  -6   3  12   11.45    3.53
   5  -3 -12   33.05    3.53
  -5   3  12   39.11    5.21
   4  -3 -12   -0.64    0.64
  -4   3  12    0.00    1.56
   3  -3 -12   14.06    2.15
  -3   3  12   18.07    3.96
   2  -3 -12   71.29    5.71
  -2   3  12   76.93    7.44
   1  -3 -12   -0.07    0.64
  -1   3  12    0.64    1.87
   0  -3 -12   43.68    2.96
   0  -3 -12   47.97    4.03
   0   3  12   51.07    5.61
  -1  -3 -12   45.42    3.23
  -1  -3 -12   49.10    4.17
   1   3  12   51.08    5.60
  -2  -3 -12    3.87    1.25
   2   3  12    7.46    2.29
  -3  -3 -12   62.17    4.38
  -3  -3 -12   60.62    5.07
   3   3  12   66.77    6.63
  -4  -3 -12   20.55    2.01
  -4  -3 -12   15.92    2.36
   4   3  12   20.66    3.66
  -5  -3 -12    1.96    1.08
  -5  -3 -12    1.08    0.79
   5   3  12    0.52    1.72
  -6  -3 -12   50.65    3.90
  -6  -3 -12   39.34    4.07
   6   3  12   43.75    5.37
  -7  -3 -12   20.04    2.51
  -7  -3 -12   15.39    2.48
   7   3  12   21.44    4.17
  -8  -3 -12    2.64    1.26
  -8  -3 -12    6.87    1.67
   8   3  12    4.55    2.50
  -9  -3 -12   49.17    4.68
  -9  -3 -12   54.72    4.64
   9   3  12   43.83    5.72
 -10  -3 -12    0.55    1.29
 -10  -3 -12    2.58    1.35
  10   3  12    2.52    1.04
  10   3  12    0.17    1.29
 -11  -3 -12   14.85    3.62
 -11  -3 -12   10.01    2.27
  11   3  12   12.41    3.30
  11   3  12   13.43    1.98
 -12  -3 -12   26.56    3.59
  12   3  12   25.95    2.87
 -13  -3 -12   -0.53    1.11
  13   3  12   -1.29    1.70
 -14  -3 -12    7.26    2.12
  14   3  12    9.38    1.81
  14   3  12    7.41    2.78
   7  -4 -12    3.42    1.37
  -7   4  12    2.82    3.88
   6  -4 -12   15.08    2.30
  -6   4  12   11.25    3.41
   5  -4 -12   44.41    4.06
  -5   4  12   36.84    5.77
  -4   4  12    5.61    2.63
   3  -4 -12   30.72    3.18
  -3   4  12   29.37    4.58
   2  -4 -12   46.58    4.13
  -2   4  12   49.31    5.79
   1  -4 -12   -0.42    0.55
  -1   4  12   -1.89    1.43
   0  -4 -12   41.23    3.81
   0   4  12   42.87    5.27
  -1  -4 -12   17.65    2.32
  -1  -4 -12   15.94    1.33
   1   4  12   23.64    3.71
  -2  -4 -12   85.16    6.51
  -2  -4 -12   82.70    5.52
   2   4  12   94.87    8.14
  -3  -4 -12  108.43    7.13
  -3  -4 -12  106.61    7.99
   3   4  12  121.13    9.69
  -4  -4 -12   21.33    2.08
  -4  -4 -12   20.62    2.68
   4   4  12   24.71    3.91
  -5  -4 -12   12.43    1.71
  -5  -4 -12   11.52    2.16
   5   4  12   12.79    3.14
  -6  -4 -12   80.86    5.55
  -6  -4 -12   73.06    6.09
   6   4  12   68.61    7.14
  -7  -4 -12    3.35    1.48
  -7  -4 -12    2.15    1.00
   7   4  12    2.25    1.96
  -8  -4 -12   15.70    2.31
  -8  -4 -12   12.49    2.45
   8   4  12   13.21    3.28
  -9  -4 -12   52.97    4.54
  -9  -4 -12   44.17    4.72
   9   4  12   48.62    5.78
 -10  -4 -12    0.18    1.22
 -10  -4 -12    0.54    0.79
  10   4  12    2.65    1.13
  10   4  12    1.05    1.57
 -11  -4 -12   35.52    3.96
 -11  -4 -12   34.83    3.88
  11   4  12   31.64    4.65
  11   4  12   33.86    3.36
 -12  -4 -12   35.33    4.04
  12   4  12   31.79    4.61
  12   4  12   34.06    3.48
 -13  -4 -12   -0.80    1.07
  13   4  12   -1.83    1.57
  13   4  12   -1.48    0.78
 -14  -4 -12   10.74    2.45
  14   4  12   14.85    2.30
  14   4  12    9.70    3.12
   7  -5 -12    0.61    0.76
  -7   5  12   -4.48    2.52
   6  -5 -12   34.72    3.62
  -6   5  12   34.30    7.47
   5  -5 -12   24.10    2.82
  -5   5  12   16.61    4.25
   4  -5 -12   -0.19    0.50
   3  -5 -12   48.19    4.33
  -3   5  12   49.70    6.02
   2  -5 -12   20.00    2.53
  -2   5  12   25.42    4.01
   1  -5 -12    5.23    1.29
  -1   5  12    4.22    2.04
   0  -5 -12   57.33    4.86
   0   5  12   63.45    6.50
  -1  -5 -12   35.19    3.40
   1   5  12   35.49    4.81
  -2  -5 -12   36.16    2.64
  -2  -5 -12   37.14    3.64
   2   5  12   40.62    4.90
  -3  -5 -12   60.07    5.25
  -3  -5 -12   64.84    4.65
   3   5  12   75.57    7.02
  -4  -5 -12   -0.20    0.46
  -4  -5 -12    0.02    0.92
   4   5  12   -2.11    1.13
  -5  -5 -12   43.66    4.42
  -5  -5 -12   47.76    3.73
   5   5  12   55.61    5.85
  -6  -5 -12   85.96    5.78
  -6  -5 -12   66.66    6.24
   6   5  12   85.71    7.68
  -7  -5 -12    3.39    1.51
  -7  -5 -12    4.17    1.28
   7   5  12    4.10    1.93
  -8  -5 -12   18.77    2.92
  -8  -5 -12   24.93    2.87
   8   5  12   22.73    3.88
  -9  -5 -12   20.48    2.53
  -9  -5 -12   16.34    2.72
   9   5  12   16.64    2.12
   9   5  12   13.77    3.15
 -10  -5 -12    0.20    1.32
 -10  -5 -12    2.59    1.28
  10   5  12    0.24    1.84
  10   5  12    2.49    1.04
 -11  -5 -12   44.42    5.68
 -11  -5 -12   35.83    4.25
  11   5  12   38.24    3.64
  11   5  12   34.92    4.72
 -12  -5 -12    0.90    1.13
  12   5  12   -0.50    1.86
  12   5  12    1.56    1.01
 -13  -5 -12    2.25    1.37
  13   5  12    1.99    1.18
 -14  -5 -12   22.63    3.67
  14   5  12   26.57    3.12
   7  -6 -12    0.00    0.84
  -7   6  12   -1.51    2.21
   6  -6 -12   29.81    3.36
  -6   6  12   33.33    6.02
   5  -6 -12    2.90    1.20
  -5   6  12   -1.30    1.96
   4  -6 -12   14.52    2.18
  -4   6  12    8.14    2.92
   3  -6 -12   44.95    4.20
  -3   6  12   48.79    6.12
   2  -6 -12    2.86    1.03
  -2   6  12   -1.20    1.59
   1  -6 -12    7.68    1.73
  -1   6  12    6.99    2.47
   0  -6 -12  111.36    8.41
   0   6  12  126.95   10.34
  -1  -6 -12    3.04    1.28
   1   6  12    1.95    2.09
  -2  -6 -12   34.64    2.59
  -2  -6 -12   40.75    3.72
   2   6  12   41.59    4.96
  -3  -6 -12   47.28    4.56
   3   6  12   59.29    6.14
  -4  -6 -12   -0.36    0.45
  -4  -6 -12   -0.68    0.80
   4   6  12   -1.61    1.40
  -5  -6 -12   77.49    6.65
  -5  -6 -12   86.21    5.94
   5   6  12   96.40    8.22
  -6  -6 -12   31.90    2.87
  -6  -6 -12   25.20    3.43
   6   6  12   40.24    4.66
  -7  -6 -12    3.14    1.56
  -7  -6 -12    4.72    1.12
   7   6  12    6.29    2.38
  -8  -6 -12   64.08    5.04
  -8  -6 -12   56.84    5.51
   8   6  12   60.82    6.41
  -9  -6 -12   19.87    2.48
  -9  -6 -12   10.42    2.51
   9   6  12   12.14    2.97
   9   6  12   19.16    2.24
 -10  -6 -12    0.77    1.03
 -10  -6 -12    0.94    1.26
  10   6  12    0.74    1.56
  10   6  12    0.10    0.76
  11   6  12   33.68    4.59
 -12  -6 -12   -0.77    1.21
  12   6  12    0.99    0.95
  12   6  12    1.39    1.67
 -13  -6 -12   20.95    3.24
  13   6  12   22.64    2.93
  13   6  12   15.13    3.53
   7  -7 -12    3.15    1.41
  -7   7  12    3.08    2.78
   6  -7 -12   15.00    2.31
  -6   7  12   10.18    3.52
   5  -7 -12    2.46    1.21
   4  -7 -12   36.42    3.74
  -4   7  12   40.22    5.98
   3  -7 -12   72.67    6.00
  -3   7  12   79.92    8.24
   2  -7 -12    0.75    0.80
  -2   7  12   -0.30    1.77
   1  -7 -12   33.98    3.57
  -1   7  12   38.43    5.06
   0  -7 -12   37.32    3.79
   0   7  12   45.63    5.56
  -1  -7 -12   11.61    2.22
   1   7  12   11.48    3.36
  -2  -7 -12  132.37    9.29
  -2  -7 -12  115.13    7.82
   2   7  12  149.84   11.18
  -3  -7 -12   75.43    6.51
  -3  -7 -12   80.69    5.98
   3   7  12   98.39    8.25
  -4  -7 -12    1.10    0.64
  -4  -7 -12    0.73    1.13
   4   7  12    1.65    1.64
  -5  -7 -12   79.41    5.56
  -5  -7 -12   69.37    6.40
   5   7  12   90.97    7.79
  -6  -7 -12   24.12    3.30
  -6  -7 -12   26.35    2.59
   6   7  12   29.94    4.22
  -7  -7 -12   21.77    2.39
  -7  -7 -12   16.03    2.68
   7   7  12   21.31    3.67
  -8  -7 -12   25.31    3.56
  -8  -7 -12   31.12    3.14
   8   7  12   30.19    4.19
  -9  -7 -12    2.64    1.61
  -9  -7 -12    3.89    1.32
   9   7  12    6.00    2.40
   9   7  12    7.22    1.60
 -10  -7 -12   14.04    2.31
 -10  -7 -12    9.35    2.59
  10   7  12   14.11    2.06
  10   7  12   12.47    3.15
 -11  -7 -12   22.03    3.36
 -11  -7 -12   18.09    3.55
  11   7  12   22.89    3.62
  11   7  12   23.79    2.77
 -12  -7 -12   -0.92    0.95
  12   7  12    0.66    0.85
 -13  -7 -12   21.69    3.71
  13   7  12   28.88    3.23
  13   7  12   25.46    4.11
   7  -8 -12    3.12    1.31
  -7   8  12    5.25    3.96
   6  -8 -12   15.88    2.48
  -6   8  12   19.83    5.19
   5  -8 -12    0.84    0.88
  -5   8  12   -2.99    2.33
   4  -8 -12   27.60    3.22
  -4   8  12   31.27    7.70
   3  -8 -12   42.17    4.24
  -3   8  12   49.92    6.29
   2  -8 -12   -0.79    0.85
  -2   8  12   -1.91    1.66
   1  -8 -12   58.41    5.30
  -1   8  12   74.46    7.46
   0  -8 -12   13.06    2.34
   0   8  12   10.81    2.99
  -1  -8 -12    2.73    1.26
   1   8  12    2.67    1.73
  -2  -8 -12   44.63    2.97
  -2  -8 -12   41.71    4.26
   2   8  12   47.11    5.71
  -3  -8 -12   38.35    3.93
  -3  -8 -12   37.94    2.94
   3   8  12   43.99    5.46
  -4  -8 -12   10.44    2.29
  -4  -8 -12   13.95    1.68
   4   8  12   19.16    3.98
  -5  -8 -12   95.61    6.71
  -5  -8 -12   86.79    7.53
   5   8  12  117.38    9.24
  -6  -8 -12   -0.56    0.60
  -6  -8 -12    1.82    1.40
   6   8  12   -1.29    1.39
  -7  -8 -12   17.40    3.06
  -7  -8 -12   19.29    2.32
   7   8  12   16.72    3.53
  -8  -8 -12   37.85    3.47
  -8  -8 -12   30.99    4.01
   8   8  12   33.46    3.28
   8   8  12   34.09    4.56
  -9  -8 -12   -0.41    0.74
  -9  -8 -12   -1.31    1.29
   9   8  12   -0.32    0.68
   9   8  12    0.31    1.63
 -10  -8 -12    9.21    2.43
 -10  -8 -12    5.28    1.51
  10   8  12    8.93    1.78
  10   8  12    5.14    2.19
 -11  -8 -12   26.69    3.40
  11   8  12   29.34    3.12
  11   8  12   27.89    4.16
 -12  -8 -12    5.49    1.94
  12   8  12    4.33    1.96
  12   8  12    7.98    1.83
  13   8  12   21.49    3.65
  13   8  12   20.96    2.85
   7  -9 -12   15.91    2.45
  -7   9  12   11.51    4.03
   6  -9 -12   16.39    2.49
  -6   9  12   12.47    3.62
   5  -9 -12    0.30    0.81
  -5   9  12    1.56    2.18
   4  -9 -12   34.47    4.18
  -4   9  12   46.09    6.27
   3  -9 -12   23.21    2.96
  -3   9  12   26.34    6.02
   2  -9 -12   16.66    2.36
  -2   9  12   18.62    4.37
   1  -9 -12   29.04    3.30
  -1   9  12   29.36    5.00
   0  -9 -12    0.38    0.86
   0   9  12    0.16    1.61
  -1  -9 -12   35.69    4.02
   1   9  12   42.08    2.82
   1   9  12   49.78    5.78
  -2  -9 -12   81.77    7.37
  -2  -9 -12  108.16    6.23
   2   9  12   95.53    8.97
  -3  -9 -12   11.50    2.33
  -3  -9 -12   13.97    1.53
   3   9  12   11.69    3.06
  -4  -9 -12   27.54    2.49
  -4  -9 -12   24.95    3.42
   4   9  12   29.71    4.29
  -5  -9 -12   47.37    4.93
  -5  -9 -12   49.56    4.01
   5   9  12   58.38    6.20
  -6  -9 -12   -0.93    0.58
  -6  -9 -12   -0.39    1.04
   6   9  12   -0.08    1.72
  -7  -9 -12   26.00    2.82
  -7  -9 -12   22.22    3.48
   7   9  12   27.11    4.08
  -8  -9 -12   13.12    2.78
  -8  -9 -12   17.53    2.44
   8   9  12   21.60    3.71
   8   9  12   19.23    2.24
  -9  -9 -12    1.35    1.54
  -9  -9 -12   -0.15    0.78
   9   9  12    1.26    1.00
   9   9  12    2.92    1.96
 -10  -9 -12   15.86    3.47
  10   9  12   25.73    4.10
  10   9  12   28.59    2.98
 -11  -9 -12   11.37    2.44
  11   9  12   12.15    3.15
  11   9  12   16.62    2.32
 -12  -9 -12    2.33    1.44
  12   9  12    5.97    2.31
  12   9  12    6.02    1.76
   7 -10 -12    5.87    1.58
   6 -10 -12    1.03    1.06
  -6  10  12   -0.50    2.34
   5 -10 -12    2.38    1.28
  -5  10  12    3.60    2.71
  -4  10  12   46.66    6.52
   3 -10 -12    7.25    1.85
  -3  10  12    8.96    2.99
   2 -10 -12   25.56    3.13
  -2  10  12   24.28    7.14
   1 -10 -12   17.51    2.67
  -1  10  12   27.72    4.65
   0 -10 -12    1.69    1.13
   0  10  12   -1.99    1.61
  -1 -10 -12   25.16    3.34
   1  10  12   31.43    2.25
   1  10  12   33.03    4.92
  -2 -10 -12   44.65    4.68
  -2 -10 -12   48.96    3.68
   2  10  12   56.98    6.32
  -3 -10 -12   -0.62    0.74
  -3 -10 -12   -0.03    0.59
  -4 -10 -12   86.68    7.87
  -4 -10 -12  112.77    6.95
   4  10  12   98.56    9.07
  -5 -10 -12   23.02    2.59
   5  10  12   31.38    4.43
  -6 -10 -12    0.19    0.78
  -6 -10 -12   -1.26    1.19
   6  10  12   -0.90    1.41
  -7 -10 -12   24.75    3.69
  -7 -10 -12   32.39    3.19
   7  10  12   35.52    4.68
   7  10  12   30.94    3.14
  -8 -10 -12    3.52    1.97
  -8 -10 -12    2.92    1.26
   8  10  12    3.43    1.21
   8  10  12    4.42    2.26
  -9 -10 -12    4.91    1.52
  -9 -10 -12    4.08    2.11
   9  10  12    5.25    1.45
   9  10  12    4.30    1.97
 -10 -10 -12   32.28    4.57
 -10 -10 -12   34.45    3.98
  10  10  12   44.48    3.91
  10  10  12   40.73    5.11
 -11 -10 -12   -2.03    1.02
  11  10  12   -1.29    1.60
 -12 -10 -12   10.10    2.24
  12  10  12    8.64    1.88
   6 -11 -12   -0.26    0.92
  -6  11  12    0.10    2.62
   5 -11 -12   28.22    3.35
  -5  11  12   23.10    5.57
   4 -11 -12   32.52    4.13
  -4  11  12   49.54    6.47
   3 -11 -12   -1.50    0.72
  -3  11  12   -0.66    1.78
   2 -11 -12   31.41    3.55
   1 -11 -12   28.09    3.36
   0 -11 -12    4.21    1.54
   0  11  12    3.48    2.52
  -1 -11 -12   39.51    4.41
   1  11  12   55.26    6.42
  -2 -11 -12   27.65    3.74
  -2 -11 -12   35.08    2.62
   2  11  12   32.84    4.91
   2  11  12   34.13    2.70
  -3 -11 -12   15.88    2.95
   3  11  12   13.50    3.14
  -4 -11 -12   71.14    7.15
  -4 -11 -12  101.11    6.37
   4  11  12   94.93    8.68
  -5 -11 -12   40.81    3.69
   5  11  12   48.22    5.48
  -6 -11 -12    0.27    0.95
   6  11  12   -0.83    1.52
  -7 -11 -12   36.30    3.42
  -7 -11 -12   28.72    4.16
   7  11  12   32.90    4.80
   7  11  12   37.33    3.54
  -8 -11 -12   10.26    2.85
  -8 -11 -12    7.85    1.74
   8  11  12    9.08    2.64
   8  11  12   11.28    2.06
  -9 -11 -12    8.03    2.04
  -9 -11 -12    3.62    2.04
   9  11  12    6.34    2.23
   9  11  12   10.37    1.92
  10  11  12   17.46    2.46
  10  11  12   13.66    3.08
 -11 -11 -12   -0.35    1.22
  11  11  12   -0.93    0.88
   5 -12 -12   32.49    5.21
   5 -12 -12   27.94    3.46
  -5  12  12   33.87    6.03
   4 -12 -12   32.43    3.72
   4 -12 -12   36.97    5.21
  -4  12  12   32.00    5.53
  -3  12  12    0.95    2.49
   2 -12 -12   20.81    3.21
  -2  12  12   35.01    5.08
   1 -12 -12   16.17    2.72
  -1  12  12   25.47    4.42
   0 -12 -12    9.00    2.11
   0  12  12    6.47    3.54
  -1 -12 -12   36.37    4.44
   1  12  12   46.11    6.16
   1  12  12   51.83    3.54
  -2 -12 -12   12.85    2.56
  -2 -12 -12   13.27    1.63
   2  12  12   14.05    3.56
   2  12  12   13.12    1.73
  -3 -12 -12   29.88    2.59
  -3 -12 -12   23.37    3.57
   3  12  12   27.48    4.61
  -4 -12 -12   28.44    4.52
  -4 -12 -12   34.31    3.06
   4  12  12   32.31    4.69
  -5 -12 -12    3.83    1.75
  -5 -12 -12    3.95    1.39
   5  12  12    2.98    1.13
   5  12  12    3.22    2.14
  -6 -12 -12    9.76    2.47
  -6 -12 -12    9.05    1.83
   6  12  12    8.75    1.79
   6  12  12   13.30    3.07
  -7 -12 -12   18.07    2.53
  -7 -12 -12   13.98    3.02
   7  12  12   17.50    3.52
   7  12  12   21.03    2.52
  -8 -12 -12   -1.14    1.11
   8  12  12   -2.38    1.59
   8  12  12   -1.03    0.44
  -9 -12 -12   15.74    3.45
   9  12  12   22.38    3.60
   9  12  12   21.03    2.63
 -10 -12 -12    6.72    1.92
  10  12  12    6.45    1.66
   4 -13 -12    3.05    2.62
   4 -13 -12   -0.21    1.20
  -4  13  12    1.49    2.66
   3 -13 -12    8.77    2.52
   3 -13 -12    8.44    1.96
  -3  13  12    5.29    2.70
   2 -13 -12   46.11    5.46
  -2  13  12   64.04    7.42
  -1  13  12   14.30    4.11
   0  13  12   14.16    3.80
   1  13  12   29.22    2.90
   1  13  12   35.36    5.44
  -2 -13 -12    0.09    0.81
   2  13  12    0.80    2.70
   2  13  12   -0.05    0.74
  -3 -13 -12   29.90    2.65
   3  13  12   17.26    4.11
   3  13  12   26.87    2.62
  -4 -13 -12   13.43    2.99
   4  13  12   13.54    3.33
  -5 -13 -12   -2.11    1.09
  -5 -13 -12   -0.62    0.99
   5  13  12    0.10    1.92
   5  13  12   -0.61    0.73
  -6 -13 -12   32.71    4.68
  -6 -13 -12   39.25    3.70
   6  13  12   35.95    3.81
   6  13  12   44.59    5.53
  -7 -13 -12   16.37    3.62
   7  13  12   17.28    3.64
   7  13  12   22.38    2.80
  -8 -13 -12    3.11    2.09
  -8 -13 -12   -0.38    1.18
   8  13  12    0.77    1.05
   8  13  12    0.75    1.96
  -9 -13 -12    7.82    1.91
   9  13  12    6.59    1.85
   9  13  12    8.17    3.34
   3 -14 -12    2.14    1.55
   3 -14 -12    4.37    2.68
  -3  14  12    0.07    2.56
   2 -14 -12   11.98    2.61
  -2  14  12   16.17    4.22
   1 -14 -12   -0.71    1.11
  -1  14  12    2.08    2.44
   0 -14 -12   36.34    4.16
  -1 -14 -12   27.07    3.77
   1  14  12   40.25    5.58
  -2 -14 -12   -1.07    1.16
   2  14  12   -0.28    1.91
   2  14  12    1.26    0.88
  -3 -14 -12   27.94    2.72
  -3 -14 -12   16.80    3.53
   3  14  12   26.27    3.04
   3  14  12   28.07    2.79
   3  14  12   30.56    4.80
  -4 -14 -12   21.24    4.91
  -4 -14 -12   30.84    3.01
   4  14  12   27.44    3.23
   4  14  12   20.44    4.93
  -5 -14 -12   -1.66    1.55
  -5 -14 -12    0.16    1.13
   5  14  12    1.40    1.19
  -6 -14 -12   26.32    4.21
   6  14  12   24.98    3.23
   6  14  12   29.42    4.52
  -7 -14 -12    0.27    1.23
  -7 -14 -12    5.12    2.34
   7  14  12    1.50    1.23
   7  14  12    1.51    2.22
   1 -15 -12    1.01    1.35
  -1  15  12    0.51    2.04
   0 -15 -12   20.97    3.09
   0  15  12   12.00    3.22
  -1 -15 -12    8.05    2.31
   1  15  12   14.70    3.98
  -2 -15 -12    3.68    1.76
   2  15  12    6.63    1.35
   2  15  12    9.06    1.91
   2  15  12    7.28    3.00
  -3 -15 -12   29.46    2.98
  -3 -15 -12   24.05    3.63
   3  15  12   34.32    4.98
   3  15  12   30.73    3.06
   3  15  12   28.32    3.34
  -4 -15 -12    6.55    1.53
  -4 -15 -12    3.12    2.27
   4  15  12    3.22    2.32
   4  15  12    6.56    1.90
   4  15  12    5.67    1.37
  -5 -15 -12   17.18    3.65
  -5 -15 -12   12.57    2.13
   5  15  12   13.13    2.48
   5  15  12   25.10    4.33
  -2   5 -13   12.96    2.38
   2  -5  13   15.73    3.70
  -3   5 -13   20.08    2.36
  -3   5 -13   18.10    2.79
   3  -5  13   24.79    4.45
  -4   5 -13   -0.27    1.07
  -5   5 -13   19.80    3.26
   5  -5  13   28.96    5.18
  -6   5 -13    9.59    2.13
   6  -5  13    8.86    3.28
  -7   5 -13    0.69    1.45
   7  -5  13   -3.06    2.06
   0   4 -13    9.51    2.05
   0   4 -13   13.84    2.15
   0  -4  13   11.32    3.37
  -1   4 -13    0.72    1.17
  -1   4 -13    0.93    0.90
   1  -4  13   -1.05    2.23
  -2   4 -13   30.80    3.20
   2  -4  13   38.93    5.29
  -3   4 -13   13.44    3.61
  -3   4 -13   17.68    2.22
   3  -4  13    9.89    2.82
  -4   4 -13    1.10    0.90
   4  -4  13    0.52    2.12
  -5   4 -13   26.92    3.44
   5  -4  13   35.31    5.36
  -6   4 -13    8.41    2.14
   6  -4  13    6.77    2.99
  -7   4 -13    2.92    1.38
   7  -4  13    1.29    2.27
  -8   4 -13   24.40    3.57
   8  -4  13   34.76    5.40
  -9   4 -13    6.59    1.77
   9  -4  13    5.37    3.10
   2   3 -13   -0.47    0.77
  -2  -3  13   -4.37    2.23
   1   3 -13   24.27    2.70
   1   3 -13   18.10    2.57
  -1  -3  13   12.66    3.68
   0   3 -13   10.61    1.96
   0   3 -13    9.98    1.81
  -1   3 -13   -1.80    0.84
  -1   3 -13    0.04    1.49
  -2   3 -13   22.95    2.73
  -3   3 -13    2.55    0.96
  -3   3 -13    1.83    1.14
   3  -3  13    1.75    2.35
  -4   3 -13    5.45    1.62
  -4   3 -13    4.29    1.22
   4  -3  13    2.24    2.20
  -5   3 -13   42.97    3.99
  -5   3 -13   51.13    4.45
   5  -3  13   44.85    6.08
  -6   3 -13    0.90    1.46
  -6   3 -13    1.53    0.96
   6  -3  13   -0.46    1.80
  -7   3 -13    1.52    1.08
  -7   3 -13    1.61    1.37
   7  -3  13    2.12    2.20
  -8   3 -13    7.63    1.80
   8  -3  13   13.85    3.51
  -9   3 -13   -1.87    1.09
   9  -3  13   -0.74    2.25
 -10   3 -13    8.52    1.96
  10  -3  13   17.04    4.48
   3   2 -13   15.69    2.41
  -3  -2  13    8.58    3.53
   2   2 -13    8.16    1.89
  -2  -2  13    7.12    3.35
   1   2 -13   12.14    1.97
   1   2 -13   12.86    2.02
  -1  -2  13    9.78    3.27
   0   2 -13    7.63    1.94
   0   2 -13    6.91    1.63
   0  -2  13    6.30    2.73
  -1   2 -13   10.26    1.94
   1  -2  13   11.23    3.46
  -2   2 -13   45.63    3.93
  -2   2 -13   45.31    4.06
   2  -2  13   43.42    5.86
  -3   2 -13   -0.21    0.67
  -3   2 -13   -0.12    0.93
   3  -2  13   -0.94    1.79
  -4   2 -13   35.08    3.41
  -4   2 -13   36.53    3.50
   4  -2  13   31.69    7.51
  -5   2 -13   39.82    3.95
  -5   2 -13   47.24    4.12
   5  -2  13   49.79    8.59
  -6   2 -13    2.74    1.20
  -6   2 -13    2.31    1.13
   6  -2  13    0.08    2.00
  -7   2 -13   13.29    2.37
  -7   2 -13    8.90    1.75
   7  -2  13   12.00    3.24
  -8   2 -13    5.25    1.41
  -8   2 -13    8.29    2.34
   8  -2  13   10.72    3.58
  -9   2 -13    0.04    0.99
  -9   2 -13    0.68    1.10
   9  -2  13    1.24    2.35
 -10   2 -13   43.62    4.80
  10  -2  13   57.68    7.00
 -11   2 -13   10.09    2.30
  11  -2  13   11.54    4.04
   4   1 -13   32.20    3.52
  -4  -1  13   26.73    5.37
   3   1 -13    2.01    1.13
  -3  -1  13   -1.44    2.73
   2   1 -13   22.56    2.76
  -2  -1  13   21.43    4.46
   1   1 -13   32.17    3.18
   1   1 -13   42.26    3.85
  -1  -1  13   43.12    5.43
   0   1 -13    3.51    1.30
   0   1 -13    1.73    1.07
   0  -1  13    0.03    2.25
  -1   1 -13   27.65    2.86
   1  -1  13   23.51    4.37
  -2   1 -13   28.68    2.88
  -2   1 -13   27.34    2.93
   2  -1  13   27.91    4.67
  -3   1 -13    4.24    1.34
  -3   1 -13    4.16    1.35
   3  -1  13    1.88    2.30
  -4   1 -13   24.89    2.70
  -4   1 -13   20.49    2.66
   4  -1  13   19.68    4.34
  -5   1 -13   18.08    2.42
  -5   1 -13   16.37    2.39
   5  -1  13   17.47    4.10
  -6   1 -13    2.00    1.12
  -6   1 -13    1.42    1.01
   6  -1  13    3.38    3.24
  -7   1 -13   24.38    2.94
  -7   1 -13   29.18    3.22
   7  -1  13   28.83    4.86
  -8   1 -13   17.95    2.38
  -8   1 -13   19.22    2.73
   8  -1  13   24.41    4.94
  -9   1 -13    1.42    1.47
  -9   1 -13   -0.46    0.96
   9  -1  13   -0.33    2.00
 -10   1 -13   14.27    2.31
 -10   1 -13   24.16    3.12
  10  -1  13   22.41    4.95
  10  -1  13   18.13    2.14
 -11   1 -13    5.24    1.45
 -11   1 -13    5.72    1.83
  11  -1  13    5.18    1.29
  11  -1  13    5.79    2.91
 -12   1 -13    9.41    2.21
  12  -1  13    5.48    2.90
   4   0 -13   40.62    3.95
  -4   0  13   31.75    5.44
   3   0 -13    1.74    1.06
  -3   0  13   -0.41    2.19
   2   0 -13   13.58    2.18
  -2   0  13   14.58    3.43
   1   0 -13   20.39    2.19
  -1   0  13   26.09    4.12
   0   0 -13    1.35    0.88
   0   0 -13   -0.09    0.76
   0   0  13   -0.67    1.83
  -1   0 -13   32.96    3.18
  -1   0 -13   26.36    2.72
   1   0  13   33.38    4.77
  -2   0 -13   12.81    1.90
  -2   0 -13   13.75    2.09
   2   0  13   12.11    2.94
  -3   0 -13    7.51    1.56
  -3   0 -13    5.75    1.25
   3   0  13    7.28    2.58
  -4   0 -13   45.41    4.25
  -4   0 -13   49.63    4.04
   4   0  13   53.63    6.11
  -5   0 -13   11.62    2.21
  -5   0 -13   12.54    1.97
   5   0  13   11.70    3.34
  -6   0 -13    2.17    1.33
  -6   0 -13    3.70    1.30
   6   0  13    3.64    2.69
  -7   0 -13   22.43    2.80
  -7   0 -13   19.42    2.58
   7   0  13   30.92    5.28
  -8   0 -13    0.29    1.02
  -8   0 -13    2.69    1.16
   8   0  13   -3.16    2.28
  -9   0 -13   12.61    2.33
  -9   0 -13   11.13    2.10
   9   0  13   13.06    3.80
 -10   0 -13   22.11    3.07
  10   0  13   19.03    2.19
  10   0  13   13.21    3.59
 -11   0 -13   -0.25    1.03
 -11   0 -13    1.15    1.20
  11   0  13   -1.47    0.64
 -12   0 -13   19.49    3.24
  12   0  13   17.90    4.58
  12   0  13   12.36    2.03
   5  -1 -13   26.03    3.07
  -5   1  13   14.99    3.94
   4  -1 -13   41.85    4.00
  -4   1  13   33.28    5.36
   3  -1 -13    0.32    0.90
  -3   1  13   -0.30    2.11
   2  -1 -13   44.28    4.04
  -2   1  13   37.72    5.41
   1  -1 -13   25.77    2.90
  -1   1  13   19.83    4.04
   0  -1 -13    3.58    0.89
   0  -1 -13    5.30    1.47
   0   1  13    4.72    2.48
  -1  -1 -13   27.25    2.87
  -1  -1 -13   22.80    2.20
   1   1  13   25.35    4.02
  -2  -1 -13    5.24    1.06
  -2  -1 -13    5.14    1.46
   2   1  13    5.57    2.36
  -3  -1 -13   12.68    1.80
  -3  -1 -13   14.28    2.16
   3   1  13   16.25    3.85
  -4  -1 -13   70.64    5.41
  -4  -1 -13   75.56    5.97
   4   1  13   80.20    7.73
  -5  -1 -13   -0.43    0.80
  -5  -1 -13   -0.33    0.94
   5   1  13   -1.64    1.35
  -6  -1 -13   14.30    2.26
  -6  -1 -13   13.56    2.19
   6   1  13   17.19    4.01
  -7  -1 -13   42.30    4.44
  -7  -1 -13   58.68    4.63
   7   1  13   60.10    6.58
  -8  -1 -13   -1.84    0.92
  -8  -1 -13   -0.34    0.89
   8   1  13   -2.32    1.40
  -9  -1 -13   20.77    2.87
  -9  -1 -13   17.21    2.60
   9   1  13   15.99    4.77
 -10  -1 -13   31.17    3.46
  10   1  13   40.27    5.62
 -11  -1 -13    0.30    1.10
  11   1  13   -0.92    0.76
  11   1  13    0.65    2.09
 -12  -1 -13   21.78    3.23
  12   1  13   17.28    4.37
  13   1  13    7.25    1.54
  13   1  13    6.28    3.04
   6  -2 -13    2.24    1.30
   5  -2 -13   44.87    4.16
  -5   2  13   34.16    6.40
   4  -2 -13   16.88    2.44
  -4   2  13   11.09    3.39
   3  -2 -13    6.56    1.68
  -3   2  13    1.43    2.24
   2  -2 -13   54.46    5.16
  -2   2  13   50.90    6.15
   1  -2 -13    3.84    1.18
  -1   2  13    3.54    2.15
   0  -2 -13   13.24    1.54
   0   2  13   16.65    3.52
  -1  -2 -13   47.46    3.66
  -1  -2 -13   52.17    4.43
   1   2  13   54.14    5.99
  -2  -2 -13    2.51    1.12
  -2  -2 -13    3.35    0.83
   2   2  13    2.17    1.93
  -3  -2 -13   28.09    2.59
  -3  -2 -13   29.17    3.14
   3   2  13   35.84    4.59
  -4  -2 -13   30.95    3.39
  -4  -2 -13   35.48    3.04
   4   2  13   36.71    4.89
  -5  -2 -13    0.54    0.75
  -5  -2 -13   -0.57    0.68
   5   2  13   -0.18    1.63
  -6  -2 -13   34.49    3.20
  -6  -2 -13   29.27    3.38
   6   2  13   37.42    5.15
  -7  -2 -13   24.69    2.81
  -7  -2 -13   22.56    2.91
   7   2  13   27.74    4.53
  -8  -2 -13    2.30    1.22
  -8  -2 -13    0.79    1.20
   8   2  13    0.49    1.74
  -9  -2 -13   36.38    4.01
  -9  -2 -13   45.70    4.16
   9   2  13   35.22    5.28
 -10  -2 -13   15.83    2.47
 -10  -2 -13   22.43    2.88
  10   2  13   13.27    3.37
 -11  -2 -13    0.02    1.13
 -11  -2 -13    0.37    1.29
  11   2  13    1.06    1.99
  11   2  13    1.85    0.96
 -12  -2 -13   26.21    3.55
  12   2  13   23.90    4.38
  12   2  13   24.92    2.77
 -13  -2 -13   16.31    2.93
  13   2  13   15.79    3.99
  13   2  13   18.16    2.50
   6  -3 -13    3.23    1.38
  -6   3  13    1.42    2.58
   5  -3 -13   61.52    5.14
  -5   3  13   40.86    9.04
   4  -3 -13   14.53    2.30
   3  -3 -13   17.33    2.51
  -3   3  13   18.87    4.21
  -2   3  13   56.64    6.48
   1  -3 -13    1.57    0.85
  -1   3  13    0.74    1.85
   0  -3 -13   20.49    2.58
   0   3  13   22.13    4.05
  -1  -3 -13   80.44    5.23
  -1  -3 -13   80.57    6.28
   1   3  13   86.15    8.03
  -2  -3 -13    0.58    0.84
  -2  -3 -13   -0.31    0.40
   2   3  13   -0.26    1.67
  -3  -3 -13   42.66    4.05
  -3  -3 -13   43.33    3.33
   3   3  13   48.25    5.66
  -4  -3 -13   39.53    3.98
  -4  -3 -13   44.78    3.43
   4   3  13   42.60    5.42
  -5  -3 -13    0.28    0.73
  -5  -3 -13    1.23    0.99
   5   3  13    1.44    1.42
  -6  -3 -13   18.59    2.62
   6   3  13   16.69    3.55
  -7  -3 -13    7.11    1.62
  -7  -3 -13    5.19    1.78
   7   3  13    6.69    2.76
  -8  -3 -13   13.02    2.19
   8   3  13   10.91    3.41
  -9  -3 -13   63.92    5.25
  -9  -3 -13   54.42    5.21
   9   3  13   61.76    6.89
 -10  -3 -13    3.32    1.59
 -10  -3 -13    4.40    1.47
  10   3  13    7.67    4.57
  10   3  13    7.40    1.50
 -11  -3 -13    0.77    1.33
 -11  -3 -13    1.50    1.17
  11   3  13    3.11    1.15
  11   3  13   -0.30    1.70
 -12  -3 -13   14.63    2.63
  12   3  13   10.83    2.90
  12   3  13   15.93    2.15
 -13  -3 -13   -0.25    1.22
  13   3  13   -2.15    2.00
  13   3  13   -1.34    0.70
   6  -4 -13   14.32    2.63
  -6   4  13   17.12    4.22
   5  -4 -13   33.87    3.68
   4  -4 -13    0.88    0.97
  -4   4  13    1.50    2.31
   3  -4 -13   29.76    3.29
  -3   4  13   33.56    5.06
   2  -4 -13   43.66    4.13
  -2   4  13   47.64    5.86
   1  -4 -13   -0.15    0.62
  -1   4  13   -0.12    1.41
   0  -4 -13   16.35    2.21
   0   4  13    9.42    2.71
  -1  -4 -13   17.30    1.40
  -1  -4 -13   20.21    2.55
   1   4  13   25.02    3.96
  -2  -4 -13    4.95    1.35
  -2  -4 -13    3.52    0.71
   2   4  13    3.95    2.32
  -3  -4 -13   47.89    4.60
  -3  -4 -13   54.50    3.82
   3   4  13   62.49    6.46
  -4  -4 -13    7.97    1.83
  -4  -4 -13    9.24    1.40
   4   4  13    9.97    2.97
  -5  -4 -13   15.74    1.92
  -5  -4 -13   16.09    2.47
   5   4  13   12.84    3.06
  -6  -4 -13   44.47    3.56
  -6  -4 -13   32.78    3.90
   6   4  13   46.78    5.31
  -7  -4 -13    3.68    1.59
  -7  -4 -13    4.36    1.18
   7   4  13    5.31    2.38
  -8  -4 -13   12.59    2.60
  -8  -4 -13   21.64    2.56
   8   4  13   20.90    3.73
  -9  -4 -13   44.67    3.95
  -9  -4 -13   32.52    3.94
   9   4  13   42.65    5.36
 -10  -4 -13   -0.16    0.92
 -10  -4 -13   -1.60    0.90
  10   4  13   -0.12    0.75
  10   4  13    1.30    1.70
 -11  -4 -13   28.61    4.12
 -11  -4 -13   19.55    3.09
  11   4  13   26.30    2.87
 -12  -4 -13   38.37    4.21
 -12  -4 -13   25.80    4.05
  12   4  13   34.81    4.94
 -13  -4 -13   -2.70    1.12
  13   4  13    0.00    0.85
  13   4  13   -1.46    1.53
   6  -5 -13   29.19    3.37
  -6   5  13   21.24    4.86
   5  -5 -13   48.36    4.42
  -5   5  13   38.65    6.32
   4  -5 -13    2.77    1.27
  -4   5  13    2.88    3.37
   3  -5 -13   42.82    4.16
  -3   5  13   47.12    6.09
   2  -5 -13   31.64    3.41
  -2   5  13   37.35    5.22
   1  -5 -13    2.11    1.12
  -1   5  13    1.88    2.06
   0  -5 -13   39.43    3.97
   0   5  13   51.54    5.87
  -1  -5 -13    0.89    0.76
   1   5  13    1.51    1.83
  -2  -5 -13   34.64    2.46
  -2  -5 -13   33.14    3.52
   2   5  13   36.54    5.05
  -3  -5 -13   90.74    6.08
  -3  -5 -13   82.76    6.93
   3   5  13  106.99    8.92
  -4  -5 -13    6.62    1.15
  -4  -5 -13    5.89    1.72
   4   5  13    7.50    2.83
  -5  -5 -13    1.27    1.16
  -5  -5 -13    2.65    0.88
   5   5  13    2.43    1.79
  -6  -5 -13   26.79    3.36
  -6  -5 -13   29.18    2.75
   6   5  13   28.16    4.38
  -7  -5 -13    4.68    1.26
  -7  -5 -13    4.24    1.71
   7   5  13    6.34    2.48
  -8  -5 -13   55.48    4.50
  -8  -5 -13   42.57    4.79
   8   5  13   57.18    6.27
  -9  -5 -13   34.88    3.40
  -9  -5 -13   21.36    3.36
   9   5  13   33.28    4.67
 -10  -5 -13    0.54    1.09
 -10  -5 -13   -0.27    1.30
  10   5  13    1.45    1.02
  10   5  13    1.88    2.03
 -11  -5 -13   43.42    6.77
 -11  -5 -13   42.87    4.60
  11   5  13   37.25    5.45
 -12  -5 -13   25.01    3.52
  12   5  13   27.38    3.00
  12   5  13   17.49    3.98
 -13  -5 -13   -2.07    1.23
  13   5  13   -1.27    0.76
  13   5  13   -1.30    1.81
   6  -6 -13   24.96    3.20
   5  -6 -13    8.70    2.03
  -5   6  13    1.18    2.72
   4  -6 -13   10.39    2.09
  -4   6  13    6.97    4.41
   3  -6 -13   50.77    4.76
  -3   6  13   61.85    7.08
   2  -6 -13   34.98    3.64
  -2   6  13   39.21    5.60
   1  -6 -13   18.28    2.45
  -1   6  13   23.30    4.18
   0  -6 -13   43.63    4.19
   0   6  13   49.68    5.88
  -1  -6 -13    9.13    2.08
   1   6  13   14.27    3.22
  -2  -6 -13   27.64    3.03
  -2  -6 -13   22.14    1.72
  -3  -6 -13   23.15    2.96
   3   6  13   31.21    4.41
  -4  -6 -13   -0.76    0.49
  -4  -6 -13   -0.14    0.95
   4   6  13   -2.77    1.45
  -5  -6 -13   44.38    3.44
  -5  -6 -13   37.68    4.15
   5   6  13   46.20    5.65
  -6  -6 -13   51.36    5.31
  -6  -6 -13   65.82    4.73
   6   6  13   67.97    6.77
  -7  -6 -13    2.65    1.04
  -7  -6 -13    1.14    1.33
   7   6  13    0.61    1.78
  -8  -6 -13   42.72    3.81
  -8  -6 -13   36.40    4.23
   8   6  13   39.65    5.04
  -9  -6 -13   20.01    3.22
  -9  -6 -13   27.74    3.06
   9   6  13   25.09    4.12
   9   6  13   25.38    2.78
 -10  -6 -13    3.21    1.94
 -10  -6 -13    2.08    1.16
  10   6  13    0.52    1.93
  10   6  13    2.75    1.18
 -11  -6 -13   31.16    4.10
 -11  -6 -13   35.02    4.06
  11   6  13   36.26    3.61
  11   6  13   37.01    4.96
 -12  -6 -13    6.24    1.79
  12   6  13    7.80    1.83
 -13  -6 -13    0.14    1.41
  13   6  13    2.64    1.21
  13   6  13    3.30    2.27
   6  -7 -13   44.43    4.18
  -6   7  13   28.13    6.12
   5  -7 -13    0.59    0.92
   4  -7 -13   16.64    2.48
  -4   7  13   13.16    4.17
   3  -7 -13   26.69    3.12
  -3   7  13   23.48    6.55
   2  -7 -13    9.08    2.03
  -2   7  13   12.84    3.87
   1  -7 -13   48.77    4.46
  -1   7  13   47.39    6.07
   0  -7 -13   36.44    3.89
   0   7  13   47.21    5.70
  -1  -7 -13    0.74    0.95
   1   7  13   -0.66    1.68
  -2  -7 -13   14.84    2.28
  -2  -7 -13    9.37    0.93
   2   7  13   15.09    3.72
  -3  -7 -13    4.18    1.53
   3   7  13    2.60    2.04
  -4  -7 -13   -0.27    0.60
  -4  -7 -13   -0.09    0.49
   4   7  13   -0.18    1.59
  -5  -7 -13   60.58    4.46
  -5  -7 -13   54.26    5.31
   5   7  13   66.98    6.70
  -6  -7 -13   18.61    2.91
  -6  -7 -13   20.09    2.28
   6   7  13   23.44    3.90
  -7  -7 -13   10.98    1.73
  -7  -7 -13    8.02    2.20
   7   7  13   11.57    3.22
  -8  -7 -13   25.34    3.59
  -8  -7 -13   29.72    3.08
   8   7  13   33.76    4.53
  -9  -7 -13    4.06    1.65
  -9  -7 -13    4.95    1.46
   9   7  13    6.45    2.44
   9   7  13    5.61    1.42
 -10  -7 -13    4.67    1.49
 -10  -7 -13    5.56    2.34
  10   7  13    5.12    2.55
  10   7  13    8.29    1.77
 -11  -7 -13   23.87    3.83
 -11  -7 -13   31.09    3.50
  11   7  13   27.80    3.13
  11   7  13   27.28    4.35
 -12  -7 -13    4.32    1.71
  12   7  13    6.04    3.71
  12   7  13    3.61    1.34
 -13  -7 -13   11.49    2.42
  13   7  13   16.80    3.53
   6  -8 -13   30.70    3.50
  -6   8  13   26.71    6.20
   5  -8 -13   -0.57    0.76
  -5   8  13   -3.84    2.02
   4  -8 -13   20.72    2.77
  -4   8  13   14.94    3.90
   3  -8 -13   67.95    5.81
  -3   8  13   70.83    8.15
   2  -8 -13   -0.14    0.54
  -2   8  13   -1.57    1.63
   1  -8 -13   19.59    2.75
  -1   8  13   23.98    4.85
   0  -8 -13   39.56    4.14
   0   8  13   46.81    6.09
  -1  -8 -13   10.60    2.14
   1   8  13    6.12    2.73
  -2  -8 -13   13.15    1.12
  -2  -8 -13   21.83    2.85
  -3  -8 -13    6.53    1.93
   3   8  13    6.70    2.37
  -4  -8 -13    4.99    1.72
  -4  -8 -13    4.89    1.07
   4   8  13    6.57    2.71
  -5  -8 -13   36.19    3.17
  -5  -8 -13   35.30    3.98
   5   8  13   44.15    5.50
  -6  -8 -13    3.22    1.46
  -6  -8 -13    2.68    0.93
   6   8  13    0.66    1.85
  -7  -8 -13   19.92    3.04
  -7  -8 -13   24.63    2.62
   7   8  13   24.59    4.06
  -8  -8 -13   22.36    3.64
  -8  -8 -13   28.70    3.08
   8   8  13   34.12    4.35
  -9  -8 -13   -0.42    0.89
  -9  -8 -13   -1.54    0.69
   9   8  13   -0.40    0.42
   9   8  13   -0.63    1.61
 -10  -8 -13   15.84    3.38
 -10  -8 -13   18.79    2.88
  10   8  13   16.68    3.57
  10   8  13   24.61    2.76
 -11  -8 -13   22.32    3.28
 -11  -8 -13   16.31    3.46
  11   8  13   27.19    4.43
  11   8  13   24.20    2.87
 -12  -8 -13   -0.21    1.14
  12   8  13    1.98    1.29
  12   8  13    3.72    2.25
   6  -9 -13   19.38    2.79
  -6   9  13   21.61    5.75
   5  -9 -13    6.62    1.87
  -5   9  13    4.36    3.35
   4  -9 -13   21.04    2.95
  -4   9  13   31.49    5.65
   3  -9 -13   30.40    3.49
   2  -9 -13    0.79    1.18
  -2   9  13    0.41    2.42
   1  -9 -13   35.59    4.00
  -1   9  13   50.99    6.90
   0  -9 -13    3.82    1.52
   0   9  13    5.34    2.82
  -1  -9 -13   19.63    2.66
   1   9  13   17.25    4.14
  -2  -9 -13   23.91    3.15
   2   9  13   37.23    4.96
  -3  -9 -13   10.65    1.45
  -3  -9 -13   15.88    2.43
   3   9  13   15.84    3.83
  -4  -9 -13   15.87    1.88
  -4  -9 -13   15.71    2.93
   4   9  13   23.21    4.08
  -5  -9 -13   19.63    2.46
  -5  -9 -13   14.91    2.86
   5   9  13   22.62    4.01
  -6  -9 -13   -0.40    0.72
  -6  -9 -13   -0.42    0.97
   6   9  13   -2.83    1.46
  -7  -9 -13   24.91    2.91
  -7  -9 -13   30.56    6.29
   7   9  13   35.81    4.75
  -8  -9 -13   22.64    3.50
  -8  -9 -13   22.79    2.74
   8   9  13   24.21    2.72
   8   9  13   22.74    3.81
  -9  -9 -13    3.89    1.80
  -9  -9 -13    0.58    1.14
   9   9  13   -0.92    1.35
   9   9  13    1.58    0.94
 -10  -9 -13   28.84    3.63
 -10  -9 -13   23.54    3.94
  10   9  13   31.69    3.28
  10   9  13   26.75    4.34
 -11  -9 -13   23.49    3.91
 -11  -9 -13   27.55    3.51
  11   9  13   28.64    3.19
  11   9  13   25.28    4.16
 -12  -9 -13    1.15    1.50
  12   9  13    1.48    1.21
  12   9  13    1.96    1.89
   5 -10 -13    4.56    1.60
  -5  10  13    2.00    3.24
   4 -10 -13   36.32    4.04
  -4  10  13   49.22    7.14
   3 -10 -13    2.62    1.39
  -3  10  13   -0.17    2.18
  -2  10  13   13.25    4.38
   1 -10 -13   23.76    3.26
  -1  10  13   29.25    5.12
   0 -10 -13    1.95    1.30
   0  10  13   -0.62    3.60
  -1 -10 -13   26.03    3.45
   1  10  13   31.57    5.08
  -2 -10 -13   26.51    3.64
   2  10  13   41.25    5.45
  -3 -10 -13    0.34    0.60
  -3 -10 -13   -1.00    1.11
   3  10  13   -1.47    1.61
  -4 -10 -13   25.61    2.41
  -4 -10 -13   17.17    2.88
   4  10  13   35.02    4.70
  -5 -10 -13    6.94    2.11
  -5 -10 -13    5.70    1.27
   5  10  13   11.92    3.39
  -6 -10 -13    0.16    0.83
   6  10  13    0.08    1.80
  -7 -10 -13   24.23    3.65
  -7 -10 -13   25.11    2.88
   7  10  13   27.85    4.32
  -8 -10 -13   14.58    2.98
  -8 -10 -13    8.55    1.63
   8  10  13   10.82    2.87
  -9 -10 -13    7.76    1.81
  -9 -10 -13    4.49    2.11
   9  10  13    9.93    2.45
   9  10  13    9.14    1.87
 -10 -10 -13   16.26    2.61
 -10 -10 -13   15.39    3.50
  10  10  13   20.59    2.64
  10  10  13   15.52    3.50
 -11 -10 -13    5.75    1.78
  11  10  13    7.21    1.75
  11  10  13    7.17    2.44
   5 -11 -13   18.31    2.75
  -5  11  13   19.95    5.51
   4 -11 -13   46.78    4.81
  -4  11  13   62.11    7.76
   3 -11 -13    2.52    1.36
  -3  11  13    2.99    2.70
   2 -11 -13   19.68    2.86
  -2  11  13   20.32    4.98
  -1  11  13   25.97    5.39
   0  11  13   -0.94    1.85
  -1 -11 -13   15.53    2.82
  -2 -11 -13   28.24    3.70
   2  11  13   27.41    2.98
   2  11  13   39.57    5.55
  -3 -11 -13    9.92    1.43
  -3 -11 -13    6.15    2.02
   3  11  13    5.03    2.79
  -4 -11 -13   42.04    3.50
   4  11  13   43.44    5.78
  -5 -11 -13    1.75    1.07
  -5 -11 -13    1.96    1.58
   5  11  13    6.15    2.72
  -6 -11 -13    6.74    1.59
  -6 -11 -13    8.33    2.23
   6  11  13   10.71    2.99
  -7 -11 -13   41.48    5.03
  -7 -11 -13   40.15    3.81
   7  11  13   45.11    4.13
   7  11  13   50.73    6.00
  -8 -11 -13    9.71    2.86
   8  11  13   23.75    4.01
   8  11  13   17.18    2.43
  -9 -11 -13    2.08    1.89
  -9 -11 -13    0.37    1.10
   9  11  13    0.54    1.06
   9  11  13    2.84    2.05
 -10 -11 -13    6.50    2.63
 -10 -11 -13   10.59    2.26
  10  11  13   12.64    3.04
  10  11  13   10.67    2.15
   4 -12 -13   29.53    3.64
  -4  12  13   37.19    6.14
   3 -12 -13    0.95    1.28
  -3  12  13   -1.87    2.22
   2 -12 -13   11.44    2.54
  -2  12  13   12.83    3.84
   1 -12 -13    7.76    1.97
  -1  12  13   14.10    4.07
   0 -12 -13    3.64    1.64
   0  12  13    3.73    3.00
  -1 -12 -13   38.26    4.46
   1  12  13   49.50    6.41
  -2 -12 -13    8.66    2.29
   2  12  13    5.93    2.88
  -3 -12 -13    9.00    2.38
  -3 -12 -13   14.53    1.78
  -4 -12 -13   27.99    4.02
   4  12  13   38.72    5.73
  -5 -12 -13    0.27    1.11
  -5 -12 -13    2.48    1.81
   5  12  13    3.19    2.09
  -6 -12 -13    5.62    2.30
  -6 -12 -13    8.30    1.70
   6  12  13    9.89    1.95
   6  12  13    6.67    2.75
  -7 -12 -13   15.00    3.27
  -7 -12 -13    8.81    1.72
   7  12  13   11.42    3.30
  -8 -12 -13   -1.01    1.36
   8  12  13   -0.17    0.88
   8  12  13   -0.03    1.90
  -9 -12 -13   29.36    4.65
  -9 -12 -13   30.40    3.54
   9  12  13   37.75    3.78
   9  12  13   33.01    4.64
 -10 -12 -13   30.97    3.67
   3 -13 -13    1.10    1.14
  -3  13  13   -2.36    2.34
   2 -13 -13   22.62    3.15
  -2  13  13   18.80    4.80
   1 -13 -13    5.62    1.82
  -1  13  13    4.31    2.61
   0 -13 -13    4.23    1.85
   0  13  13    3.15    2.67
  -1 -13 -13   38.40    4.43
   1  13  13   48.25    6.29
  -2 -13 -13    6.10    2.00
   2  13  13   10.50    3.80
  -3 -13 -13    3.19    1.70
  -3 -13 -13    4.58    1.49
   3  13  13    6.39    2.66
  -4 -13 -13   21.77    3.67
  -4 -13 -13   32.40    2.91
   4  13  13   26.27    4.72
  -5 -13 -13   -1.51    1.00
  -5 -13 -13   -2.10    1.18
   5  13  13    0.00    0.85
   5  13  13   -2.78    2.03
  -6 -13 -13   10.57    2.84
  -6 -13 -13   19.24    2.56
   6  13  13   16.82    2.52
  -7 -13 -13    8.84    2.60
  -7 -13 -13   11.19    2.69
   7  13  13   14.65    4.93
   7  13  13   11.99    2.29
  -8 -13 -13    1.14    1.82
  -8 -13 -13   -0.21    1.17
   8  13  13    0.67    2.07
   8  13  13   -1.32    0.77
   2 -14 -13   11.23    2.61
  -2  14  13   11.34    3.38
   1 -14 -13   -0.08    1.46
  -1  14  13    2.50    2.49
   0 -14 -13    8.68    2.20
   0  14  13   10.94    3.94
  -1 -14 -13    7.18    2.14
   1  14  13    4.72    2.76
  -2 -14 -13   -0.62    1.18
  -3 -14 -13   10.57    2.57
   3  14  13   15.00    3.61
   3  14  13   19.01    2.77
  -4 -14 -13   21.96    2.68
   4  14  13   21.22    2.88
   4  14  13   20.28    4.38
   4  14  13   25.88    2.67
  -5 -14 -13    0.70    1.13
  -5 -14 -13    2.85    2.00
   5  14  13    2.41    1.39
   5  14  13    2.68    2.49
   6  14  13   32.83    3.80
   6  14  13   40.39    5.69
  -7 -14 -13    4.50    2.25
  -7 -14 -13    1.91    1.37
   7  14  13    2.13    2.51
   7  14  13    6.26    1.81
  -1 -15 -13    1.50    1.41
   1  15  13    5.11    2.96
  -2 -15 -13    0.70    1.29
  -3 -15 -13   25.82    4.03
   3  15  13   40.25    6.03
   3  15  13   33.72    3.69
  -4 -15 -13    4.97    1.54
  -4 -15 -13    6.03    2.32
   4  15  13    4.29    1.32
   4  15  13    6.71    1.81
  -4   4 -14   -0.46    1.11
  -4   4 -14    0.23    0.86
   4  -4  14   -2.70    2.16
  -5   4 -14    8.75    2.21
   5  -4  14   15.32    4.01
  -1   3 -14   -1.60    1.14
  -1   3 -14   -0.51    0.75
   1  -3  14   -1.59    1.89
  -2   3 -14   24.64    2.83
  -2   3 -14   21.56    2.95
   2  -3  14   32.16    4.95
  -3   3 -14    5.99    1.30
  -3   3 -14    3.97    1.38
   3  -3  14    4.54    2.30
  -4   3 -14    0.15    0.90
   4  -3  14   -2.41    2.03
  -5   3 -14    9.93    2.02
  -5   3 -14   18.01    2.77
   5  -3  14   13.29    3.78
  -6   3 -14    4.42    1.34
  -6   3 -14    3.50    1.42
   6  -3  14    6.12    2.95
  -7   3 -14   11.97    2.27
   7  -3  14   13.49    3.80
  -8   3 -14   26.20    3.40
   8  -3  14   22.22    5.12
  -9   3 -14    2.07    1.32
   1   2 -14   36.48    3.76
   0   2 -14    6.93    1.66
   0   2 -14    1.54    1.94
   0  -2  14    3.38    2.55
  -1   2 -14    1.81    1.26
  -1   2 -14    8.13    1.70
   1  -2  14    4.48    2.75
  -2   2 -14   43.32    4.31
  -2   2 -14   40.36    3.72
   2  -2  14   36.70    5.40
  -3   2 -14    5.41    1.41
  -3   2 -14    5.05    1.48
   3  -2  14    8.31    3.07
  -4   2 -14    0.50    0.91
  -4   2 -14   -0.71    0.88
   4  -2  14    0.06    2.13
  -5   2 -14   20.50    2.83
  -5   2 -14   19.61    2.64
   5  -2  14   30.96    4.86
  -6   2 -14    0.27    1.45
  -6   2 -14    3.27    1.09
   6  -2  14    2.47    2.18
  -7   2 -14    4.03    1.64
  -7   2 -14    2.05    1.17
   7  -2  14   -1.35    2.30
  -8   2 -14    4.82    1.46
  -8   2 -14    5.16    1.46
   8  -2  14    9.68    3.60
  -9   2 -14    0.82    1.18
   9  -2  14   -1.15    2.44
 -10   2 -14   11.17    2.47
  10  -2  14    4.04    2.95
   2   1 -14    7.28    1.90
  -2  -1  14    1.95    2.61
   1   1 -14   14.09    2.19
  -1  -1  14    3.80    2.80
   0   1 -14    4.37    1.30
   0  -1  14    3.10    3.09
  -1   1 -14   20.51    2.56
   1  -1  14   18.83    4.82
  -2   1 -14   43.60    4.10
  -2   1 -14   38.20    3.71
   2  -1  14   54.55    6.38
  -3   1 -14    0.05    0.82
  -3   1 -14   -1.03    0.86
   3  -1  14   -2.11    1.60
  -4   1 -14    7.99    1.68
  -4   1 -14    8.97    1.90
   4  -1  14    3.51    2.35
  -5   1 -14   30.21    3.19
  -5   1 -14   32.56    3.35
   5  -1  14   30.92    4.80
  -6   1 -14   -1.77    0.84
  -6   1 -14   -1.30    0.64
   6  -1  14    0.34    1.99
  -7   1 -14    6.88    1.69
  -7   1 -14    5.82    1.78
   7  -1  14    9.62    3.04
  -8   1 -14    7.63    2.33
  -8   1 -14    3.80    1.36
   8  -1  14    5.34    3.04
  -9   1 -14   12.95    2.11
  -9   1 -14   10.24    2.15
   9  -1  14   11.79    3.29
 -10   1 -14   27.27    3.20
 -10   1 -14   36.25    4.08
  10  -1  14   37.39    3.23
  10  -1  14   42.42    6.23
 -11   1 -14    4.85    1.77
  11  -1  14    3.60    2.91
   3   0 -14    6.19    1.77
  -3   0  14    3.59    2.81
   2   0 -14   11.96    2.25
  -2   0  14    5.81    3.93
   1   0 -14   32.20    3.48
   0   0 -14   -0.05    0.75
  -1   0 -14   24.21    2.51
   1   0  14   19.28    5.22
  -2   0 -14   17.19    3.57
  -2   0 -14   25.20    2.82
   2   0  14   24.72    6.22
  -3   0 -14    2.60    1.15
  -3   0 -14   -0.10    0.80
  -4   0 -14   31.76    3.41
  -4   0 -14   35.58    3.22
  -5   0 -14   13.41    2.14
  -5   0 -14   11.78    2.01
   5   0  14   10.22    3.06
  -6   0 -14    0.93    0.96
  -6   0 -14    0.65    0.96
   6   0  14    1.65    1.97
  -7   0 -14   24.32    3.17
  -7   0 -14   28.51    3.17
   7   0  14   33.91    5.27
  -8   0 -14    5.41    1.63
  -8   0 -14    4.29    1.46
   8   0  14    5.89    2.90
  -9   0 -14    2.89    1.39
  -9   0 -14    1.33    1.21
   9   0  14   -0.18    2.18
 -10   0 -14   31.57    3.63
  10   0  14   30.91    5.58
  10   0  14   31.20    3.00
 -11   0 -14    0.88    1.17
  11   0  14    2.59    2.61
  11   0  14   -1.47    0.79
   4  -1 -14   37.44    4.00
   3  -1 -14    0.04    0.83
  -3   1  14   -0.31    2.02
   2  -1 -14   31.19    3.45
   1  -1 -14   30.65    3.32
  -1   1  14   28.71    6.13
   0  -1 -14   -0.12    0.80
   0   1  14   -0.87    1.72
  -1  -1 -14   30.94    3.33
  -1  -1 -14   27.59    2.59
   1   1  14   34.18    4.90
  -2  -1 -14   18.56    2.46
  -2  -1 -14   17.40    2.02
   2   1  14   14.18    3.73
  -3  -1 -14    6.54    1.35
  -3  -1 -14    6.83    1.71
   3   1  14    6.61    2.86
  -4  -1 -14   49.09    4.55
  -4  -1 -14   55.25    4.46
   4   1  14   52.06    6.92
  -5  -1 -14    6.27    1.80
  -5  -1 -14    4.50    1.28
  -6  -1 -14    9.27    2.15
  -6  -1 -14    9.61    1.87
   6   1  14   11.55    4.11
  -7  -1 -14   21.69    2.97
  -7  -1 -14   22.95    2.79
   7   1  14   26.68    5.27
  -8  -1 -14   -1.50    0.79
  -8  -1 -14    0.56    1.02
   8   1  14    0.98    1.99
  -9  -1 -14   21.47    2.94
  -9  -1 -14   27.55    3.28
   9   1  14   29.31    5.11
 -10  -1 -14   13.52    2.34
 -10  -1 -14   22.65    3.09
  10   1  14   24.76    5.27
 -11  -1 -14    0.76    1.24
 -11  -1 -14   -1.24    0.95
  11   1  14   -1.35    1.89
  11   1  14   -0.76    0.79
 -12  -1 -14    7.46    1.95
 -12  -1 -14   12.69    2.51
  12   1  14    8.96    1.70
  12   1  14    9.34    3.20
   4  -2 -14   21.79    2.88
  -4   2  14   15.32    4.01
   3  -2 -14   -0.43    0.83
  -3   2  14   -2.34    2.69
   2  -2 -14   33.55    3.61
   1  -2 -14    8.20    1.75
  -1   2  14    6.15    3.09
   0  -2 -14    7.75    2.08
   0   2  14    7.60    2.65
  -1  -2 -14   34.16    3.51
  -1  -2 -14   36.58    3.00
   1   2  14   30.74    4.83
  -2  -2 -14   23.61    2.23
  -2  -2 -14   25.58    2.94
   2   2  14   24.83    4.08
  -3  -2 -14   13.38    2.17
  -3  -2 -14    9.59    1.49
   3   2  14   12.16    3.10
  -4  -2 -14   60.28    4.40
  -4  -2 -14   53.03    4.88
   4   2  14   54.98    6.51
  -5  -2 -14    0.48    0.88
  -5  -2 -14    0.34    0.90
   5   2  14    1.61    2.06
  -6  -2 -14   28.54    2.89
  -6  -2 -14   25.20    3.03
   6   2  14   19.17    4.59
  -7  -2 -14   23.55    3.06
  -7  -2 -14   26.99    3.00
  -8  -2 -14   -1.40    0.73
   8   2  14   -2.72    1.78
  -9  -2 -14   31.88    3.79
  -9  -2 -14   35.78    3.79
   9   2  14   39.98    5.46
 -10  -2 -14   11.10    2.26
 -10  -2 -14    9.39    1.98
  10   2  14   14.78    2.00
  10   2  14    9.30    3.06
 -11  -2 -14   -0.32    1.06
 -11  -2 -14    2.37    1.36
  11   2  14    0.43    0.85
  11   2  14    0.45    2.14
 -12  -2 -14   44.05    4.53
 -12  -2 -14   39.07    5.44
  12   2  14   37.80    6.32
   5  -3 -14   23.84    3.14
   4  -3 -14    7.42    1.78
  -4   3  14    5.84    3.52
   3  -3 -14    7.37    1.83
  -3   3  14    2.47    3.20
   2  -3 -14   29.56    3.32
   1  -3 -14    2.45    1.23
  -1   3  14    0.26    2.09
   0   3  14    9.92    3.20
  -1  -3 -14   49.16    4.57
   1   3  14   55.26    6.43
  -2  -3 -14    2.99    1.23
  -2  -3 -14    2.07    0.70
   2   3  14    1.21    2.12
  -3  -3 -14   31.72    3.36
  -3  -3 -14   30.88    2.59
   3   3  14   25.19    4.34
  -4  -3 -14   48.14    4.69
  -4  -3 -14   56.57    4.13
   4   3  14   54.52    6.26
  -5  -3 -14   -1.05    0.78
  -5  -3 -14   -1.02    0.71
   5   3  14   -0.82    1.69
  -6  -3 -14    7.13    1.79
  -6  -3 -14    8.35    1.57
   6   3  14    3.97    2.59
  -7  -3 -14   17.09    2.37
  -7  -3 -14   13.14    2.60
   7   3  14   17.76    4.05
  -8  -3 -14   12.55    2.17
   8   3  14   12.36    5.55
  -9  -3 -14   41.56    3.98
  -9  -3 -14   32.18    3.80
   9   3  14   38.76    5.55
 -10  -3 -14    6.98    2.09
  10   3  14    6.87    1.56
  10   3  14   10.16    3.20
 -11  -3 -14    3.97    1.53
 -11  -3 -14    5.54    1.84
  11   3  14    8.53    2.86
  11   3  14    9.04    1.80
 -12  -3 -14   43.28    4.42
 -12  -3 -14   34.63    3.97
  12   3  14   38.09    5.55
   5  -4 -14   33.30    3.66
  -5   4  14   39.05    6.01
   4  -4 -14    3.99    1.41
  -4   4  14    4.76    2.79
   3  -4 -14   11.63    2.24
  -3   4  14    6.88    3.07
   2  -4 -14   16.99    2.48
   1  -4 -14    0.02    0.64
   0  -4 -14   29.09    3.84
   0   4  14   38.21    5.40
  -1  -4 -14   67.66    5.71
   1   4  14   72.37    7.66
  -2  -4 -14   -0.48    0.78
  -2  -4 -14   -0.41    0.51
  -3  -4 -14   29.53    2.55
  -3  -4 -14   32.96    3.49
   3   4  14   39.41    5.07
  -4  -4 -14    6.55    1.14
  -4  -4 -14    9.06    2.05
   4   4  14   13.63    3.46
  -5  -4 -14   17.90    2.16
  -5  -4 -14   17.43    2.66
   5   4  14   14.77    3.27
  -6  -4 -14   59.21    4.61
  -6  -4 -14   47.69    4.91
   6   4  14   56.82    6.50
  -7  -4 -14   28.88    3.55
  -7  -4 -14   29.44    3.09
   7   4  14   33.74    5.09
  -8  -4 -14    6.79    1.92
  -8  -4 -14   12.71    2.02
   8   4  14    8.69    3.30
  -9  -4 -14   41.18    4.00
   9   4  14   45.14    6.27
 -10  -4 -14    3.17    1.39
 -10  -4 -14    1.16    1.36
  10   4  14    3.08    2.37
  10   4  14    1.52    1.01
 -11  -4 -14   38.24    4.21
  11   4  14   39.72    5.43
 -12  -4 -14    8.85    2.17
 -12  -4 -14    9.78    2.35
  12   4  14   10.01    1.99
  12   4  14   14.87    3.39
 -13  -4 -14   -0.68    0.99
   5  -5 -14   26.93    3.31
  -5   5  14   29.98    5.37
   4  -5 -14    0.85    1.11
  -4   5  14    0.75    2.21
   3  -5 -14   10.65    2.13
  -3   5  14   13.30    3.76
   2  -5 -14    8.28    1.74
  -2   5  14    5.37    3.93
   1  -5 -14   -1.27    0.54
  -1   5  14   -1.60    2.12
   0  -5 -14   38.08    3.92
   0   5  14   38.92    5.63
  -1  -5 -14   27.92    3.20
   1   5  14   26.80    4.81
  -2  -5 -14    2.37    1.23
   2   5  14    3.47    2.50
  -3  -5 -14   28.46    3.42
   3   5  14   36.47    5.04
  -4  -5 -14    6.21    1.05
  -4  -5 -14    6.95    1.82
   4   5  14    9.07    3.06
  -5  -5 -14    2.57    1.38
  -5  -5 -14    2.20    0.91
   5   5  14    0.64    1.78
  -6  -5 -14   21.79    3.08
  -6  -5 -14   29.74    2.81
   6   5  14   25.83    4.39
  -7  -5 -14    0.49    0.84
  -7  -5 -14   -0.01    1.17
   7   5  14    1.28    1.83
  -8  -5 -14   21.44    2.74
   8   5  14   24.56    4.35
  -9  -5 -14   25.77    3.56
  -9  -5 -14   28.76    3.21
 -10  -5 -14   -2.16    1.14
 -10  -5 -14   -0.92    0.94
  10   5  14    2.03    1.80
 -11  -5 -14   44.69    4.38
 -11  -5 -14   30.89    4.27
  11   5  14   39.63    5.30
  11   5  14   42.51    4.02
 -12  -5 -14   16.91    2.97
 -12  -5 -14   11.01    2.63
  12   5  14   15.65    2.31
  12   5  14    8.39    2.47
   5  -6 -14   20.69    2.84
  -5   6  14   15.01    4.27
   4  -6 -14   10.56    2.18
  -4   6  14   13.25    3.94
   3  -6 -14   18.87    2.57
  -3   6  14   22.83    4.96
   2  -6 -14    7.04    1.77
  -2   6  14    9.82    3.09
   1  -6 -14    5.17    1.56
  -1   6  14    4.71    4.09
   0  -6 -14   53.70    5.08
   0   6  14   65.47    7.26
  -1  -6 -14   -0.14    0.77
   1   6  14   -0.68    1.96
  -2  -6 -14   41.12    4.21
   2   6  14   49.03    6.03
  -3  -6 -14   51.49    4.93
   3   6  14   61.46    6.76
  -4  -6 -14   -0.81    0.83
  -4  -6 -14   -0.77    0.52
  -5  -6 -14   24.98    2.43
  -5  -6 -14   22.72    3.19
   5   6  14   28.60    4.67
  -6  -6 -14   33.41    3.06
  -6  -6 -14   29.45    3.72
   6   6  14   39.24    5.33
  -7  -6 -14   -0.80    0.66
  -7  -6 -14    0.03    1.08
   7   6  14   -1.28    1.37
  -8  -6 -14   35.07    4.28
  -8  -6 -14   44.50    3.91
   8   6  14   44.06    5.72
  -9  -6 -14   29.90    3.21
   9   6  14   20.90    5.90
 -10  -6 -14    2.80    1.68
 -10  -6 -14    1.09    1.19
  10   6  14    3.97    2.27
  10   6  14    3.73    1.34
 -11  -6 -14   35.18    3.98
 -11  -6 -14   29.92    4.11
  11   6  14   35.40    4.90
  11   6  14   36.75    3.71
 -12  -6 -14   12.34    2.56
 -12  -6 -14   15.91    3.25
  12   6  14   13.08    3.18
  12   6  14   20.21    2.74
   5  -7 -14   11.70    2.37
  -5   7  14   17.24    4.76
   4  -7 -14   10.03    2.19
  -4   7  14   13.99    4.39
   3  -7 -14   22.43    3.00
   2  -7 -14    7.95    1.98
  -2   7  14    7.38    3.10
   1  -7 -14   23.19    2.83
  -1   7  14   21.22    5.22
   0   7  14   40.60    6.12
  -1  -7 -14    2.33    1.07
   1   7  14    2.97    1.97
  -2  -7 -14   38.91    4.09
   2   7  14   41.15    5.56
  -3  -7 -14   26.63    2.57
  -3  -7 -14   31.55    3.58
   3   7  14   43.48    5.55
  -4  -7 -14   -0.02    1.09
  -4  -7 -14   -0.59    0.57
   4   7  14   -0.29    1.88
  -5  -7 -14   35.47    4.10
  -5  -7 -14   38.05    3.21
   5   7  14   42.61    5.55
  -6  -7 -14   25.54    2.53
  -6  -7 -14   20.05    3.24
  -7  -7 -14    7.71    1.44
  -7  -7 -14    5.16    1.75
   7   7  14    1.02    2.10
  -8  -7 -14   39.65    3.77
   8   7  14   43.23    5.34
  -9  -7 -14   22.41    2.85
  -9  -7 -14   21.22    3.42
   9   7  14   24.27    5.04
 -10  -7 -14    3.83    1.76
 -10  -7 -14    2.05    1.67
  10   7  14    3.15    1.30
  10   7  14    7.96    3.88
 -11  -7 -14   10.96    2.22
 -11  -7 -14    8.11    2.52
  11   7  14    8.80    3.08
  11   7  14   15.14    2.33
 -12  -7 -14   -0.23    1.19
 -12  -7 -14    0.52    1.61
  12   7  14   -0.74    1.98
  12   7  14   -0.81    0.80
   5  -8 -14    2.41    1.15
  -5   8  14   -3.66    2.23
   4  -8 -14   12.57    2.38
  -4   8  14    7.58    3.29
   3  -8 -14   16.14    2.44
  -3   8  14   22.88    5.33
   2  -8 -14    0.36    0.85
  -2   8  14    0.41    2.44
   1  -8 -14   41.13    4.39
  -1   8  14   56.13    6.81
   0   8  14   21.08    7.18
  -1  -8 -14   -0.21    0.95
  -2  -8 -14   35.31    3.94
  -3  -8 -14   17.01    2.00
  -3  -8 -14   17.15    2.75
   3   8  14   25.22    4.25
  -4  -8 -14    1.25    0.74
  -4  -8 -14    1.87    1.18
   4   8  14    4.03    2.62
  -5  -8 -14   30.68    2.79
  -5  -8 -14   28.67    3.68
   5   8  14   30.86    4.94
  -6  -8 -14    2.37    1.16
  -6  -8 -14    3.77    1.67
   6   8  14    2.49    2.51
  -7  -8 -14   22.78    2.52
   7   8  14   18.88    4.19
  -8  -8 -14   27.26    3.03
  -8  -8 -14   28.18    3.88
   8   8  14   30.83    4.65
  -9  -8 -14    2.98    1.28
  -9  -8 -14    1.30    1.61
   9   8  14    2.03    2.54
   9   8  14    2.91    1.18
 -10  -8 -14    6.49    2.28
  10   8  14    9.14    1.97
 -11  -8 -14   31.05    4.42
 -11  -8 -14   40.97    4.29
  11   8  14   41.85    4.05
  11   8  14   42.00    5.35
 -12  -8 -14   -1.46    1.18
  12   8  14    1.04    1.17
  12   8  14   -0.54    1.88
   5  -9 -14   -0.69    0.89
   4  -9 -14   22.20    3.03
  -4   9  14   16.84    4.92
   3  -9 -14   37.03    4.03
  -3   9  14   35.87    5.85
   2  -9 -14    4.21    1.57
  -2   9  14   11.76    3.92
   1  -9 -14   16.16    2.83
  -1   9  14    8.47    3.54
   0  -9 -14   13.72    2.61
   0   9  14   11.54    3.30
   1   9  14   17.03    5.72
  -2  -9 -14   46.12    5.50
   2   9  14   65.56    8.91
  -3  -9 -14    6.45    2.20
   3   9  14    8.23    2.71
  -4  -9 -14   14.21    3.34
  -4  -9 -14   15.25    1.77
   4   9  14   21.07    4.42
  -5  -9 -14   37.25    3.30
   5   9  14   43.66    5.91
  -6  -9 -14   -1.12    0.66
  -6  -9 -14   -1.04    0.69
   6   9  14   -1.12    1.62
  -7  -9 -14   14.88    3.17
  -7  -9 -14   15.05    2.31
   7   9  14   19.31    4.09
  -8  -9 -14   16.41    3.18
  -8  -9 -14   16.29    2.36
   8   9  14   12.59    2.99
  -9  -9 -14   -0.39    0.96
  -9  -9 -14   -0.07    1.54
   9   9  14    2.04    1.12
   9   9  14    0.92    2.28
 -10  -9 -14   15.48    3.36
  10   9  14   22.11    2.72
  10   9  14   16.14    4.97
 -11  -9 -14   10.23    2.85
 -11  -9 -14    7.24    1.83
  11   9  14   16.35    2.46
  11   9  14   11.23    3.03
   4 -10 -14    3.08    1.41
  -4  10  14    6.91    4.05
   3 -10 -14    9.89    2.31
  -3  10  14    5.53    2.94
   2 -10 -14    9.37    2.19
  -2  10  14   11.81    3.93
   1 -10 -14   18.93    2.82
  -1  10  14   11.81    3.69
   0 -10 -14    1.61    1.15
   0  10  14   -2.66    1.52
  -1 -10 -14   17.79    2.85
   1  10  14   15.96    3.94
  -2 -10 -14   31.92    3.99
   2  10  14   42.04    6.29
  -3 -10 -14   -0.46    0.93
  -4 -10 -14   33.93    4.38
  -4 -10 -14   48.36    3.41
   4  10  14   37.45    8.15
  -5 -10 -14   28.28    3.81
  -5 -10 -14   27.38    2.82
   5  10  14   35.24    5.22
  -6 -10 -14    0.58    0.88
  -6 -10 -14    1.45    1.56
   6  10  14   -0.66    2.01
  -7 -10 -14   41.50    3.71
  -7 -10 -14   33.69    4.49
   7  10  14   37.60    5.79
  -8 -10 -14    5.20    1.35
  -8 -10 -14    4.79    2.02
   8  10  14    7.17    1.64
   8  10  14    7.25    3.45
  -9 -10 -14    2.02    1.31
  -9 -10 -14    1.72    1.57
   9  10  14    4.25    1.42
 -10 -10 -14   42.40    4.41
 -10 -10 -14   41.17    5.29
  10  10  14   53.62    7.37
  10  10  14   50.55    4.55
 -11 -10 -14   10.83    2.97
 -11 -10 -14   13.57    2.54
  11  10  14   17.18    2.57
  11  10  14   11.08    3.21
   4 -11 -14   50.78    5.24
  -4  11  14   69.56    8.61
   3 -11 -14    2.14    1.33
  -3  11  14   -0.53    2.31
   2 -11 -14    7.78    2.00
  -2  11  14    6.64    3.40
   1 -11 -14   31.13    3.99
  -1  11  14   48.32    6.31
   0 -11 -14    0.39    1.20
   0  11  14    1.91    1.96
  -1 -11 -14   29.83    3.84
   1  11  14   34.59    5.33
  -2 -11 -14   20.49    3.06
   2  11  14   28.20    4.91
  -3 -11 -14    2.56    1.62
   3  11  14    1.84    1.98
  -4 -11 -14   45.77    5.34
  -4 -11 -14   61.07    4.22
   4  11  14   60.76    7.56
  -5 -11 -14   31.02    4.30
   5  11  14   52.72    8.07
  -6 -11 -14   -0.08    0.99
  -6 -11 -14    0.72    1.45
  -7 -11 -14   34.12    3.47
  -7 -11 -14   28.90    4.10
   7  11  14   40.86    3.72
  -8 -11 -14    8.79    2.36
  -8 -11 -14    6.93    1.64
  -9 -11 -14    4.33    2.31
  -9 -11 -14    2.78    1.23
   9  11  14   10.99    3.34
   9  11  14    7.39    1.84
 -10 -11 -14    8.38    2.72
 -10 -11 -14   10.80    2.12
  10  11  14   11.38    2.24
  10  11  14    9.42    3.17
   3 -12 -14    0.91    1.17
  -3  12  14   -1.05    2.99
   2 -12 -14   26.26    3.65
  -2  12  14   36.24    6.31
   1 -12 -14   21.27    3.26
  -1  12  14   25.92    5.59
   0 -12 -14    0.23    1.18
   0  12  14   -1.98    1.96
  -1 -12 -14   11.98    2.60
   1  12  14   11.71    3.80
  -2 -12 -14    3.52    1.77
   2  12  14    4.17    3.01
  -3 -12 -14    4.97    1.94
   3  12  14   10.15    3.00
  -4 -12 -14   30.48    4.46
  -4 -12 -14   44.54    3.48
   4  12  14   48.17    6.03
  -5 -12 -14    4.35    2.24
  -5 -12 -14    3.55    1.44
   5  12  14    7.42    2.55
  -6 -12 -14   11.43    2.90
   6  12  14   16.27    3.76
  -7 -12 -14   16.92    3.53
  -7 -12 -14   24.85    3.03
   7  12  14   27.75    3.13
   7  12  14   28.57    4.86
  -8 -12 -14   -0.40    1.87
   8  12  14   -0.52    0.94
   8  12  14    0.57    1.99
  -9 -12 -14   10.42    2.92
  -9 -12 -14   14.57    2.58
   9  12  14   16.01    2.50
   9  12  14    8.35    2.89
   2 -13 -14   19.17    3.11
  -2  13  14   11.20    4.10
   1 -13 -14    2.88    1.81
  -1  13  14    6.60    3.43
   0 -13 -14    8.57    2.20
   0  13  14    9.84    3.99
  -1 -13 -14   27.91    3.98
   1  13  14   38.60    6.02
  -2 -13 -14    1.29    1.42
   2  13  14    1.83    2.41
  -3 -13 -14    2.96    1.77
   3  13  14    1.51    2.17
  -4 -13 -14   26.07    4.03
   4  13  14   40.21    5.66
  -5 -13 -14    0.05    1.42
  -5 -13 -14    0.09    1.14
   5  13  14    4.04    2.10
  -6 -13 -14   23.46    2.82
   6  13  14   20.74    2.87
   6  13  14   25.50    4.49
  -7 -13 -14   33.10    4.64
  -7 -13 -14   28.19    3.59
   7  13  14   32.97    5.45
   7  13  14   33.09    3.65
  -8 -13 -14   -1.65    1.09
   0 -14 -14    7.45    2.30
   0  14  14   15.36    4.46
  -1 -14 -14   10.41    2.60
   1  14  14   12.53    4.02
  -2 -14 -14   -2.79    1.22
   2  14  14   -1.52    2.26
  -3 -14 -14    9.58    2.48
   3  14  14    7.34    2.74
  -4 -14 -14   12.44    2.84
   4  14  14   11.17    3.51
  -5 -14 -14    0.94    1.72
   5  14  14    1.59    1.06
   5  14  14    2.94    2.55
  -2   2 -15   30.96    3.59
  -2   2 -15   36.52    3.53
   2  -2  15   28.57    5.13
  -3   2 -15    3.86    1.45
  -3   2 -15    7.26    1.54
   3  -2  15    9.06    3.32
  -4   2 -15    1.86    1.29
  -4   2 -15    1.85    1.27
   4  -2  15    5.79    2.70
  -5   2 -15   21.08    3.15
  -5   2 -15   22.17    3.29
   5  -2  15   28.96    5.02
  -6   2 -15   -1.86    0.90
  -6   2 -15    0.19    1.01
   6  -2  15   -1.07    2.27
  -7   2 -15   14.89    2.61
  -7   2 -15   10.34    2.07
   7  -2  15   24.34    5.20
  -1   1 -15   13.82    2.16
   1  -1  15    8.39    3.26
  -2   1 -15   25.75    2.91
  -2   1 -15   17.63    2.78
   2  -1  15   26.20    4.54
  -3   1 -15   -1.45    0.93
  -3   1 -15    2.65    1.12
   3  -1  15   -2.29    2.06
  -4   1 -15   15.48    2.26
   4  -1  15   10.58    3.54
  -5   1 -15   19.46    2.73
  -5   1 -15   18.73    2.67
   5  -1  15   21.20    4.72
  -6   1 -15   -0.83    0.91
  -6   1 -15   -1.01    0.80
   6  -1  15   -0.78    2.17
  -7   1 -15    5.19    1.51
  -7   1 -15    9.83    1.97
   7  -1  15    9.14    3.45
  -8   1 -15    5.65    1.69
  -8   1 -15    4.42    1.47
   8  -1  15    7.09    3.24
  -9   1 -15    3.06    1.30
  -9   1 -15    3.19    1.58
   9  -1  15    0.23    2.31
   1   0 -15   12.68    2.45
  -1   0  15   13.12    3.73
   0   0 -15    0.06    0.86
   0   0  15   -0.16    2.18
  -1   0 -15   12.65    2.37
   1   0  15    9.53    3.11
  -2   0 -15   27.26    3.06
  -2   0 -15   27.67    3.18
   2   0  15   17.76    4.22
  -3   0 -15    2.21    1.18
  -3   0 -15    0.59    0.91
   3   0  15    0.13    2.47
  -4   0 -15   20.04    2.64
   4   0  15   27.32    4.83
  -5   0 -15   23.60    2.82
  -5   0 -15   22.52    3.03
   5   0  15   26.41    4.76
  -6   0 -15    4.06    1.46
  -6   0 -15    4.79    1.38
   6   0  15    1.91    2.52
  -7   0 -15   33.58    3.51
  -7   0 -15   27.24    3.41
   7   0  15   37.56    5.61
  -8   0 -15    8.18    1.89
  -8   0 -15    7.99    1.73
   8   0  15   10.67    3.48
  -9   0 -15    1.26    1.19
  -9   0 -15    0.31    1.04
   9   0  15    2.84    3.19
 -10   0 -15    7.56    1.91
 -10   0 -15   13.58    2.41
  10   0  15    8.41    3.64
   2  -1 -15   27.05    3.34
  -2   1  15   31.46    5.07
   1  -1 -15   12.94    2.37
  -1   1  15    4.77    2.82
   0  -1 -15    5.88    1.66
   0   1  15    4.15    2.86
  -1  -1 -15   19.35    2.65
   1   1  15   18.44    4.24
  -2  -1 -15   18.04    2.53
   2   1  15   17.13    4.33
  -3  -1 -15    0.75    1.03
   3   1  15   -1.63    2.21
  -4  -1 -15   23.45    2.79
  -4  -1 -15   26.52    3.14
   4   1  15   33.45    5.12
  -5  -1 -15    4.64    1.42
  -5  -1 -15    7.09    1.94
   5   1  15    7.07    3.26
  -6  -1 -15    8.48    1.64
  -6  -1 -15    8.31    2.01
   6   1  15   14.28    4.03
  -7  -1 -15   35.06    3.88
  -7  -1 -15   31.75    3.50
   7   1  15   42.53    5.75
  -8  -1 -15   -0.21    0.93
  -8  -1 -15   -1.07    1.02
   8   1  15    3.67    2.87
  -9  -1 -15    1.39    1.23
  -9  -1 -15    3.09    1.46
   9   1  15    3.67    2.73
 -10  -1 -15   17.11    2.76
 -10  -1 -15   22.40    3.16
  10   1  15   24.20    5.49
 -11  -1 -15   -0.87    1.21
 -11  -1 -15    0.39    1.28
  11   1  15   -1.89    0.88
  11   1  15   -2.52    1.87
  -2   2  15   10.27    3.29
   1  -2 -15    1.66    1.18
  -1   2  15    0.30    2.12
   0  -2 -15    7.19    1.78
   0   2  15    5.13    2.79
  -1  -2 -15   37.83    3.89
   1   2  15   39.35    5.48
  -2  -2 -15    3.98    1.41
   2   2  15   -1.19    2.05
  -3  -2 -15   12.15    1.75
   3   2  15   12.16    3.29
  -4  -2 -15   36.43    3.95
  -4  -2 -15   36.57    3.86
   4   2  15   41.56    5.83
  -5  -2 -15    0.61    1.09
  -5  -2 -15    0.48    0.93
   5   2  15    1.38    2.47
  -6  -2 -15   29.29    3.01
  -6  -2 -15   21.24    3.06
   6   2  15   32.17    5.21
  -7  -2 -15   25.16    3.21
  -7  -2 -15   25.50    2.91
   7   2  15   21.34    4.65
  -8  -2 -15   -1.07    0.91
  -8  -2 -15    0.35    1.03
   8   2  15   -0.38    2.13
  -9  -2 -15   21.39    3.05
   9   2  15   25.79    5.59
 -10  -2 -15   10.61    2.67
 -10  -2 -15    9.40    1.98
  10   2  15   10.31    3.22
 -11  -2 -15   -1.28    1.33
 -11  -2 -15   -0.75    1.05
  11   2  15    2.16    2.88
   3  -3 -15    1.43    1.16
  -3   3  15   -2.01    2.59
   2  -3 -15   30.32    3.43
  -2   3  15   27.65    4.93
   1  -3 -15    1.34    1.08
  -1   3  15   -2.10    2.10
   0  -3 -15   19.20    2.74
   0   3  15   20.46    4.46
  -1  -3 -15   36.61    3.85
   1   3  15   36.97    5.50
  -2  -3 -15   14.83    2.31
   2   3  15   12.14    3.10
  -3  -3 -15    7.50    1.20
   3   3  15    9.45    2.52
  -4  -3 -15   24.40    3.09
  -4  -3 -15   23.71    2.52
   4   3  15   28.20    4.71
  -5  -3 -15    2.50    1.48
   5   3  15    0.12    2.26
  -6  -3 -15   22.22    3.23
  -6  -3 -15   20.59    2.66
   6   3  15   31.40    4.74
  -7  -3 -15    9.47    2.19
  -7  -3 -15   10.33    1.89
   7   3  15   17.39    4.16
  -8  -3 -15   -1.45    0.99
   8   3  15   -0.28    1.76
  -9  -3 -15   20.98    3.10
  -9  -3 -15   24.46    3.02
   9   3  15   13.16    3.71
 -10  -3 -15   12.70    2.36
 -10  -3 -15   10.45    2.74
  10   3  15   11.54    3.69
 -11  -3 -15    1.38    1.38
 -11  -3 -15    0.46    1.19
  11   3  15   -1.48    2.11
  11   3  15   -0.39    0.88
   3  -4 -15   15.63    2.52
  -3   4  15   12.00    3.85
   2  -4 -15    9.17    2.11
  -2   4  15    7.84    3.29
   1  -4 -15    0.03    0.92
  -1   4  15   -1.81    2.08
   0  -4 -15   25.36    3.08
   0   4  15   18.76    4.38
  -1  -4 -15   14.99    2.37
   1   4  15    9.95    2.89
  -2  -4 -15    3.65    1.41
   2   4  15    3.36    2.23
  -3  -4 -15   26.95    2.77
   3   4  15   37.05    5.55
  -4  -4 -15   21.50    2.95
  -4  -4 -15   24.53    2.37
   4   4  15   23.81    5.32
  -5  -4 -15    3.27    1.03
  -5  -4 -15    4.42    1.62
   5   4  15    2.14    2.18
  -6  -4 -15    4.95    1.71
  -6  -4 -15    6.21    1.29
   6   4  15    6.19    2.72
  -7  -4 -15    5.45    1.43
  -7  -4 -15    2.86    1.53
   7   4  15    4.25    2.52
  -8  -4 -15   19.47    2.55
  -8  -4 -15   13.38    3.08
   8   4  15   27.03    4.77
  -9  -4 -15   33.34    3.58
   9   4  15   34.44    5.44
 -10  -4 -15    4.24    1.61
 -10  -4 -15    1.81    1.78
  10   4  15    3.91    2.68
 -11  -4 -15    4.62    1.65
 -11  -4 -15    8.16    2.02
  11   4  15    7.25    1.76
  11   4  15    6.74    3.14
 -12  -4 -15   25.10    3.61
 -12  -4 -15   28.53    3.92
  12   4  15   35.39    3.54
  12   4  15   36.45    5.29
   4  -5 -15   -0.49    0.78
   3  -5 -15   26.03    3.35
  -3   5  15   33.23    5.70
   2  -5 -15   26.70    3.13
  -2   5  15   16.20    4.00
   1  -5 -15   -1.20    0.67
  -1   5  15   -2.97    2.06
   0  -5 -15   36.93    3.86
   0   5  15   35.46    5.69
  -1  -5 -15   18.42    2.66
   1   5  15   17.31    3.78
  -2  -5 -15    7.12    1.92
   2   5  15    2.39    2.40
   3   5  15   69.63    9.11
  -4  -5 -15   12.46    1.70
  -4  -5 -15   16.49    2.64
   4   5  15   14.79    5.30
  -5  -5 -15    6.63    1.86
  -5  -5 -15    7.46    1.36
   5   5  15    5.12    2.74
  -6  -5 -15   18.55    2.38
  -6  -5 -15   17.10    2.81
   6   5  15   18.38    4.09
  -7  -5 -15    2.77    2.84
  -7  -5 -15   10.39    1.79
   7   5  15    9.76    3.14
  -8  -5 -15    7.42    1.63
   8   5  15    9.45    2.90
  -9  -5 -15    8.85    1.86
  -9  -5 -15   10.90    2.50
   9   5  15   11.87    3.23
 -10  -5 -15   -0.79    1.22
 -10  -5 -15   -1.00    1.45
  10   5  15   -0.97    0.71
  10   5  15   -0.21    1.64
 -11  -5 -15   30.74    3.73
 -11  -5 -15   27.78    3.95
  11   5  15   33.24    3.66
  11   5  15   32.40    5.09
 -12  -5 -15    7.95    2.25
 -12  -5 -15    7.03    2.02
  12   5  15    3.40    1.41
  12   5  15    5.56    2.67
   4  -6 -15   -1.49    0.72
  -4   6  15   -2.98    2.27
   3  -6 -15   12.62    2.46
  -3   6  15   16.00    4.44
   2  -6 -15    4.29    1.50
  -2   6  15    7.08    2.89
   1  -6 -15   10.76    2.13
  -1   6  15   20.13    4.62
   0  -6 -15   48.55    4.79
   0   6  15   57.56    7.09
  -1  -6 -15    8.49    1.92
   1   6  15    9.99    3.55
  -2  -6 -15    6.14    1.81
   2   6  15    4.50    2.93
   3   6  15   26.63    6.70
  -4  -6 -15   -0.08    0.64
   4   6  15   -1.17    3.00
  -5  -6 -15   19.58    2.18
   5   6  15   20.64    5.46
   6   6  15   30.55    4.88
  -7  -6 -15   -1.92    0.95
  -7  -6 -15   -1.10    0.72
   7   6  15    0.23    1.84
  -8  -6 -15   13.42    2.96
  -8  -6 -15   18.25    2.47
   8   6  15   16.54    3.83
  -9  -6 -15   16.22    3.07
  -9  -6 -15   17.62    2.60
   9   6  15   16.62    3.69
 -10  -6 -15   -0.67    1.35
  10   6  15    3.48    2.32
  10   6  15   -1.54    0.70
 -11  -6 -15   26.72    3.83
 -11  -6 -15   30.68    3.69
  11   6  15   31.49    3.51
  11   6  15   28.84    4.68
 -12  -6 -15    8.15    2.23
   4  -7 -15    7.23    1.89
  -4   7  15    9.32    3.96
   3  -7 -15   33.62    3.73
  -3   7  15   32.60    5.82
   2  -7 -15    4.75    1.47
  -2   7  15   13.04    3.92
   1  -7 -15   21.28    3.03
  -1   7  15   26.40    4.72
   0  -7 -15   38.04    4.02
  -1  -7 -15    1.18    1.11
   1   7  15    2.16    2.45
  -2  -7 -15   22.97    3.22
   2   7  15   30.27    5.22
  -3  -7 -15   23.16    2.95
   3   7  15   16.77    4.12
  -4  -7 -15    1.76    1.24
   4   7  15   -3.62    2.23
  -5  -7 -15   23.01    3.50
  -5  -7 -15   27.86    2.63
   5   7  15   36.52    5.87
  -6  -7 -15   17.38    3.41
  -6  -7 -15   15.98    3.16
   6   7  15   18.51    4.45
  -7  -7 -15   -0.22    0.81
  -7  -7 -15    0.89    1.20
   7   7  15    0.85    1.92
  -8  -7 -15    9.58    1.82
  -8  -7 -15   12.24    2.78
   8   7  15   13.72    3.54
  -9  -7 -15    5.32    1.99
  -9  -7 -15    7.30    1.68
   9   7  15    3.80    2.59
 -10  -7 -15    7.84    2.38
 -10  -7 -15    1.83    1.84
  10   7  15    2.54    2.13
  10   7  15    7.18    1.71
 -11  -7 -15    7.62    2.00
 -11  -7 -15    4.99    2.43
  11   7  15   11.85    2.31
  11   7  15    7.43    2.99
   4  -8 -15    6.54    1.85
  -4   8  15    5.95    3.63
   3  -8 -15   28.88    3.63
  -3   8  15   38.39    6.28
   2  -8 -15   -0.03    0.97
  -2   8  15   -0.98    2.26
   1  -8 -15   31.57    3.75
  -1   8  15   39.23    6.21
   0  -8 -15   51.16    5.15
   0   8  15   63.93    7.39
  -1  -8 -15   -0.05    0.97
   1   8  15   -0.74    1.87
  -2  -8 -15   21.87    3.10
   2   8  15   23.69    4.94
  -3  -8 -15   29.64    3.70
   3   8  15   33.31    5.52
  -4  -8 -15    0.38    1.18
   4   8  15    0.91    2.10
  -5  -8 -15   26.41    3.60
  -5  -8 -15   24.93    2.62
   5   8  15   34.05    5.29
  -6  -8 -15    5.92    2.06
   6   8  15   12.83    3.73
  -7  -8 -15    3.50    1.15
  -7  -8 -15    4.13    1.84
   7   8  15    5.85    2.81
  -8  -8 -15   16.63    2.41
  -8  -8 -15   14.12    2.97
   8   8  15   16.55    3.67
  -9  -8 -15    0.72    1.71
  -9  -8 -15   -1.63    0.81
   9   8  15    2.11    2.10
 -10  -8 -15    9.13    2.65
 -10  -8 -15   11.22    2.05
  10   8  15   11.79    3.15
  10   8  15   16.90    2.50
 -11  -8 -15   24.49    3.41
  11   8  15   25.37    3.22
  11   8  15   28.86    4.75
   3  -9 -15    7.76    2.06
  -3   9  15    9.69    3.52
   2  -9 -15   -0.15    1.04
   1  -9 -15   38.64    4.46
  -1   9  15   56.48    6.86
   0  -9 -15   12.03    2.48
   0   9  15   10.73    3.52
  -1  -9 -15    2.01    1.34
   1   9  15    0.58    2.53
  -2  -9 -15   41.08    4.63
   2   9  15   55.30    6.69
  -3  -9 -15   12.01    2.45
   3   9  15   17.98    4.17
  -4  -9 -15    3.63    1.68
   4   9  15    7.00    2.92
  -5  -9 -15   16.28    2.11
  -5  -9 -15   14.93    2.91
   5   9  15   22.48    4.71
  -6  -9 -15    4.57    1.39
  -6  -9 -15    9.53    2.40
   6   9  15    5.26    2.98
  -7  -9 -15    6.71    1.41
  -7  -9 -15    7.86    2.32
   7   9  15    8.64    3.09
  -8  -9 -15   11.80    2.84
  -8  -9 -15   17.89    2.51
   8   9  15   14.27    3.59
  -9  -9 -15   -1.56    0.85
  -9  -9 -15   -0.82    1.46
   9   9  15   -0.69    1.85
 -10  -9 -15    9.02    1.82
 -10  -9 -15    9.42    2.63
  10   9  15    9.15    2.91
  10   9  15    8.78    2.05
   3 -10 -15    1.32    1.30
   2 -10 -15    0.77    1.24
  -2  10  15   -0.94    2.98
   1 -10 -15   33.95    3.90
  -1  10  15   36.62    6.04
   0 -10 -15    4.28    1.65
   0  10  15    5.06    3.26
  -1 -10 -15    5.21    1.70
   1  10  15    7.84    3.31
  -2 -10 -15   45.38    5.11
   2  10  15   66.60    7.41
  -3 -10 -15    1.29    1.48
   3  10  15    1.01    2.24
  -4 -10 -15    2.85    1.84
   4  10  15    3.35    2.63
  -5 -10 -15    4.69    1.84
  -5 -10 -15    3.57    1.19
   5  10  15    9.27    3.62
  -6 -10 -15   -1.88    1.13
  -6 -10 -15   -1.07    0.78
   6  10  15   -3.24    1.93
  -7 -10 -15   25.93    3.83
  -7 -10 -15   20.11    2.78
   7  10  15   34.55    5.03
  -8 -10 -15    5.87    1.45
  -8 -10 -15    6.45    2.37
   8  10  15   12.29    3.48
  -9 -10 -15   -0.52    1.47
   9  10  15    0.26    2.01
   9  10  15    0.27    1.03
 -10 -10 -15   15.12    2.59
 -10 -10 -15   10.52    2.81
  10  10  15   16.14    3.73
  10  10  15   16.12    2.52
   2 -11 -15   13.60    2.74
  -2  11  15   13.74    4.62
   1 -11 -15   26.78    3.56
  -1  11  15   14.13    4.21
   0 -11 -15    0.69    1.24
   0  11  15   -0.13    2.42
  -1 -11 -15   24.84    3.54
   1  11  15   23.85    5.40
  -2 -11 -15   24.50    3.63
  -3 -11 -15    0.10    1.42
   3  11  15   -1.12    1.95
  -4 -11 -15   15.19    2.88
   4  11  15   15.61    3.91
  -5 -11 -15   16.63    3.10
  -5 -11 -15   21.99    3.44
   5  11  15   31.25    5.28
  -6 -11 -15   -1.68    1.28
  -6 -11 -15   -2.24    0.97
   6  11  15   -1.56    2.05
  -7 -11 -15   21.34    2.64
  -7 -11 -15   24.61    3.77
   7  11  15   25.85    4.59
  -8 -11 -15    0.48    1.14
  -8 -11 -15    2.80    1.60
   8  11  15    5.63    1.53
   8  11  15    6.53    2.56
  -9 -11 -15    4.98    2.25
  -9 -11 -15    2.99    1.33
   9  11  15    6.76    2.58
   9  11  15    6.73    1.74
   1 -12 -15    7.34    2.11
  -1  12  15    6.62    3.55
   0 -12 -15    0.51    1.28
   0  12  15   -3.96    2.12
  -1 -12 -15   37.86    4.65
   1  12  15   49.60    6.58
  -2 -12 -15   10.39    2.59
   2  12  15    8.27    3.01
  -3 -12 -15   -1.03    1.29
   3  12  15    0.94    2.63
  -4 -12 -15   14.31    3.10
   4  12  15   13.27    3.38
  -5 -12 -15    3.83    2.29
   5  12  15    8.37    2.98
  -6 -12 -15   -1.95    1.20
  -6 -12 -15    0.61    1.61
   6  12  15   -2.16    1.95
  -7 -12 -15   10.60    1.91
  -7 -12 -15    6.38    2.39
   7  12  15   11.81    2.30
   7  12  15    6.93    3.16
  -8 -12 -15    0.48    1.82
   8  12  15    3.51    1.58
   8  12  15    3.67    2.39
   0 -13 -15   -0.19    1.14
   0  13  15   -3.09    2.41
  -1 -13 -15   27.02    3.92
   1  13  15   32.88    5.67
  -2 -13 -15    6.85    2.24
   2  13  15   10.51    3.85
  -3 -13 -15    0.45    1.59
   3  13  15   -0.32    2.20
  -4 -13 -15   12.81    3.13
   4  13  15   17.18    4.43
  -5 -13 -15    0.81    1.37
   5  13  15    0.62    2.44
  -6 -13 -15    5.02    1.91
   6  13  15    7.73    1.76
   6  13  15    1.75    2.24
  -2   0 -16   10.67    2.12
   2   0  16    5.80    3.00
  -3   0 -16   -0.40    0.86
   3   0  16   -2.84    2.29
  -4   0 -16   14.93    2.22
  -4   0 -16   17.66    2.69
   4   0  16   12.31    4.09
  -5   0 -16   10.31    1.86
  -5   0 -16   15.30    2.31
   5   0  16   11.31    3.64
  -6   0 -16   -1.66    1.01
  -6   0 -16   -0.54    1.05
   6   0  16    3.92    2.88
  -7   0 -16   21.04    2.93
   7   0  16   18.83    4.85
  -1  -1 -16   16.07    2.57
   1   1  16   13.64    3.56
  -2  -1 -16   17.08    2.61
   2   1  16   19.79    4.78
  -3  -1 -16    1.66    1.16
   3   1  16    0.02    2.39
  -4  -1 -16   21.26    2.88
  -4  -1 -16   18.72    2.65
   4   1  16   22.28    4.68
  -5  -1 -16   14.85    2.41
  -5  -1 -16   13.30    2.10
   5   1  16   11.62    3.90
  -6  -1 -16    0.76    0.96
  -6  -1 -16    2.21    1.34
   6   1  16   -2.66    2.12
  -7  -1 -16   24.70    3.10
  -7  -1 -16   28.04    3.42
   7   1  16   20.61    5.10
  -8  -1 -16    6.50    1.78
  -8  -1 -16    7.25    1.83
   8   1  16    8.43    3.02
  -9  -1 -16    7.96    1.99
  -9  -1 -16    6.15    1.89
   9   1  16    5.70    2.77
   0  -2 -16    0.41    1.04
   0   2  16    5.52    2.72
  -1  -2 -16    7.67    1.89
   1   2  16    4.33    2.94
  -2  -2 -16    4.27    1.44
   2   2  16    4.68    2.97
  -3  -2 -16   11.66    2.38
   3   2  16   16.38    4.02
  -4  -2 -16   24.01    3.21
  -4  -2 -16   29.77    3.71
   4   2  16   34.53    5.45
  -5  -2 -16   17.92    2.72
  -5  -2 -16   14.12    2.04
   5   2  16    7.96    3.47
  -6  -2 -16    9.04    1.80
  -6  -2 -16    8.27    2.13
   6   2  16    9.63    3.59
  -7  -2 -16   11.96    2.51
  -7  -2 -16   12.09    2.04
   7   2  16   11.57    3.82
  -8  -2 -16    0.39    1.34
  -8  -2 -16   -0.57    1.33
   8   2  16   -1.23    2.07
  -9  -2 -16    7.80    1.86
  -9  -2 -16    4.58    1.83
   9   2  16   12.60    3.57
 -10  -2 -16   12.78    2.55
  10   2  16   12.49    3.69
   1  -3 -16    1.06    1.03
  -1   3  16   -0.29    2.51
   0  -3 -16   14.31    2.52
   0   3  16    2.64    2.65
  -1  -3 -16   53.54    4.93
   1   3  16   49.52    6.70
  -2  -3 -16    7.65    1.91
   2   3  16    5.71    2.69
  -3  -3 -16   11.63    2.36
   3   3  16   14.64    3.65
  -4  -3 -16   25.20    3.19
   4   3  16   19.75    4.51
  -5  -3 -16   -0.01    0.94
   5   3  16   -0.93    2.05
  -6  -3 -16   17.87    2.96
  -6  -3 -16   21.14    2.64
   6   3  16   16.16    4.24
  -7  -3 -16   28.83    3.21
  -7  -3 -16   26.96    3.53
   7   3  16   34.69    5.44
  -8  -3 -16   -0.42    0.95
  -8  -3 -16   -1.76    0.87
   8   3  16   -1.24    2.36
  -9  -3 -16    7.37    2.11
  -9  -3 -16    4.55    1.75
   9   3  16    7.29    3.07
 -10  -3 -16    7.38    2.21
 -10  -3 -16   11.98    2.28
  10   3  16    8.79    3.31
   1  -4 -16   -0.21    0.89
  -1   4  16   -2.54    2.24
   0  -4 -16   20.48    2.92
   0   4  16   17.09    4.29
  -1  -4 -16   43.82    4.57
   1   4  16   52.25    6.71
  -2  -4 -16    3.78    1.45
   2   4  16    5.31    2.90
  -3  -4 -16   10.03    2.26
   3   4  16   10.26    3.53
  -4  -4 -16   22.10    3.27
   4   4  16   23.46    4.89
  -5  -4 -16   -0.57    1.00
   5   4  16    1.58    2.41
  -6  -4 -16   23.63    2.77
  -6  -4 -16   24.92    3.31
   6   4  16   31.13    5.03
  -7  -4 -16   10.10    2.36
  -7  -4 -16    4.34    1.27
   7   4  16    5.59    3.41
  -8  -4 -16   -0.33    1.23
  -8  -4 -16    0.31    0.94
   8   4  16   -0.31    2.22
  -9  -4 -16   19.31    3.17
   9   4  16   20.68    4.65
 -10  -4 -16    7.76    2.24
 -10  -4 -16    7.74    1.72
  10   4  16   11.78    3.87
   2  -5 -16   10.68    2.40
  -2   5  16    8.86    3.57
   1  -5 -16    0.01    1.04
  -1   5  16   -1.22    2.61
   0  -5 -16   23.07    3.03
   0   5  16   12.71    3.58
  -1  -5 -16    6.85    1.95
   1   5  16    5.26    3.18
  -2  -5 -16    3.70    1.41
   2   5  16    1.41    2.76
  -3  -5 -16   39.15    4.27
   3   5  16   39.69    6.09
  -4  -5 -16   16.52    2.69
   4   5  16   15.90    4.08
  -5  -5 -16   -0.59    0.79
  -5  -5 -16    1.39    1.38
   5   5  16    1.97    1.98
  -6  -5 -16   28.88    3.05
  -6  -5 -16   31.13    5.10
   6   5  16   36.14    5.40
  -7  -5 -16    1.16    1.07
  -7  -5 -16    4.20    1.89
   7   5  16    4.57    2.66
  -8  -5 -16   -0.61    0.97
  -8  -5 -16    1.53    1.42
   8   5  16   -1.02    2.38
  -9  -5 -16    8.10    1.71
  -9  -5 -16    8.70    2.39
   9   5  16   19.22    4.49
 -10  -5 -16   -1.43    0.90
 -10  -5 -16   -1.40    1.35
  10   5  16   -1.85    2.14
   2  -6 -16   11.31    2.44
  -2   6  16    9.23    3.32
   1  -6 -16    0.47    1.06
  -1   6  16    0.18    3.02
   0  -6 -16   22.94    3.09
   0   6  16   16.28    4.09
  -1  -6 -16    7.11    2.46
   1   6  16    4.78    2.99
  -2  -6 -16   13.44    2.54
   2   6  16    9.48    3.47
  -3  -6 -16   51.79    5.18
   3   6  16   61.72    7.43
  -4  -6 -16    9.27    2.25
   4   6  16   11.92    3.47
  -5  -6 -16   14.95    2.62
  -5  -6 -16   21.67    2.98
   5   6  16   21.30    4.78
  -6  -6 -16   19.59    2.70
  -6  -6 -16   19.49    3.11
   6   6  16   29.88    4.68
  -7  -6 -16   -1.12    0.78
   7   6  16   -0.88    1.97
  -8  -6 -16   21.20    3.48
  -8  -6 -16   28.04    3.03
   8   6  16   24.95    5.26
  -9  -6 -16   43.81    4.14
  -9  -6 -16   35.32    4.51
   9   6  16   46.74    6.27
 -10  -6 -16    0.19    1.41
 -10  -6 -16   -0.97    0.97
  10   6  16    1.37    2.25
   2  -7 -16    7.45    1.96
  -2   7  16    9.65    4.00
   1  -7 -16    4.12    1.52
  -1   7  16    3.41    3.11
   0  -7 -16   25.20    3.39
   0   7  16   32.56    5.71
  -1  -7 -16    2.23    1.38
   1   7  16    5.84    3.00
  -2  -7 -16    6.09    1.84
   2   7  16    9.14    3.17
  -3  -7 -16   28.15    3.55
   3   7  16   41.54    6.18
  -4  -7 -16    2.08    1.32
   4   7  16   -1.53    2.45
  -5  -7 -16   18.93    3.11
  -6  -7 -16   14.27    2.97
   6   7  16   22.49    4.88
  -7  -7 -16   -1.28    0.80
  -7  -7 -16   -1.84    1.01
   7   7  16   -0.30    1.85
  -8  -7 -16   31.19    3.28
  -8  -7 -16   30.83    4.12
   8   7  16   35.46    5.31
  -9  -7 -16    8.84    1.88
  -9  -7 -16    7.50    2.26
   9   7  16    4.55    2.62
 -10  -7 -16   -1.22    0.95
 -10  -7 -16   -0.23    1.52
  10   7  16   -0.74    0.72
  10   7  16   -3.13    1.94
   2  -8 -16    0.02    1.04
  -2   8  16    1.16    2.83
   1  -8 -16    8.72    2.15
  -1   8  16    8.33    3.81
   0  -8 -16   24.01    3.42
   0   8  16   33.40    5.75
  -1  -8 -16    0.57    1.27
   1   8  16    0.72    2.29
  -2  -8 -16   18.88    2.94
   2   8  16   12.68    3.84
  -3  -8 -16   28.05    3.69
   3   8  16   31.80    5.35
  -4  -8 -16   -0.31    1.04
  -5  -8 -16   14.17    2.93
   5   8  16   22.16    4.77
  -6  -8 -16    8.66    2.45
   6   8  16    8.46    3.38
  -7  -8 -16   -0.03    1.21
  -7  -8 -16   -0.90    0.85
   7   8  16   -1.72    1.64
  -8  -8 -16   22.27    3.81
  -8  -8 -16   28.36    3.11
   8   8  16   36.55    5.11
  -9  -8 -16    5.06    1.58
  -9  -8 -16    3.21    1.80
   9   8  16    5.05    2.57
 -10  -8 -16    0.39    1.14
 -10  -8 -16    0.92    1.73
  10   8  16    1.20    0.99
  10   8  16    2.23    2.51
   2  -9 -16   -0.70    1.02
  -2   9  16   -1.26    2.71
   1  -9 -16    6.73    2.09
  -1   9  16    2.11    2.94
   0  -9 -16   10.00    2.31
   0   9  16   16.78    4.56
  -1  -9 -16    0.83    1.32
   1   9  16   -3.97    2.10
  -2  -9 -16   20.94    3.27
   2   9  16   35.07    5.77
  -3  -9 -16    9.48    2.47
   3   9  16   15.18    4.76
  -4  -9 -16    6.25    2.07
   4   9  16    4.91    2.72
  -5  -9 -16   16.20    3.22
   5   9  16   31.13    5.38
  -6  -9 -16    1.12    1.55
   6   9  16    2.12    2.25
  -7  -9 -16    9.99    1.92
  -7  -9 -16    7.38    2.43
   7   9  16    7.06    2.82
  -8  -9 -16   11.97    1.93
  -8  -9 -16   11.34    2.85
   8   9  16   11.44    3.26
  -9  -9 -16   -1.37    1.62
  -9  -9 -16   -1.15    1.31
   9   9  16   -1.65    2.01
   9   9  16    1.35    1.08
   1 -10 -16    9.83    2.42
  -1  10  16    8.81    3.67
   0 -10 -16    1.84    1.44
   0  10  16   -3.04    2.53
  -1 -10 -16    2.93    1.66
   1  10  16    6.22    3.48
  -2 -10 -16   35.13    4.36
   2  10  16   49.78    6.83
   3  10  16    6.17    3.19
  -4 -10 -16    8.14    2.26
   4  10  16    5.60    3.04
  -5 -10 -16   13.10    2.80
   5  10  16   19.15    4.73
  -6 -10 -16    0.44    1.39
   6  10  16   -1.80    2.33
  -7 -10 -16    5.65    1.60
  -7 -10 -16    9.36    2.68
   7  10  16   12.68    3.54
  -8 -10 -16    7.32    2.31
  -8 -10 -16    8.16    1.69
   8  10  16    5.44    2.52
  -9 -10 -16   -1.32    1.25
  -9 -10 -16   -2.10    0.93
   9  10  16   -0.32    0.65
   9  10  16    1.83    2.46
   0  11  16    9.49    3.76
  -1 -11 -16    3.96    1.89
   1  11  16    6.16    3.15
  -2 -11 -16   25.15    3.53
   2  11  16   27.05    5.85
  -3 -11 -16   -1.08    1.21
   3  11  16   -2.01    2.34
  -4 -11 -16   11.56    2.92
   4  11  16   11.77    3.59
  -5 -11 -16    6.26    2.32
   5  11  16   10.34    3.94
  -6 -11 -16   -1.09    1.15
   6  11  16   -0.99    2.50
  -7 -11 -16   26.06    3.98
   7  11  16   28.49    5.03
  -8 -11 -16   10.68    2.96
   8  11  16   12.12    3.85
  -1 -12 -16   10.92    2.68
   1  12  16   18.72    5.15
  -2 -12 -16    7.59    2.27
   2  12  16   18.87    4.87
  -3 -12 -16   -0.60    1.29
   3  12  16    0.63    2.58
  -4 -12 -16   13.14    2.69
   4  12  16   18.06    4.47
  -5 -12 -16    5.95    2.23
   5  12  16   11.14    3.39
  -6 -12 -16    3.02    1.88
   6  12  16    2.38    2.90
  -4  -2 -17   14.81    2.80
   4   2  17   18.64    4.67
  -5  -2 -17    2.36    1.32
   5   2  17   -0.03    2.63
  -6  -2 -17    8.82    1.98
  -6  -2 -17    5.41    1.60
   6   2  17    8.73    3.93
  -2  -3 -17    0.24    1.12
   2   3  17    3.27    2.99
  -3  -3 -17    4.39    1.64
   3   3  17    7.92    3.70
  -4  -3 -17   21.53    2.98
   4   3  17   15.11    4.52
  -5  -3 -17    1.99    1.42
   5   3  17   -0.43    2.55
  -6  -3 -17    7.44    2.12
  -6  -3 -17    7.05    2.33
   6   3  17    5.35    3.36
  -7  -3 -17    5.83    1.95
   7   3  17    4.75    3.02
  -8  -3 -17    1.03    1.68
   8   3  17    2.13    2.45
   1   4  17    4.50    3.15
  -2  -4 -17   -1.88    0.91
   2   4  17    0.30    2.49
  -3  -4 -17   13.82    3.63
   3   4  17   16.39    4.38
  -4  -4 -17   12.05    2.55
   4   4  17   17.30    4.63
  -5  -4 -17   -1.00    0.89
   5   4  17   -4.75    2.23
  -6  -4 -17   17.57    2.82
  -7  -4 -17    9.70    1.80
  -7  -4 -17    6.18    2.27
   7   4  17    8.21    3.31
  -8  -4 -17    8.11    2.30
  -8  -4 -17    4.39    1.56
   8   4  17    8.63    3.57
  -1  -5 -17   21.04    3.01
   1   5  17   12.36    3.78
  -2  -5 -17   -0.43    1.03
   2   5  17   -2.47    2.38
  -3  -5 -17    7.26    2.01
   3   5  17    6.00    3.22
  -4  -5 -17    6.93    1.99
   4   5  17    3.74    2.60
  -5  -5 -17   -0.19    1.13
   5   5  17   -0.27    2.25
  -6  -5 -17   23.53    3.46
   6   5  17   18.97    4.67
  -7  -5 -17    1.78    1.23
  -7  -5 -17    3.88    1.74
   7   5  17    6.87    3.11
  -8  -5 -17    2.36    1.32
  -8  -5 -17   -0.85    1.22
   8   5  17    0.62    2.46
  -9  -5 -17   22.87    3.55
  -9  -5 -17   25.56    3.18
   9   5  17   15.83    4.09
   0  -6 -17   13.72    2.71
   0   6  17   18.23    4.85
  -1  -6 -17   -0.13    1.11
   1   6  17    7.06    3.39
  -2  -6 -17    3.80    1.62
   2   6  17    3.96    3.44
  -3  -6 -17   21.93    3.14
   3   6  17   16.68    4.13
  -4  -6 -17    0.61    0.95
   4   6  17   -1.89    2.61
  -5  -6 -17    0.98    1.13
   5   6  17   -1.29    2.38
  -6  -6 -17   28.66    3.85
   6   6  17   34.63    5.70
  -7  -6 -17   -1.11    1.17
  -7  -6 -17   -1.81    0.98
   7   6  17   -2.59    2.23
  -8  -6 -17    7.83    2.35
  -8  -6 -17    9.27    1.76
   8   6  17    2.38    2.82
  -9  -6 -17   13.68    3.13
   9   6  17   18.08    4.72
   0  -7 -17   23.02    3.27
   0   7  17   17.13    4.42
  -1  -7 -17    7.01    1.94
   1   7  17    3.93    3.24
  -2  -7 -17    4.64    1.79
   2   7  17    8.51    3.77
  -3  -7 -17    7.55    2.14
   3   7  17   18.50    4.92
  -4  -7 -17    0.69    1.16
   4   7  17   -2.65    2.53
  -5  -7 -17   19.59    3.18
   5   7  17   15.15    4.09
  -6  -7 -17   12.16    2.65
   6   7  17    7.75    3.65
  -7  -7 -17   -1.41    1.38
  -7  -7 -17   -0.46    1.18
   7   7  17    2.19    2.42
  -8  -7 -17   13.19    2.13
  -8  -7 -17   11.51    2.77
   8   7  17    7.94    3.66
   9   7  17   11.67    4.10
   0  -8 -17   13.75    2.79
   0   8  17   16.27    4.96
   1   8  17    2.72    2.91
  -2  -8 -17   14.48    2.97
   2   8  17   12.17    4.30
  -3  -8 -17   15.68    2.98
   3   8  17   11.99    4.45
  -4  -8 -17   -0.11    1.19
   4   8  17   -1.84    2.51
  -5  -8 -17   30.14    3.73
   5   8  17   25.10    5.45
  -6  -8 -17    8.47    2.24
   6   8  17   11.63    3.88
  -7  -8 -17    0.87    1.36
   7   8  17   -0.80    2.23
  -8  -8 -17   15.42    3.25
  -8  -8 -17   16.65    2.60
   8   8  17   19.62    4.80
  -1  -9 -17   -0.43    1.13
   1   9  17   -0.66    2.64
  -2  -9 -17   12.62    2.73
   2   9  17    9.66    3.36
  -3  -9 -17   11.70    2.71
   3   9  17   11.76    3.75
  -4  -9 -17    1.18    1.48
   4   9  17   -1.18    2.71
  -5  -9 -17   10.55    2.51
   5   9  17   15.79    4.52
  -6  -9 -17   -0.27    1.18
   6   9  17   -3.12    2.29
  -7  -9 -17    3.92    1.82
   7   9  17    4.81    3.13
  -2 -10 -17   21.28    3.46
   2  10  17   20.08    4.98
  -3 -10 -17    3.75    1.69
   3  10  17   -0.30    2.79
  -4 -10 -17    4.56    2.02
   4  10  17    5.74    3.19
  -5 -10 -17   10.56    2.78
   5  10  17   18.45    4.70
  -6 -10 -17   -0.74    1.35
   6  10  17   -0.05    2.64
   7  10  17   13.91    3.94
  -4 -11 -17   10.83    2.53
   4  11  17   16.72    4.28
   0   0   0    0.00    0.00
;
_shelx_hkl_checksum              73675
_olex2_submission_special_instructions 'No special instructions were received'
loop_
_space_group_symop_operation_xyz
'x, y, z'
'-x, -y, -z'
loop_
_atom_site_label
_atom_site_type_symbol
_atom_site_fract_x
_atom_site_fract_y
_atom_site_fract_z
_atom_site_U_iso_or_equiv
_atom_site_adp_type
_atom_site_occupancy
_atom_site_site_symmetry_order
_atom_site_calc_flag
_atom_site_refinement_flags_posn
_atom_site_refinement_flags_adp
_atom_site_refinement_flags_occupancy
_atom_site_disorder_assembly
_atom_site_disorder_group
Dy1 Dy 0.32174(2) -0.04540(2) 1.01883(2) 0.01493(6) Uani 1 1 d . . . . .
O1 O 0.5170(3) 0.1482(3) 0.5238(3) 0.0222(6) Uani 1 1 d . . . . .
O2 O 0.5520(3) 0.4419(3) 0.7011(3) 0.0201(6) Uani 1 1 d . . . . .
O3 O 0.1541(3) 0.3545(4) 0.6469(3) 0.0260(7) Uani 1 1 d . . . . .
O4 O 0.5454(3) 0.0313(3) 0.8681(3) 0.0175(6) Uani 1 1 d . . . . .
O5 O 0.3959(3) -0.0176(3) 0.8043(3) 0.0208(6) Uani 1 1 d . . . . .
O6 O 0.3562(3) 0.1731(3) 0.9787(3) 0.0221(6) Uani 1 1 d . . . . .
O7 O 0.5660(3) 0.2248(3) 0.9463(3) 0.0205(6) Uani 1 1 d . . . . .
O8 O -0.1713(3) 0.1141(4) 0.7934(3) 0.0284(7) Uani 1 1 d . . . . .
O9 O 0.0336(4) 0.0919(4) 0.7875(4) 0.0347(9) Uani 1 1 d . . . . .
O10 O 0.1819(3) -0.1991(3) 1.0150(3) 0.0278(7) Uani 1 1 d . . . . .
N1 N 0.0297(4) -0.2604(4) 0.9522(4) 0.0240(8) Uani 1 1 d . . . . .
C1 C 0.4676(4) 0.2326(4) 0.5757(4) 0.0183(8) Uani 1 1 d . . . . .
C2 C 0.3398(4) 0.2511(4) 0.5818(4) 0.0199(8) Uani 1 1 d . . . . .
H2 H 0.293910 0.208346 0.554273 0.024 Uiso 1 1 calc R . . . .
C3 C 0.2831(4) 0.3357(4) 0.6305(4) 0.0189(8) Uani 1 1 d . . . . .
C4 C 0.3500(4) 0.4008(4) 0.6719(4) 0.0185(8) Uani 1 1 d . . . . .
H4 H 0.310116 0.457352 0.704258 0.022 Uiso 1 1 calc R . . . .
C5 C 0.4778(4) 0.3793(4) 0.6637(4) 0.0172(8) Uani 1 1 d . . . . .
C6 C 0.5394(4) 0.2957(4) 0.6144(4) 0.0181(8) Uani 1 1 d . . . . .
H6 H 0.625521 0.282781 0.607785 0.022 Uiso 1 1 calc R . . . .
C7 C 0.6142(4) 0.0756(4) 0.5553(4) 0.0180(8) Uani 1 1 d . . . . .
C8 C 0.6171(4) 0.0104(4) 0.6764(4) 0.0165(7) Uani 1 1 d . . . . .
C9 C 0.7167(4) -0.0647(4) 0.6976(4) 0.0221(9) Uani 1 1 d . . . . .
H9 H 0.720778 -0.106248 0.777511 0.026 Uiso 1 1 calc R . . . .
C10 C 0.8108(5) -0.0785(5) 0.6006(5) 0.0252(9) Uani 1 1 d . . . . .
H10 H 0.875994 -0.130730 0.615890 0.030 Uiso 1 1 calc R . . . .
C11 C 0.8064(5) -0.0136(5) 0.4805(5) 0.0267(10) Uani 1 1 d . . . . .
H11 H 0.868968 -0.022148 0.415274 0.032 Uiso 1 1 calc R . . . .
C12 C 0.7087(5) 0.0641(5) 0.4580(4) 0.0236(9) Uani 1 1 d . . . . .
H12 H 0.706651 0.108308 0.377568 0.028 Uiso 1 1 calc R . . . .
C13 C 0.5133(4) 0.0105(4) 0.7866(4) 0.0163(7) Uani 1 1 d . . . . .
C14 C 0.4833(4) 0.4824(4) 0.7918(4) 0.0193(8) Uani 1 1 d . . . . .
C15 C 0.4297(4) 0.3908(4) 0.9137(4) 0.0188(8) Uani 1 1 d . . . . .
C16 C 0.3580(4) 0.4305(4) 1.0023(4) 0.0213(8) Uani 1 1 d . . . . .
H16 H 0.319715 0.369893 1.083443 0.026 Uiso 1 1 calc R . . . .
C17 C 0.3428(5) 0.5610(5) 0.9710(5) 0.0251(9) Uani 1 1 d . . . . .
H17 H 0.294823 0.587526 1.030719 0.030 Uiso 1 1 calc R . . . .
C18 C 0.4003(5) 0.6507(5) 0.8490(5) 0.0275(10) Uani 1 1 d . . . . .
H18 H 0.391407 0.737673 0.827998 0.033 Uiso 1 1 calc R . . . .
C19 C 0.4703(5) 0.6130(4) 0.7589(5) 0.0248(9) Uani 1 1 d . . . . .
H19 H 0.508029 0.673521 0.677608 0.030 Uiso 1 1 calc R . . . .
C20 C 0.4534(4) 0.2508(4) 0.9490(4) 0.0179(8) Uani 1 1 d . . . . .
C21 C 0.0984(4) 0.3423(4) 0.5650(4) 0.0203(8) Uani 1 1 d . . . . .
C22 C -0.0082(4) 0.2511(4) 0.6116(4) 0.0189(8) Uani 1 1 d . . . . .
C23 C -0.0762(4) 0.2550(5) 0.5319(5) 0.0235(9) Uani 1 1 d . . . . .
H23 H -0.149740 0.196774 0.561693 0.028 Uiso 1 1 calc R . . . .
C24 C -0.0355(5) 0.3446(5) 0.4091(5) 0.0290(10) Uani 1 1 d . . . . .
H24 H -0.081954 0.346379 0.357322 0.035 Uiso 1 1 calc R . . . .
C25 C 0.0744(5) 0.4313(5) 0.3634(5) 0.0299(11) Uani 1 1 d . . . . .
H25 H 0.103456 0.489377 0.280433 0.036 Uiso 1 1 calc R . . . .
C26 C 0.1409(5) 0.4312(5) 0.4421(5) 0.0278(10) Uani 1 1 d . . . . .
H26 H 0.213558 0.490488 0.412529 0.033 Uiso 1 1 calc R . . . .
C27 C -0.0508(4) 0.1458(4) 0.7414(4) 0.0217(9) Uani 1 1 d . . . . .
C28 C 0.1331(5) -0.1868(4) 0.9339(5) 0.0243(9) Uani 1 1 d . . . . .
H28 H 0.171584 -0.121753 0.855082 0.029 Uiso 1 1 calc R . . . .
C29 C -0.0287(6) -0.2358(6) 0.8561(6) 0.0419(14) Uani 1 1 d . . . . .
H29A H -0.114268 -0.211762 0.881097 0.063 Uiso 1 1 calc GR . . . .
H29B H -0.034023 -0.312338 0.843187 0.063 Uiso 1 1 calc GR . . . .
H29C H 0.023518 -0.166918 0.780609 0.063 Uiso 1 1 calc GR . . . .
C30 C -0.0386(7) -0.3593(7) 1.0740(6) 0.0533(19) Uani 1 1 d . . . . .
H30A H -0.016182 -0.442354 1.077849 0.080 Uiso 1 1 calc GR . . . .
H30B H -0.130376 -0.357484 1.089947 0.080 Uiso 1 1 calc GR . . . .
H30C H -0.014387 -0.343789 1.135072 0.080 Uiso 1 1 calc GR . . . .
O11 O 0.1530(6) 0.0684(6) 0.9541(7) 0.085(2) Uani 1 1 d . . . . .
H11A H 0.172345 0.094406 0.876115 0.127 Uiso 1 1 d GR . . . .
H11B H 0.150075 0.137504 0.964658 0.127 Uiso 1 1 d GR . . . .
loop_
_atom_site_aniso_label
_atom_site_aniso_U_11
_atom_site_aniso_U_22
_atom_site_aniso_U_33
_atom_site_aniso_U_23
_atom_site_aniso_U_13
_atom_site_aniso_U_12
Dy1 0.01364(9) 0.01268(9) 0.01597(9) -0.00523(7) -0.00258(7) 0.00093(6)
O1 0.0257(16) 0.0274(16) 0.0246(16) -0.0180(14) -0.0136(13) 0.0123(13)
O2 0.0165(14) 0.0209(15) 0.0234(15) -0.0115(13) -0.0043(12) -0.0008(12)
O3 0.0135(14) 0.0379(19) 0.0318(18) -0.0209(16) -0.0059(13) 0.0034(13)
O4 0.0174(14) 0.0171(13) 0.0156(14) -0.0061(11) -0.0033(11) 0.0005(11)
O5 0.0143(13) 0.0278(16) 0.0177(14) -0.0076(13) -0.0042(11) 0.0001(12)
O6 0.0207(15) 0.0138(13) 0.0315(17) -0.0092(13) -0.0085(13) 0.0021(12)
O7 0.0183(14) 0.0169(14) 0.0273(16) -0.0114(12) -0.0061(13) 0.0041(12)
O8 0.0204(16) 0.0363(19) 0.0227(17) -0.0135(15) 0.0029(13) -0.0072(14)
O9 0.0321(19) 0.036(2) 0.0297(19) -0.0063(16) -0.0121(16) 0.0117(16)
O10 0.0248(17) 0.0286(17) 0.0313(18) -0.0144(15) -0.0079(14) -0.0033(14)
N1 0.0212(18) 0.028(2) 0.0238(19) -0.0126(16) -0.0059(15) -0.0022(15)
C1 0.023(2) 0.0161(18) 0.0150(18) -0.0067(15) -0.0048(16) 0.0041(16)
C2 0.020(2) 0.0180(19) 0.020(2) -0.0070(16) -0.0056(16) -0.0001(16)
C3 0.0145(18) 0.0204(19) 0.0184(19) -0.0070(16) -0.0024(15) 0.0006(15)
C4 0.0154(18) 0.0187(19) 0.0194(19) -0.0085(16) -0.0023(15) 0.0021(15)
C5 0.0160(18) 0.0158(17) 0.0160(18) -0.0048(15) -0.0025(15) -0.0010(15)
C6 0.0165(18) 0.0187(18) 0.0178(19) -0.0068(15) -0.0052(15) 0.0029(15)
C7 0.0164(18) 0.0186(18) 0.020(2) -0.0110(16) -0.0031(15) 0.0018(15)
C8 0.0162(18) 0.0160(17) 0.0154(18) -0.0072(15) -0.0019(15) 0.0005(14)
C9 0.020(2) 0.022(2) 0.025(2) -0.0117(18) -0.0062(17) 0.0059(17)
C10 0.023(2) 0.023(2) 0.032(2) -0.0157(19) -0.0062(19) 0.0081(18)
C11 0.025(2) 0.026(2) 0.029(2) -0.017(2) -0.0015(19) 0.0054(18)
C12 0.024(2) 0.025(2) 0.020(2) -0.0123(18) -0.0018(17) 0.0025(18)
C13 0.0157(18) 0.0137(17) 0.0155(18) -0.0042(14) -0.0022(14) 0.0016(14)
C14 0.0191(19) 0.0176(19) 0.023(2) -0.0101(16) -0.0074(16) 0.0010(15)
C15 0.0183(19) 0.0139(17) 0.025(2) -0.0087(16) -0.0073(16) 0.0028(15)
C16 0.021(2) 0.0189(19) 0.025(2) -0.0112(17) -0.0060(17) 0.0011(16)
C17 0.028(2) 0.021(2) 0.032(2) -0.0159(19) -0.011(2) 0.0067(18)
C18 0.033(3) 0.017(2) 0.036(3) -0.0140(19) -0.014(2) 0.0083(18)
C19 0.030(2) 0.0151(19) 0.026(2) -0.0046(17) -0.0106(19) 0.0010(17)
C20 0.022(2) 0.0120(17) 0.0164(18) -0.0053(14) -0.0025(16) 0.0032(15)
C21 0.0149(18) 0.023(2) 0.025(2) -0.0115(17) -0.0063(16) 0.0042(16)
C22 0.0157(18) 0.0191(19) 0.0193(19) -0.0075(16) -0.0032(15) 0.0018(15)
C23 0.0175(19) 0.029(2) 0.028(2) -0.0161(19) -0.0064(17) 0.0025(17)
C24 0.027(2) 0.035(3) 0.027(2) -0.013(2) -0.012(2) 0.011(2)
C25 0.031(3) 0.029(2) 0.020(2) -0.0031(19) -0.0067(19) 0.011(2)
C26 0.022(2) 0.020(2) 0.033(3) -0.0064(19) -0.0044(19) 0.0001(17)
C27 0.024(2) 0.020(2) 0.0172(19) -0.0086(16) -0.0006(16) -0.0014(17)
C28 0.024(2) 0.021(2) 0.025(2) -0.0088(18) -0.0064(18) 0.0020(17)
C29 0.038(3) 0.045(3) 0.040(3) -0.013(3) -0.016(3) -0.004(3)
C30 0.055(4) 0.056(4) 0.034(3) -0.008(3) -0.007(3) -0.031(3)
O11 0.096(4) 0.091(4) 0.174(7) -0.111(5) -0.115(5) 0.079(4)
loop_
_atom_type_symbol
_atom_type_description
_atom_type_scat_dispersion_real
_atom_type_scat_dispersion_imag
_atom_type_scat_source
C C 0.0033 0.0016 'International Tables Vol C Tables 4.2.6.8 and 6.1.1.4'
H H 0.0000 0.0000 'International Tables Vol C Tables 4.2.6.8 and 6.1.1.4'
Dy Dy -0.1892 4.4098 'International Tables Vol C Tables 4.2.6.8 and 6.1.1.4'
N N 0.0061 0.0033 'International Tables Vol C Tables 4.2.6.8 and 6.1.1.4'
O O 0.0106 0.0060 'International Tables Vol C Tables 4.2.6.8 and 6.1.1.4'
loop_
_geom_angle_atom_site_label_1
_geom_angle_atom_site_label_2
_geom_angle_atom_site_label_3
_geom_angle
_geom_angle_site_symmetry_1
_geom_angle_site_symmetry_3
_geom_angle_publ_flag
O4 Dy1 Dy1 35.73(7) . 2_657 ?
O4 Dy1 Dy1 38.07(7) 2_657 2_657 ?
O4 Dy1 O4 73.80(11) 2_657 . ?
O4 Dy1 O5 126.10(10) 2_657 . ?
O4 Dy1 O10 140.42(12) 2_657 . ?
O4 Dy1 C13 99.98(12) 2_657 . ?
O4 Dy1 C13 26.79(11) . . ?
O4 Dy1 O11 135.55(13) 2_657 . ?
O5 Dy1 Dy1 88.26(7) . 2_657 ?
O5 Dy1 O4 52.76(10) . . ?
O5 Dy1 C13 26.16(11) . . ?
O6 Dy1 Dy1 69.49(8) . 2_657 ?
O6 Dy1 O4 72.32(11) . 2_657 ?
O6 Dy1 O4 75.05(11) . . ?
O6 Dy1 O5 97.48(12) . . ?
O6 Dy1 O10 143.69(12) . . ?
O6 Dy1 C13 88.14(12) . . ?
O6 Dy1 O11 69.56(15) . . ?
O7 Dy1 Dy1 69.39(8) 2_657 2_657 ?
O7 Dy1 O4 73.62(11) 2_657 2_657 ?
O7 Dy1 O4 73.67(10) 2_657 . ?
O7 Dy1 O5 84.34(11) 2_657 . ?
O7 Dy1 O6 138.75(11) 2_657 . ?
O7 Dy1 O10 76.83(12) 2_657 . ?
O7 Dy1 C13 75.55(12) 2_657 . ?
O7 Dy1 O11 150.01(14) 2_657 . ?
O8 Dy1 Dy1 119.12(9) 2_557 2_657 ?
O8 Dy1 O4 81.06(12) 2_557 2_657 ?
O8 Dy1 O4 154.83(12) 2_557 . ?
O8 Dy1 O5 151.80(12) 2_557 . ?
O8 Dy1 O6 98.49(13) 2_557 . ?
O8 Dy1 O7 98.50(13) 2_557 2_657 ?
O8 Dy1 O10 77.88(13) 2_557 . ?
O8 Dy1 C13 173.27(13) 2_557 . ?
O8 Dy1 O11 82.8(2) 2_557 . ?
O10 Dy1 Dy1 143.76(9) . 2_657 ?
O10 Dy1 O4 121.75(11) . . ?
O10 Dy1 O5 75.49(11) . . ?
O10 Dy1 C13 97.48(12) . . ?
C13 Dy1 Dy1 62.11(9) . 2_657 ?
O11 Dy1 Dy1 135.81(16) . 2_657 ?
O11 Dy1 O4 116.2(2) . . ?
O11 Dy1 O5 81.26(19) . . ?
O11 Dy1 O10 74.15(16) . . ?
O11 Dy1 C13 100.8(2) . . ?
C7 O1 C1 121.5(3) . . ?
C5 O2 C14 116.0(3) . . ?
C3 O3 C21 118.3(4) . . ?
Dy1 O4 Dy1 106.20(11) 2_657 . ?
C13 O4 Dy1 91.9(2) . . ?
C13 O4 Dy1 158.1(3) . 2_657 ?
C13 O5 Dy1 94.9(3) . . ?
C20 O6 Dy1 135.5(3) . . ?
C20 O7 Dy1 138.0(3) . 2_657 ?
C27 O8 Dy1 140.6(3) . 2_557 ?
C28 O10 Dy1 128.5(3) . . ?
C28 N1 C29 122.0(4) . . ?
C28 N1 C30 120.6(4) . . ?
C30 N1 C29 117.0(4) . . ?
O1 C1 C2 113.6(4) . . ?
C6 C1 O1 123.5(4) . . ?
C6 C1 C2 122.9(4) . . ?
C1 C2 H2 121.2 . . ?
C3 C2 C1 117.5(4) . . ?
C3 C2 H2 121.2 . . ?
O3 C3 C2 121.6(4) . . ?
O3 C3 C4 116.2(4) . . ?
C2 C3 C4 122.2(4) . . ?
C3 C4 H4 120.9 . . ?
C5 C4 C3 118.3(4) . . ?
C5 C4 H4 120.9 . . ?
O2 C5 C4 121.9(4) . . ?
O2 C5 C6 116.4(4) . . ?
C4 C5 C6 121.6(4) . . ?
C1 C6 C5 117.5(4) . . ?
C1 C6 H6 121.2 . . ?
C5 C6 H6 121.2 . . ?
O1 C7 C8 124.2(4) . . ?
O1 C7 C12 115.4(4) . . ?
C12 C7 C8 120.4(4) . . ?
C7 C8 C13 123.2(4) . . ?
C9 C8 C7 119.1(4) . . ?
C9 C8 C13 117.6(4) . . ?
C8 C9 H9 119.6 . . ?
C8 C9 C10 120.9(4) . . ?
C10 C9 H9 119.6 . . ?
C9 C10 H10 120.3 . . ?
C11 C10 C9 119.4(4) . . ?
C11 C10 H10 120.3 . . ?
C10 C11 H11 119.9 . . ?
C12 C11 C10 120.2(4) . . ?
C12 C11 H11 119.9 . . ?
C7 C12 C11 120.1(5) . . ?
C7 C12 H12 120.0 . . ?
C11 C12 H12 120.0 . . ?
O4 C13 Dy1 61.3(2) . . ?
O4 C13 C8 119.3(4) . . ?
O5 C13 Dy1 58.9(2) . . ?
O5 C13 O4 119.6(4) . . ?
O5 C13 C8 120.9(4) . . ?
C8 C13 Dy1 167.9(3) . . ?
C15 C14 O2 119.1(4) . . ?
C19 C14 O2 119.6(4) . . ?
C19 C14 C15 121.3(4) . . ?
C14 C15 C20 120.4(4) . . ?
C16 C15 C14 119.0(4) . . ?
C16 C15 C20 120.6(4) . . ?
C15 C16 H16 119.7 . . ?
C15 C16 C17 120.6(4) . . ?
C17 C16 H16 119.7 . . ?
C16 C17 H17 120.5 . . ?
C18 C17 C16 119.1(4) . . ?
C18 C17 H17 120.5 . . ?
C17 C18 H18 119.4 . . ?
C19 C18 C17 121.3(4) . . ?
C19 C18 H18 119.4 . . ?
C14 C19 H19 120.6 . . ?
C18 C19 C14 118.7(4) . . ?
C18 C19 H19 120.6 . . ?
O6 C20 C15 115.9(4) . . ?
O7 C20 O6 127.1(4) . . ?
O7 C20 C15 117.0(4) . . ?
C22 C21 O3 118.8(4) . . ?
C26 C21 O3 119.0(4) . . ?
C26 C21 C22 121.7(4) . . ?
C21 C22 C23 117.9(4) . . ?
C21 C22 C27 123.4(4) . . ?
C23 C22 C27 118.7(4) . . ?
C22 C23 H23 119.6 . . ?
C24 C23 C22 120.9(4) . . ?
C24 C23 H23 119.6 . . ?
C23 C24 H24 120.0 . . ?
C25 C24 C23 120.1(5) . . ?
C25 C24 H24 120.0 . . ?
C24 C25 H25 120.1 . . ?
C24 C25 C26 119.8(5) . . ?
C26 C25 H25 120.1 . . ?
C21 C26 C25 119.6(4) . . ?
C21 C26 H26 120.2 . . ?
C25 C26 H26 120.2 . . ?
O8 C27 C22 116.4(4) . . ?
O9 C27 O8 124.6(4) . . ?
O9 C27 C22 118.9(4) . . ?
O10 C28 N1 124.4(5) . . ?
O10 C28 H28 117.8 . . ?
N1 C28 H28 117.8 . . ?
N1 C29 H29A 109.5 . . ?
N1 C29 H29B 109.5 . . ?
N1 C29 H29C 109.5 . . ?
H29A C29 H29B 109.5 . . ?
H29A C29 H29C 109.5 . . ?
H29B C29 H29C 109.5 . . ?
N1 C30 H30A 109.5 . . ?
N1 C30 H30B 109.5 . . ?
N1 C30 H30C 109.5 . . ?
H30A C30 H30B 109.5 . . ?
H30A C30 H30C 109.5 . . ?
H30B C30 H30C 109.5 . . ?
Dy1 O11 H11A 109.0 . . ?
Dy1 O11 H11B 109.7 . . ?
H11A O11 H11B 104.3 . . ?
loop_
_geom_bond_atom_site_label_1
_geom_bond_atom_site_label_2
_geom_bond_distance
_geom_bond_site_symmetry_2
_geom_bond_publ_flag
Dy1 Dy1 3.8821(11) 2_657 ?
Dy1 O4 2.493(3) . ?
Dy1 O4 2.361(3) 2_657 ?
Dy1 O5 2.440(3) . ?
Dy1 O6 2.354(3) . ?
Dy1 O7 2.315(3) 2_657 ?
Dy1 O8 2.243(3) 2_557 ?
Dy1 O10 2.380(3) . ?
Dy1 C13 2.839(4) . ?
Dy1 O11 2.377(4) . ?
O1 C1 1.384(5) . ?
O1 C7 1.381(5) . ?
O2 C5 1.386(5) . ?
O2 C14 1.400(5) . ?
O3 C3 1.381(5) . ?
O3 C21 1.394(6) . ?
O4 C13 1.280(5) . ?
O5 C13 1.256(5) . ?
O6 C20 1.260(5) . ?
O7 C20 1.249(5) . ?
O8 C27 1.260(5) . ?
O9 C27 1.250(6) . ?
O10 C28 1.241(6) . ?
N1 C28 1.327(6) . ?
N1 C29 1.453(7) . ?
N1 C30 1.447(7) . ?
C1 C2 1.386(6) . ?
C1 C6 1.383(6) . ?
C2 H2 0.9300 . ?
C2 C3 1.383(6) . ?
C3 C4 1.388(6) . ?
C4 H4 0.9300 . ?
C4 C5 1.388(6) . ?
C5 C6 1.395(6) . ?
C6 H6 0.9300 . ?
C7 C8 1.400(6) . ?
C7 C12 1.386(6) . ?
C8 C9 1.388(6) . ?
C8 C13 1.494(6) . ?
C9 H9 0.9300 . ?
C9 C10 1.393(6) . ?
C10 H10 0.9300 . ?
C10 C11 1.393(7) . ?
C11 H11 0.9300 . ?
C11 C12 1.389(7) . ?
C12 H12 0.9300 . ?
C14 C15 1.394(6) . ?
C14 C19 1.393(6) . ?
C15 C16 1.384(6) . ?
C15 C20 1.515(6) . ?
C16 H16 0.9300 . ?
C16 C17 1.398(6) . ?
C17 H17 0.9300 . ?
C17 C18 1.393(7) . ?
C18 H18 0.9300 . ?
C18 C19 1.378(7) . ?
C19 H19 0.9300 . ?
C21 C22 1.388(6) . ?
C21 C26 1.386(7) . ?
C22 C23 1.399(6) . ?
C22 C27 1.507(6) . ?
C23 H23 0.9300 . ?
C23 C24 1.388(7) . ?
C24 H24 0.9300 . ?
C24 C25 1.386(8) . ?
C25 H25 0.9300 . ?
C25 C26 1.389(8) . ?
C26 H26 0.9300 . ?
C28 H28 0.9300 . ?
C29 H29A 0.9600 . ?
C29 H29B 0.9600 . ?
C29 H29C 0.9600 . ?
C30 H30A 0.9600 . ?
C30 H30B 0.9600 . ?
C30 H30C 0.9600 . ?
O11 H11A 0.8514 . ?
O11 H11B 0.8519 . ?
loop_
_geom_torsion_atom_site_label_1
_geom_torsion_atom_site_label_2
_geom_torsion_atom_site_label_3
_geom_torsion_atom_site_label_4
_geom_torsion
_geom_torsion_site_symmetry_1
_geom_torsion_site_symmetry_2
_geom_torsion_site_symmetry_3
_geom_torsion_site_symmetry_4
_geom_torsion_publ_flag
Dy1 O4 C13 Dy1 146.0(7) 2_657 . . . ?
Dy1 O4 C13 O5 155.2(5) 2_657 . . . ?
Dy1 O4 C13 O5 9.2(4) . . . . ?
Dy1 O4 C13 C8 -20.3(9) 2_657 . . . ?
Dy1 O4 C13 C8 -166.2(3) . . . . ?
Dy1 O5 C13 O4 -9.5(4) . . . . ?
Dy1 O5 C13 C8 165.9(3) . . . . ?
Dy1 O6 C20 O7 -9.4(7) . . . . ?
Dy1 O6 C20 C15 170.9(3) . . . . ?
Dy1 O7 C20 O6 1.9(8) 2_657 . . . ?
Dy1 O7 C20 C15 -178.4(3) 2_657 . . . ?
Dy1 O8 C27 O9 37.5(8) 2_557 . . . ?
Dy1 O8 C27 C22 -146.2(4) 2_557 . . . ?
Dy1 O10 C28 N1 -160.1(4) . . . . ?
O1 C1 C2 C3 -178.9(4) . . . . ?
O1 C1 C6 C5 179.2(4) . . . . ?
O1 C7 C8 C9 177.0(4) . . . . ?
O1 C7 C8 C13 1.0(6) . . . . ?
O1 C7 C12 C11 -176.0(4) . . . . ?
O2 C5 C6 C1 -179.6(4) . . . . ?
O2 C14 C15 C16 -177.8(4) . . . . ?
O2 C14 C15 C20 4.2(6) . . . . ?
O2 C14 C19 C18 178.8(4) . . . . ?
O3 C3 C4 C5 176.5(4) . . . . ?
O3 C21 C22 C23 169.2(4) . . . . ?
O3 C21 C22 C27 -13.2(6) . . . . ?
O3 C21 C26 C25 -171.0(4) . . . . ?
C1 O1 C7 C8 43.7(6) . . . . ?
C1 O1 C7 C12 -139.8(4) . . . . ?
C1 C2 C3 O3 -176.2(4) . . . . ?
C1 C2 C3 C4 0.2(6) . . . . ?
C2 C1 C6 C5 1.3(6) . . . . ?
C2 C3 C4 C5 -0.1(6) . . . . ?
C3 O3 C21 C22 121.0(5) . . . . ?
C3 O3 C21 C26 -66.7(6) . . . . ?
C3 C4 C5 O2 179.0(4) . . . . ?
C3 C4 C5 C6 0.6(6) . . . . ?
C4 C5 C6 C1 -1.1(6) . . . . ?
C5 O2 C14 C15 74.3(5) . . . . ?
C5 O2 C14 C19 -106.0(5) . . . . ?
C6 C1 C2 C3 -0.8(6) . . . . ?
C7 O1 C1 C2 -151.8(4) . . . . ?
C7 O1 C1 C6 30.0(6) . . . . ?
C7 C8 C9 C10 -1.9(7) . . . . ?
C7 C8 C13 Dy1 136.6(13) . . . . ?
C7 C8 C13 O4 -133.6(4) . . . . ?
C7 C8 C13 O5 51.0(6) . . . . ?
C8 C7 C12 C11 0.6(7) . . . . ?
C8 C9 C10 C11 1.6(7) . . . . ?
C9 C8 C13 Dy1 -39.5(16) . . . . ?
C9 C8 C13 O4 50.3(5) . . . . ?
C9 C8 C13 O5 -125.1(5) . . . . ?
C9 C10 C11 C12 -0.2(7) . . . . ?
C10 C11 C12 C7 -0.9(7) . . . . ?
C12 C7 C8 C9 0.7(6) . . . . ?
C12 C7 C8 C13 -175.3(4) . . . . ?
C13 C8 C9 C10 174.4(4) . . . . ?
C14 O2 C5 C4 26.1(6) . . . . ?
C14 O2 C5 C6 -155.4(4) . . . . ?
C14 C15 C16 C17 -1.9(7) . . . . ?
C14 C15 C20 O6 -111.3(5) . . . . ?
C14 C15 C20 O7 69.0(6) . . . . ?
C15 C14 C19 C18 -1.4(7) . . . . ?
C15 C16 C17 C18 0.2(7) . . . . ?
C16 C15 C20 O6 70.7(6) . . . . ?
C16 C15 C20 O7 -108.9(5) . . . . ?
C16 C17 C18 C19 0.9(8) . . . . ?
C17 C18 C19 C14 -0.3(7) . . . . ?
C19 C14 C15 C16 2.5(7) . . . . ?
C19 C14 C15 C20 -175.5(4) . . . . ?
C20 C15 C16 C17 176.1(4) . . . . ?
C21 O3 C3 C2 -31.1(6) . . . . ?
C21 O3 C3 C4 152.3(4) . . . . ?
C21 C22 C23 C24 2.1(7) . . . . ?
C21 C22 C27 O8 145.0(5) . . . . ?
C21 C22 C27 O9 -38.5(7) . . . . ?
C22 C21 C26 C25 1.1(7) . . . . ?
C22 C23 C24 C25 0.4(7) . . . . ?
C23 C22 C27 O8 -37.5(6) . . . . ?
C23 C22 C27 O9 139.0(5) . . . . ?
C23 C24 C25 C26 -2.2(8) . . . . ?
C24 C25 C26 C21 1.5(8) . . . . ?
C26 C21 C22 C23 -2.9(7) . . . . ?
C26 C21 C22 C27 174.7(4) . . . . ?
C27 C22 C23 C24 -175.6(4) . . . . ?
C29 N1 C28 O10 175.5(5) . . . . ?
C30 N1 C28 O10 3.0(8) . . . . ?
