#------------------------------------------------------------------------------
#$Date: 2020-02-14 00:18:46 +0200 (Fri, 14 Feb 2020) $
#$Revision: 248124 $
#$URL: file:///home/coder/svn-repositories/cod/cif/4/51/74/4517409.cif $
#------------------------------------------------------------------------------
#
# This file is available in the Crystallography Open Database (COD),
# http://www.crystallography.net/
#
# All data on this site have been placed in the public domain by the
# contributors.
#
data_4517409
loop_
_publ_author_name
'Chen, Wei'
'Liu, Haiyu'
'Fan, Ruiqing'
'Wang, Ping'
'Sun, Tiancheng'
'Yang, Yulin'
_publ_section_title
;
 Formation and Encapsulation of Lead Halide Perovskites in Lanthanide
 Metal-Organic Frameworks for Tunable Emission.
;
_journal_name_full               'ACS applied materials &amp; interfaces'
_journal_paper_doi               10.1021/acsami.9b23617
_journal_year                    2020
_chemical_formula_moiety         'C30 H24 N O11 Sm'
_chemical_formula_sum            'C30 H24 N O11 Sm'
_chemical_formula_weight         724.85
_space_group_crystal_system      triclinic
_space_group_IT_number           2
_space_group_name_Hall           '-P 1'
_space_group_name_H-M_alt        'P -1'
_atom_sites_solution_hydrogens   mixed
_atom_sites_solution_primary     direct
_audit_creation_date             2019-05-29
_audit_creation_method
;
Olex2 1.2
(compiled 2018.05.29 svn.r3508 for OlexSys, GUI svn.r5506)
;
_cell_angle_alpha                66.001(2)
_cell_angle_beta                 72.607(2)
_cell_angle_gamma                88.790(2)
_cell_formula_units_Z            2
_cell_length_a                   10.9384(8)
_cell_length_b                   11.4632(8)
_cell_length_c                   12.4861(9)
_cell_measurement_reflns_used    9053
_cell_measurement_temperature    293(2)
_cell_measurement_theta_max      30.57
_cell_measurement_theta_min      2.58
_cell_volume                     1355.79(17)
_computing_cell_refinement       'SAINT V8.38A (?, 2016)'
_computing_data_reduction        'SAINT V8.38A (?, 2016)'
_computing_molecular_graphics    'Olex2 (Dolomanov et al., 2009)'
_computing_publication_material  'Olex2 (Dolomanov et al., 2009)'
_computing_structure_refinement  'XL (Sheldrick, 2008)'
_computing_structure_solution    'XS (Sheldrick, 2008)'
_diffrn_ambient_temperature      293.0
_diffrn_measured_fraction_theta_full 0.973
_diffrn_measured_fraction_theta_max 0.982
_diffrn_measurement_device_type  'CCD area detector'
_diffrn_measurement_method       'phi and omega scans'
_diffrn_radiation_monochromator  graphite
_diffrn_radiation_type           MoK\a
_diffrn_radiation_wavelength     0.71073
_diffrn_reflns_av_R_equivalents  0.0535
_diffrn_reflns_av_unetI/netI     0.0578
_diffrn_reflns_Laue_measured_fraction_full 0.973
_diffrn_reflns_Laue_measured_fraction_max 0.982
_diffrn_reflns_limit_h_max       15
_diffrn_reflns_limit_h_min       -15
_diffrn_reflns_limit_k_max       16
_diffrn_reflns_limit_k_min       -16
_diffrn_reflns_limit_l_max       17
_diffrn_reflns_limit_l_min       -17
_diffrn_reflns_number            22302
_diffrn_reflns_point_group_measured_fraction_full 0.973
_diffrn_reflns_point_group_measured_fraction_max 0.982
_diffrn_reflns_theta_full        25.242
_diffrn_reflns_theta_max         30.574
_diffrn_reflns_theta_min         2.584
_exptl_absorpt_coefficient_mu    2.233
_exptl_absorpt_correction_T_max  0.7461
_exptl_absorpt_correction_T_min  0.3991
_exptl_absorpt_correction_type   multi-scan
_exptl_absorpt_process_details
;
SADABS-2016/2 (Bruker,2016/2) was used for absorption correction.
wR2(int) was 0.1430 before and 0.0744 after correction.
The Ratio of minimum to maximum transmission is 0.5349.
The \l/2 correction factor is Not present.
;
_exptl_crystal_colour            yellow
_exptl_crystal_colour_primary    yellow
_exptl_crystal_density_diffrn    1.776
_exptl_crystal_description       block
_exptl_crystal_F_000             722
_exptl_crystal_size_max          0.3
_exptl_crystal_size_mid          0.26
_exptl_crystal_size_min          0.24
_refine_diff_density_max         3.399
_refine_diff_density_min         -3.868
_refine_diff_density_rms         0.213
_refine_ls_extinction_method     none
_refine_ls_goodness_of_fit_ref   1.122
_refine_ls_hydrogen_treatment    constr
_refine_ls_matrix_type           full
_refine_ls_number_parameters     401
_refine_ls_number_reflns         8170
_refine_ls_number_restraints     0
_refine_ls_restrained_S_all      1.122
_refine_ls_R_factor_all          0.0390
_refine_ls_R_factor_gt           0.0364
_refine_ls_shift/su_max          0.003
_refine_ls_shift/su_mean         0.000
_refine_ls_structure_factor_coef Fsqd
_refine_ls_weighting_details
'w=1/[\s^2^(Fo^2^)+(0.0567P)^2^+0.3293P] where P=(Fo^2^+2Fc^2^)/3'
_refine_ls_weighting_scheme      calc
_refine_ls_wR_factor_gt          0.0934
_refine_ls_wR_factor_ref         0.1001
_reflns_Friedel_coverage         0.000
_reflns_number_gt                7696
_reflns_number_total             8170
_reflns_threshold_expression     'I > 2\s(I)'
_cod_data_source_file            am9b23617_si_002.cif
_cod_data_source_block           Smtpob
_cod_database_code               4517409
_shelx_shelxl_version_number     2018/3
_shelx_space_group_comment
;
The symmetry employed for this shelxl refinement is uniquely defined
by the following loop, which should always be used as a source of
symmetry information in preference to the above space-group names.
They are only intended as comments.
;
_shelx_estimated_absorpt_t_max   0.616
_shelx_estimated_absorpt_t_min   0.554
_olex2_refinement_description
;
1. Fixed Uiso
 At 1.2 times of:
  All C(H) groups
 At 1.5 times of:
  All C(H,H,H) groups, All O(H,H) groups
2. Others
 Fixed Sof: O11A(0.5) H11A(0.5) H11B(0.5) O11B(0.5) H11C(0.5) H11D(0.5)
3.a Rotating group:
 O11A(H11A,H11B), O11B(H11C,H11D)
3.b Aromatic/amide H refined with riding coordinates:
 C2(H2), C4(H4), C6(H6), C9(H9), C10(H10), C11(H11), C12(H12), C16(H16),
 C17(H17), C18(H18), C19(H19), C23(H23), C24(H24), C25(H25), C26(H26), C28(H28)
3.c Idealised Me refined as rotating group:
 C29(H29A,H29B,H29C), C30(H30A,H30B,H30C)
;
_shelx_res_file
;
TITL 1 in P1 #1 New: P-1
    1.res
    created by SHELXL-2018/3 at 14:16:38 on 29-May-2019
CELL 0.71073 10.9384 11.4632 12.4861 66.001 72.607 88.79
ZERR 2 0.0008 0.0008 0.0009 0.002 0.002 0.002
LATT 1
SFAC C H N O Sm
UNIT 60 48 2 22 2

L.S. 5
PLAN  -20
SIZE 0.24 0.26 0.3
CONF
bond $H
htab
fmap 2
acta
REM <olex2.extras>
REM <HklSrc "%.\\1.hkl">
REM </olex2.extras>

WGHT    0.056700    0.329300
FVAR       0.25669
SM1   5    0.319016    0.453163    0.520490    11.00000    0.00810    0.01471 =
         0.01091   -0.00532   -0.00426    0.00023
O1    4    0.516906    0.649899    0.022115    11.00000    0.02364    0.02928 =
         0.01880   -0.01605   -0.01401    0.01046
O2    4    0.551344    0.940924    0.202151    11.00000    0.01417    0.02262 =
         0.02041   -0.01188   -0.00698   -0.00140
O3    4    0.156635    0.856655    0.144168    11.00000    0.01034    0.03909 =
         0.02642   -0.01983   -0.00771    0.00229
O4    4    0.544961    0.531800    0.364915    11.00000    0.01380    0.02152 =
         0.01122   -0.00776   -0.00477   -0.00051
O5    4    0.396195    0.480665    0.301116    11.00000    0.01264    0.03375 =
         0.01576   -0.01069   -0.00540   -0.00242
O6    4    0.354229    0.674746    0.481285    11.00000    0.01636    0.01731 =
         0.02760   -0.00961   -0.01109    0.00074
O7    4    0.563461    0.726509    0.445979    11.00000    0.01531    0.01679 =
         0.02540   -0.00884   -0.00997    0.00376
O8    4   -0.165226    0.615476    0.289297    11.00000    0.01868    0.04163 =
         0.01947   -0.01414    0.00270   -0.00889
O9    4    0.038344    0.593389    0.281589    11.00000    0.02690    0.04238 =
         0.02147   -0.00489   -0.00954    0.00978
O10   4    0.177172    0.298574    0.513365    11.00000    0.02367    0.03425 =
         0.02952   -0.01681   -0.01144   -0.00521
PART 1
O11A  4    0.130743    0.549361    0.478285    10.50000    0.01641    0.02334 =
         0.02405   -0.00929   -0.01080    0.00490
AFIX   7
H11A  2    0.134251    0.565506    0.403187    10.50000   -1.50000
H11B  2    0.130775    0.624512    0.479201    10.50000   -1.50000
AFIX   0
PART 0
PART 2
O11B  4    0.181222    0.599674    0.411879    10.50000    0.02008    0.02511 =
         0.03135   -0.00983   -0.01720    0.00297
AFIX   7
H11C  2    0.217402    0.682114    0.373200    10.50000   -1.50000
H11D  2    0.106552    0.603964    0.465229    10.50000   -1.50000
AFIX   0
PART 0
N1    3    0.025170    0.238310    0.451108    11.00000    0.01868    0.02996 =
         0.02241   -0.01327   -0.00849   -0.00137
C1    1    0.467098    0.732581    0.074836    11.00000    0.01720    0.01892 =
         0.01197   -0.00649   -0.00627    0.00226
C2    1    0.538650    0.795498    0.115013    11.00000    0.01258    0.02253 =
         0.01333   -0.00735   -0.00666    0.00316
AFIX  43
H2    2    0.624165    0.782461    0.109203    11.00000   -1.20000
AFIX   0
C3    1    0.477341    0.878827    0.164315    11.00000    0.01308    0.01764 =
         0.01379   -0.00493   -0.00665   -0.00090
C4    1    0.350435    0.901083    0.171453    11.00000    0.01237    0.02041 =
         0.01714   -0.00872   -0.00642    0.00189
AFIX  43
H4    2    0.310850    0.957175    0.204238    11.00000   -1.20000
AFIX   0
C5    1    0.284339    0.837069    0.128163    11.00000    0.01002    0.02475 =
         0.01415   -0.00757   -0.00414    0.00059
C6    1    0.340596    0.752396    0.080097    11.00000    0.01543    0.02259 =
         0.01647   -0.01008   -0.00715    0.00018
AFIX  43
H6    2    0.294750    0.709916    0.052071    11.00000   -1.20000
AFIX   0
C7    1    0.613116    0.577637    0.052938    11.00000    0.01664    0.02080 =
         0.01331   -0.00992   -0.00637    0.00212
C8    1    0.615697    0.511425    0.174119    11.00000    0.01309    0.01921 =
         0.01275   -0.00825   -0.00363    0.00055
C9    1    0.715436    0.436425    0.194008    11.00000    0.01841    0.02431 =
         0.01939   -0.01029   -0.00745    0.00458
AFIX  43
H9    2    0.719088    0.393429    0.274010    11.00000   -1.20000
AFIX   0
C10   1    0.809360    0.424415    0.097281    11.00000    0.01936    0.02898 =
         0.02757   -0.01659   -0.00849    0.00983
AFIX  43
H10   2    0.874692    0.373086    0.112357    11.00000   -1.20000
AFIX   0
C11   1    0.804867    0.490029   -0.022736    11.00000    0.01959    0.03020 =
         0.02253   -0.01664   -0.00144    0.00401
AFIX  43
H11   2    0.866845    0.481763   -0.088150    11.00000   -1.20000
AFIX   0
C12   1    0.707979    0.567799   -0.044909    11.00000    0.02305    0.02762 =
         0.01458   -0.01188   -0.00423    0.00363
AFIX  43
H12   2    0.706588    0.613378   -0.125398    11.00000   -1.20000
AFIX   0
C13   1    0.511984    0.509599    0.284798    11.00000    0.01259    0.01709 =
         0.01189   -0.00656   -0.00478    0.00085
C14   1    0.482750    0.982989    0.291471    11.00000    0.01518    0.02043 =
         0.01992   -0.01029   -0.01053    0.00341
C15   1    0.429003    0.891905    0.413497    11.00000    0.01380    0.01572 =
         0.01950   -0.00758   -0.00931    0.00224
C16   1    0.357805    0.933097    0.501440    11.00000    0.01786    0.02236 =
         0.02068   -0.01115   -0.00827    0.00188
AFIX  43
H16   2    0.319452    0.873356    0.582570    11.00000   -1.20000
AFIX   0
C17   1    0.343188    1.062402    0.469707    11.00000    0.02180    0.02639 =
         0.03079   -0.01899   -0.01447    0.00743
AFIX  43
H17   2    0.295407    1.089198    0.529136    11.00000   -1.20000
AFIX   0
C18   1    0.400789    1.151650    0.347965    11.00000    0.03146    0.01892 =
         0.03318   -0.01257   -0.01886    0.00685
AFIX  43
H18   2    0.392737    1.238543    0.326463    11.00000   -1.20000
AFIX   0
C19   1    0.470125    1.111468    0.258644    11.00000    0.02757    0.01894 =
         0.02198   -0.00604   -0.01236    0.00002
AFIX  43
H19   2    0.507712    1.170983    0.177281    11.00000   -1.20000
AFIX   0
C20   1    0.451659    0.753498    0.449194    11.00000    0.01668    0.01593 =
         0.01431   -0.00645   -0.00564    0.00096
C21   1    0.100890    0.844365    0.062127    11.00000    0.01122    0.02455 =
         0.01888   -0.00997   -0.00579    0.00195
C22   1   -0.004840    0.752384    0.107807    11.00000    0.01048    0.02278 =
         0.01546   -0.00743   -0.00496    0.00183
C23   1   -0.073046    0.756799    0.028441    11.00000    0.01512    0.03033 =
         0.02366   -0.01359   -0.01016    0.00249
AFIX  43
H23   2   -0.146043    0.698626    0.057907    11.00000   -1.20000
AFIX   0
C24   1   -0.033696    0.846756   -0.094029    11.00000    0.02796    0.03935 =
         0.02324   -0.01430   -0.01652    0.00877
AFIX  43
H24   2   -0.080073    0.848539   -0.146024    11.00000   -1.20000
AFIX   0
C25   1    0.075244    0.934121   -0.138629    11.00000    0.03128    0.03291 =
         0.01608   -0.00459   -0.00641    0.00616
AFIX  43
H25   2    0.103301    0.992700   -0.221229    11.00000   -1.20000
AFIX   0
C26   1    0.142009    0.934078   -0.060342    11.00000    0.01743    0.02716 =
         0.02368   -0.00584   -0.00295   -0.00240
AFIX  43
H26   2    0.213807    0.993638   -0.089523    11.00000   -1.20000
AFIX   0
C27   1   -0.045289    0.647350    0.236683    11.00000    0.02007    0.02444 =
         0.01439   -0.00878   -0.00302   -0.00101
C28   1    0.128111    0.311892    0.432261    11.00000    0.01483    0.02464 =
         0.02631   -0.01429   -0.00651    0.00212
AFIX  43
H28   2    0.165596    0.377165    0.353755    11.00000   -1.20000
AFIX   0
C29   1   -0.043094    0.140260    0.572647    11.00000    0.05946    0.07065 =
         0.02389   -0.00466   -0.01009   -0.03985
AFIX 137
H29A  2   -0.006052    0.061129    0.583886    11.00000   -1.50000
H29B  2   -0.132310    0.127757    0.580210    11.00000   -1.50000
H29C  2   -0.036203    0.166850    0.634470    11.00000   -1.50000
AFIX   0
C30   1   -0.034264    0.265180    0.355655    11.00000    0.03301    0.04964 =
         0.03394   -0.01242   -0.01972   -0.00658
AFIX 137
H30A  2   -0.117037    0.293662    0.379793    11.00000   -1.50000
H30B  2   -0.044874    0.188544    0.344239    11.00000   -1.50000
H30C  2    0.019691    0.331161    0.279609    11.00000   -1.50000
AFIX   0
HKLF 4




REM  1 in P1 #1 New: P-1
REM wR2 = 0.1001, GooF = S = 1.122, Restrained GooF = 1.122 for all data
REM R1 = 0.0364 for 7696 Fo > 4sig(Fo) and 0.0390 for all 8170 data
REM 401 parameters refined using 0 restraints

END

WGHT      0.0567      0.3293

REM Instructions for potential hydrogen bonds
HTAB O11A O9
EQIV $1 -x, -y+1, -z+1
HTAB O11A N1_$1
HTAB O11B N1_$1
EQIV $3 -x+1, -y+2, -z
HTAB C19 O1_$3
HTAB C26 O2_$3
HTAB C28 O5
HTAB C29 O3_$1

REM Highest difference peak  3.399,  deepest hole -3.868,  1-sigma level  0.213
Q1    1   0.3757  0.4006  0.5140  11.00000  0.05    3.40
Q2    1   0.2615  0.4995  0.5278  11.00000  0.05    3.33
Q3    1   0.3964  0.3292  0.5608  11.00000  0.05    1.24
Q4    1   0.3843  0.3943  0.5917  11.00000  0.05    1.14
Q5    1   0.2627  0.5094  0.4463  11.00000  0.05    0.95
Q6    1   0.2495  0.5765  0.4776  11.00000  0.05    0.90
Q7    1   0.3403  0.5653  0.5313  11.00000  0.05    0.87
Q8    1   0.3213  0.3966  0.6211  11.00000  0.05    0.86
Q9    1   0.5949  0.4775  0.4634  11.00000  0.05    0.84
Q10   1   0.2999  0.3350  0.5132  11.00000  0.05    0.83
Q11   1   0.2365  0.3907  0.4961  11.00000  0.05    0.81
Q12   1   0.2172  0.2941  0.7459  11.00000  0.05    0.71
Q13   1  -0.0266  0.6992  0.1743  11.00000  0.05    0.70
Q14   1   0.2932  0.6998  0.5009  11.00000  0.05    0.68
Q15   1   0.4879  0.9928  0.1817  11.00000  0.05    0.66
Q16   1   0.3117  0.5059  0.4198  11.00000  0.05    0.64
Q17   1   0.4595  0.6377  0.4217  11.00000  0.05    0.63
Q18   1   0.2794  0.3428  0.6895  11.00000  0.05    0.63
Q19   1   0.3725  0.9983  0.4813  11.00000  0.05    0.62
Q20   1   0.3885  0.3652  0.2854  11.00000  0.05    0.61
;
_shelx_res_checksum              36036
_shelx_hkl_file
;
  -2   0   0  152.04   10.29
  -2   0   0  138.86   10.52
  -4   0   0   44.13    3.21
  -4   0   0   47.27    3.25
   4   0   0   41.07    3.60
   4   0   0   38.43    3.11
  -5   0   0  282.57   19.52
  -5   0   0  267.81   19.47
   5   0   0  275.78   19.39
   5   0   0  275.92   20.05
  -7   0   0   17.95    1.53
  -7   0   0   17.09    1.43
  -7   0   0   15.79    1.46
   7   0   0   14.72    1.39
   7   0   0   15.63    2.08
  -8   0   0  331.08   26.44
  -8   0   0  383.98   26.54
  -8   0   0  409.74   26.47
   8   0   0  379.00   27.47
   8   0   0  370.51   26.42
  -9   0   0   72.04    5.43
  -9   0   0   75.57    5.40
   9   0   0   69.80    5.35
   9   0   0   69.25    6.38
 -10   0   0    2.80    0.64
 -10   0   0    3.14    0.62
 -10   0   0    2.44    0.55
  10   0   0    3.87    0.70
  10   0   0    3.69    1.50
 -11   0   0  107.85    7.66
  11   0   0  101.25    8.98
  11   0   0   97.55    7.59
 -12   0   0    9.00    1.24
  12   0   0    7.58    1.16
  12   0   0    8.91    2.33
 -13   0   0   51.21    4.02
  13   0   0   46.58    3.96
  13   0   0   47.41    5.47
 -14   0   0  130.94    9.65
  14   0   0  122.03    9.60
  14   0   0  131.10   11.52
  14  -1   0  201.05   15.06
  14  -1   0  216.82   17.32
 -14   1   0  201.59   15.08
  13  -1   0    6.47    1.10
  13  -1   0    7.49    2.38
 -13   1   0    8.48    1.26
  12  -1   0   69.30    6.80
  12  -1   0   63.00    5.11
 -12   1   0   66.06    5.16
  11  -1   0  241.50   18.66
  11  -1   0  231.97   16.94
 -11   1   0  235.36   16.97
  10  -1   0   25.57    3.55
  10  -1   0   29.78    2.43
 -10   1   0   29.45    2.44
   9  -1   0  100.78    7.39
   9  -1   0   94.05    8.59
  -9   1   0   98.39    7.18
  -9   1   0  110.52    7.44
   8  -1   0  292.68   22.21
   8  -1   0  305.72   23.42
  -8   1   0  325.16   22.14
  -8   1   0  332.74   22.27
   7  -1   0   10.36    1.00
   7  -1   0   12.62    1.80
  -7   1   0   10.11    0.90
   6  -1   0  403.88   30.34
  -6   1   0  432.39   29.41
   5  -1   0  170.61   12.28
   5  -1   0  166.75   13.45
  -5   1   0  182.18   12.29
   4  -1   0    4.84    0.99
   4  -1   0    5.50    0.52
  -4   1   0    5.43    0.51
   3  -1   0  262.17   17.71
  -3   1   0  224.63   17.61
  -1   1   0  126.87    9.21
  -1  -1   0   56.87    4.17
  -1  -1   0   62.17    4.18
   1   1   0   46.52    3.99
   1   1   0   56.83    4.19
   1   1   0   62.00    4.17
  -4  -1   0   31.38    2.55
  -4  -1   0   35.42    2.63
   4   1   0   30.24    2.63
   4   1   0   29.27    2.36
   4   1   0   33.64    2.85
  -5  -1   0   70.98    5.52
  -5  -1   0   82.12    5.62
   5   1   0   70.79    5.31
   5   1   0   75.50    5.91
   5   1   0   69.26    5.60
  -6  -1   0  229.42   16.91
  -6  -1   0  256.12   17.01
   6   1   0  208.76   16.94
   6   1   0  244.27   17.42
   6   1   0  243.05   16.70
  -7  -1   0   93.85    6.29
  -7  -1   0   77.67    6.43
   7   1   0   89.31    6.26
   7   1   0   83.28    6.98
  -8  -1   0  235.97   15.02
  -8  -1   0  187.49   15.13
   8   1   0  202.58   15.83
   8   1   0  215.99   14.98
  -9  -1   0    0.60    0.47
  -9  -1   0    1.56    0.46
   9   1   0    0.87    0.88
   9   1   0    0.67    0.40
 -10  -1   0  210.97   14.50
  10   1   0  194.35   14.45
  10   1   0  198.58   15.58
 -11  -1   0  170.61   11.71
  11   1   0  158.67   11.67
  11   1   0  151.76   12.85
 -12  -1   0    1.72    0.63
  12   1   0    2.99    1.42
 -13  -1   0  108.90    8.46
  13   1   0  114.35    8.48
  13   1   0  114.41   10.00
 -14  -1   0  118.68    8.68
  14   1   0  113.39   10.27
  14   1   0  109.13    8.62
  14  -2   0  116.36    9.04
  14  -2   0  127.48   11.47
 -14   2   0  118.31    9.08
  13  -2   0   -0.52    1.25
  13  -2   0    0.10    0.53
 -13   2   0   -0.66    0.36
  12  -2   0  153.58   12.59
  12  -2   0  129.07   10.41
 -12   2   0  145.58   10.49
  11  -2   0  134.80   11.33
  11  -2   0  122.48    9.44
 -11   2   0  129.93    9.49
  10  -2   0    4.93    0.81
  10  -2   0    5.34    1.78
 -10   2   0    5.60    0.83
   9  -2   0  141.54   10.66
   9  -2   0  150.50   12.25
  -9   2   0  151.74   10.70
   8  -2   0  130.92   10.77
   8  -2   0  124.05    9.32
  -8   2   0  133.57    9.36
   7  -2   0  134.15   10.85
   7  -2   0  123.46    9.57
  -7   2   0  143.99    9.61
   6  -2   0  560.51   40.52
   5  -2   0   24.38    1.96
   5  -2   0   26.88    1.89
   5  -2   0   22.43    2.73
  -5   2   0   26.65    1.98
  -5   2   0   26.57    1.89
   4  -2   0  321.68   25.19
   4  -2   0  370.43   24.33
   3  -2   0  141.03   10.94
   3  -2   0  152.63   10.19
  -3   2   0  140.11   10.18
   2  -2   0  281.93   20.10
  -2   2   0  273.07   20.07
  -1  -2   0    3.23    0.72
  -1  -2   0    2.77    0.25
  -1  -2   0    2.63    0.50
   1   2   0    3.06    0.26
   1   2   0    2.57    0.47
   1   2   0    3.79    0.78
   1   2   0    3.20    0.62
  -3  -2   0  340.72   23.33
  -3  -2   0  298.58   23.15
   3   2   0  338.12   23.29
   4   2   0    4.96    0.88
   4   2   0    4.41    0.46
  -6  -2   0    6.18    1.00
   6   2   0    7.64    0.74
   6   2   0    6.93    1.11
   6   2   0    7.39    1.24
  -7  -2   0   96.95    6.73
   7   2   0   90.37    7.45
   7   2   0   89.78    6.71
  -8  -2   0  166.62   11.19
  -8  -2   0  138.14   11.46
   8   2   0  161.32   11.17
   8   2   0  155.86   12.02
  -9  -2   0    0.45    0.36
  -9  -2   0    1.40    0.63
   9   2   0    0.49    0.70
   9   2   0    0.23    0.35
 -10  -2   0  137.79   11.85
 -10  -2   0  173.83   11.66
  10   2   0  165.79   11.63
  10   2   0  166.36   12.72
 -11  -2   0  198.56   13.40
 -11  -2   0  155.99   13.51
  11   2   0  199.57   13.40
  11   2   0  187.31   14.56
 -12  -2   0   14.32    1.82
 -12  -2   0   16.50    1.79
  12   2   0   18.73    1.82
  12   2   0   19.60    2.81
 -13  -2   0  136.36    9.78
  13   2   0  127.25   11.11
  13   2   0  128.96    9.74
 -14  -2   0   41.99    3.78
  14   2   0   47.44    5.25
  14   2   0   42.68    3.79
  14  -3   0  117.80   11.22
 -14   3   0  114.45    8.79
  13  -3   0    3.11    0.82
  13  -3   0    3.21    1.99
 -13   3   0    2.78    0.81
  12  -3   0  196.29   15.81
  12  -3   0  177.51   13.46
 -12   3   0  183.96   13.50
  11  -3   0   80.83    8.26
  11  -3   0   82.38    6.38
 -11   3   0   90.42    6.44
  10  -3   0    5.81    2.05
  10  -3   0    5.80    0.90
 -10   3   0    6.85    0.94
   9  -3   0  158.27   12.03
  -9   3   0  176.97   12.08
   8  -3   0    7.25    1.98
   8  -3   0    6.50    0.82
  -8   3   0    8.41    0.86
   7  -3   0   92.86    8.35
   7  -3   0   91.29    6.96
  -7   3   0  104.36    7.00
   6  -3   0  297.06   21.36
   6  -3   0  300.54   21.25
   6  -3   0  294.84   22.72
  -6   3   0  320.15   21.37
   5  -3   0    0.82    0.65
   5  -3   0    1.08    0.25
   5  -3   0    1.42    0.28
  -5   3   0    0.80    0.24
  -5   3   0    0.85    0.22
   4  -3   0  431.66   27.00
  -4   3   0  335.66   26.97
   3  -3   0  465.55   33.59
   2  -3   0  490.09   35.20
   1  -3   0  417.81   30.28
  -1   3   0  422.68   30.19
   0   3   0    0.01    0.01
  -1  -3   0    1.36    0.43
  -1  -3   0    0.70    0.43
  -1  -3   0    1.09    0.37
  -1  -3   0    1.01    0.13
   1   3   0    0.82    0.40
   1   3   0    2.13    0.67
   1   3   0    1.17    0.13
   3   3   0   90.13    6.98
   3   3   0   99.31    7.61
   3   3   0  107.26    7.51
   4   3   0  161.58   12.45
   4   3   0  197.66   13.11
   4   3   0  170.68   13.11
   5   3   0  343.94   25.22
   5   3   0  390.71   25.29
   5   3   0  312.71   24.50
  -6  -3   0   26.99    2.76
   6   3   0   36.00    3.12
   6   3   0   30.91    3.02
   6   3   0   27.59    2.32
  -7  -3   0  353.04   23.81
  -7  -3   0  318.68   24.32
   7   3   0  314.90   23.77
   7   3   0  349.64   24.66
   7   3   0  349.96   24.59
  -8  -3   0  269.43   19.23
  -8  -3   0  286.30   18.65
   8   3   0  220.56   19.21
   8   3   0  260.00   18.61
   8   3   0  274.00   19.57
  -9  -3   0    6.46    1.34
  -9  -3   0    7.04    0.88
   9   3   0    9.36    1.71
   9   3   0    8.06    0.92
 -10  -3   0  221.27   18.49
 -10  -3   0  269.40   18.10
  10   3   0  263.85   18.09
  10   3   0  257.61   19.15
 -11  -3   0   66.00    4.61
 -11  -3   0   48.96    4.85
  11   3   0   57.74    5.57
  11   3   0   61.05    4.57
 -12  -3   0   62.78    5.00
 -12  -3   0   50.74    4.99
  12   3   0   68.90    6.04
 -13  -3   0  183.24   13.55
  13   3   0  189.34   15.66
  13   3   0  183.07   13.54
 -14  -3   0   26.98    2.51
  14   3   0   25.63    2.50
  14   3   0   23.04    3.62
  14  -4   0   62.01    7.21
 -14   4   0   55.84    4.77
  13  -4   0   16.89    3.85
 -13   4   0   18.11    1.89
  12  -4   0  227.70   18.46
  12  -4   0  213.12   15.90
 -12   4   0  221.25   15.94
  11  -4   0    9.30    2.55
  11  -4   0    6.78    1.06
 -11   4   0    8.58    1.13
  10  -4   0   55.18    4.36
  10  -4   0   55.36    6.21
 -10   4   0   57.99    4.38
   9  -4   0  273.69   20.23
   9  -4   0  284.65   22.26
  -9   4   0  296.46   20.25
   8  -4   0    0.75    0.37
   8  -4   0    0.82    1.22
  -8   4   0    2.18    0.44
   7  -4   0  149.28   10.79
   7  -4   0  152.54   10.63
   7  -4   0  144.80   12.41
  -7   4   0  155.42   10.78
   6  -4   0   72.56    5.44
   6  -4   0   67.81    6.75
   6  -4   0   86.21    5.50
  -6   4   0   71.75    5.42
  -6   4   0   73.27    5.50
   5  -4   0   64.85    6.53
   5  -4   0   72.17    5.32
  -5   4   0   76.99    5.31
  -5   4   0   78.32    5.51
   4  -4   0  360.87   30.87
  -4   4   0  484.45   30.03
   3  -4   0  106.47    7.13
  -3   4   0  102.54    7.47
  -3   4   0   91.39    7.10
  -3   4   0  102.44    7.11
   1  -4   0  703.04   50.34
   0  -4   0   91.91    7.80
   0   4   0  100.33    7.36
  -1  -4   0   45.59    3.19
  -1  -4   0   45.69    4.19
   1   4   0   43.96    3.18
   1   4   0   45.21    3.86
  -3  -4   0   83.88    6.42
   3   4   0   97.94    7.01
   3   4   0   87.94    6.38
   3   4   0   90.90    7.18
   4   4   0  626.34   44.72
   5   4   0  261.46   18.86
   5   4   0  224.25   17.87
   5   4   0  277.66   18.70
   6   4   0    1.83    0.77
   6   4   0    2.15    0.96
   6   4   0    1.45    0.35
  -7  -4   0  192.31   13.49
  -7  -4   0  193.41   14.26
   7   4   0  204.29   14.45
   7   4   0  179.17   13.47
   7   4   0  176.43   14.44
  -8  -4   0  149.82   10.63
  -8  -4   0  146.71   11.42
   8   4   0  139.40   10.60
   8   4   0  143.53   11.62
   8   4   0  157.87   11.64
  -9  -4   0    0.71    0.78
  -9  -4   0    0.60    0.39
   9   4   0    0.39    0.91
   9   4   0    0.71    0.98
   9   4   0    0.76    0.43
 -10  -4   0  198.22   13.77
 -10  -4   0  175.40   14.46
  10   4   0  191.76   14.87
  10   4   0  197.97   13.77
 -11  -4   0   13.58    1.46
 -11  -4   0   13.01    1.98
  11   4   0   13.42    2.29
  11   4   0   13.98    1.47
 -12  -4   0  105.27    7.97
  12   4   0  108.92    7.98
  12   4   0  104.46    9.12
 -13  -4   0  155.53   11.61
  13   4   0  154.48   11.59
  13   4   0  162.17   13.01
  14  -5   0   30.71    5.02
 -14   5   0   28.06    2.73
  13  -5   0   80.51    8.73
 -13   5   0   80.45    6.25
  12  -5   0  109.16   10.54
 -12   5   0  108.22    8.14
  11  -5   0    0.68    0.54
  11  -5   0    0.97    1.35
 -11   5   0    0.66    0.45
  10  -5   0  205.46   16.82
  10  -5   0  197.25   14.46
 -10   5   0  201.41   14.45
   9  -5   0  272.29   22.24
   9  -5   0  281.28   20.10
  -9   5   0  293.32   20.09
   8  -5   0   22.38    1.94
  -8   5   0   23.76    1.92
   7  -5   0  271.51   18.67
   7  -5   0  240.33   20.43
  -7   5   0  266.55   18.74
  -7   5   0  272.92   18.64
   6  -5   0  163.62   11.45
   6  -5   0  149.71   13.09
  -6   5   0  161.95   11.68
  -6   5   0  166.01   11.42
   5  -5   0   87.06    8.34
   5  -5   0   99.62    6.85
  -5   5   0   96.83    7.17
  -5   5   0   95.56    6.80
   4  -5   0  495.71   42.25
  -4   5   0  668.25   41.34
   3  -5   0    4.76    1.54
  -3   5   0    4.56    0.45
  -3   5   0    5.96    0.49
  -3   5   0    6.58    0.95
   2  -5   0  569.96   41.46
   0  -5   0  170.61   14.76
   0   5   0  193.15   13.58
  -1  -5   0  111.31    7.64
  -1  -5   0  106.69    9.05
   1   5   0  105.56    7.63
   1   5   0  111.84    8.51
  -2  -5   0  432.29   30.57
  -2  -5   0  390.34   29.18
   2   5   0  431.72   30.14
  -3  -5   0   12.54    1.97
   3   5   0   10.95    0.90
   3   5   0   10.41    1.62
   4   5   0  214.81   14.70
   4   5   0  172.50   13.48
   4   5   0  191.65   14.23
  -5  -5   0  102.01    7.68
   5   5   0   84.53    7.31
   5   5   0   85.37    6.99
   5   5   0   77.28    6.20
  -6  -5   0   71.33    5.45
  -6  -5   0   82.18    6.80
   6   5   0   76.93    6.34
   6   5   0   72.76    5.45
   6   5   0   72.00    6.58
  -7  -5   0  192.35   15.25
  -7  -5   0  227.91   15.87
  -7  -5   0  200.42   14.33
   7   5   0  188.15   15.50
   7   5   0  208.29   15.35
   7   5   0  191.94   14.33
  -8  -5   0   22.32    2.84
  -8  -5   0   27.04    3.30
   8   5   0   22.56    2.06
   8   5   0   27.83    3.04
   8   5   0   24.36    3.20
  -9  -5   0   76.69    5.76
  -9  -5   0   86.08    7.33
  -9  -5   0   76.34    6.73
   9   5   0   79.99    6.86
   9   5   0   66.88    6.86
   9   5   0   76.03    5.76
 -10  -5   0  106.50    8.96
 -10  -5   0  115.72    8.00
  10   5   0  109.00    9.10
  10   5   0   93.78    9.10
  10   5   0  112.17    7.98
 -11  -5   0    3.27    0.73
 -11  -5   0    4.99    1.44
  11   5   0    4.99    1.64
  11   5   0    3.39    0.73
 -12  -5   0   70.79    6.88
 -12  -5   0   56.18    4.67
 -12  -5   0   56.06    5.41
  12   5   0   57.42    5.80
  12   5   0   59.17    4.69
 -13  -5   0   68.80    7.09
 -13  -5   0   56.84    4.67
  13   5   0   55.55    4.66
  13   5   0   55.02    5.83
  14  -6   0    3.04    2.18
 -14   6   0    2.99    0.86
  13  -6   0  102.30   10.46
 -13   6   0  100.28    7.68
  12  -6   0  100.76   10.50
 -12   6   0  101.40    7.61
  11  -6   0   -1.78    1.09
 -11   6   0    1.31    0.53
  10  -6   0   86.69    9.24
 -10   6   0  103.76    7.16
   9  -6   0   29.30    4.53
  -9   6   0   35.02    2.67
   8  -6   0  118.24   10.52
  -8   6   0  120.24    8.13
  -8   6   0  101.65    8.17
   7  -6   0  238.32   19.55
  -7   6   0  241.05   17.41
  -7   6   0  244.95   17.09
   6  -6   0   14.02    2.63
  -6   6   0   14.59    1.22
  -6   6   0   15.24    1.66
   5  -6   0   90.43    9.32
  -5   6   0  111.84    7.67
  -5   6   0  114.65    8.18
   4  -6   0  242.83   21.36
  -4   6   0  309.40   19.58
   3  -6   0   22.15    3.26
  -3   6   0   28.69    1.91
  -3   6   0   26.42    2.53
  -3   6   0   24.27    1.88
   2  -6   0  300.96   24.26
  -2   6   0  324.88   22.39
  -2   6   0  333.69   23.22
   1  -6   0  249.67   21.10
  -1   6   0  304.80   20.34
   0  -6   0   73.85    7.33
   0   6   0   92.64    6.84
  -1  -6   0  273.83   20.95
  -1  -6   0  271.99   19.27
   1   6   0  275.77   19.27
   1   6   0  282.01   20.34
  -2  -6   0  213.84   16.32
  -2  -6   0  250.88   18.05
   2   6   0  227.57   16.29
   2   6   0  243.35   17.46
  -3  -6   0  177.31   13.34
   3   6   0  151.14   11.62
   3   6   0  171.49   12.87
  -4  -6   0  293.00   20.59
   4   6   0  244.06   18.80
   4   6   0  270.00   20.12
  -5  -6   0   84.43    6.06
  -5  -6   0   98.37    7.81
   5   6   0   78.98    6.04
   5   6   0   85.87    7.40
   5   6   0   77.33    6.87
  -6  -6   0  139.15   10.84
  -6  -6   0  126.88    9.17
   6   6   0  130.96   10.63
   6   6   0  128.11   10.15
   6   6   0  118.55    9.15
  -7  -6   0   93.52    8.14
  -7  -6   0   92.22    6.58
  -7  -6   0   87.08    7.72
   7   6   0   85.70    8.10
   7   6   0   94.81    7.67
   7   6   0   86.69    6.56
  -8  -6   0    5.21    1.66
  -8  -6   0    3.37    0.60
  -8  -6   0    4.02    1.40
   8   6   0    4.29    1.39
   8   6   0    3.62    1.57
  -9  -6   0  303.71   22.35
  -9  -6   0  291.08   21.01
  -9  -6   0  323.57   22.92
   9   6   0  301.86   22.26
   9   6   0  278.69   22.57
   9   6   0  277.56   20.99
 -10  -6   0  176.01   12.92
 -10  -6   0  190.47   14.84
 -10  -6   0  180.01   14.24
  10   6   0  162.47   14.45
  10   6   0  180.68   14.19
  10   6   0  183.89   12.94
 -11  -6   0   -0.44    0.93
 -11  -6   0    0.65    0.45
 -11  -6   0    0.10    1.08
  11   6   0   -0.08    0.37
  11   6   0   -0.04    0.79
 -12  -6   0  113.11   10.41
 -12  -6   0  132.74    9.46
  12   6   0  135.17    9.45
  13  -7   0  105.51   10.98
 -13   7   0  105.71    7.98
  12  -7   0   57.75    7.14
 -12   7   0   53.96    4.39
  11  -7   0   35.60    5.47
 -11   7   0   41.30    3.23
  10  -7   0  252.34   21.28
 -10   7   0  264.46   18.47
   9  -7   0   20.50    3.91
   9  -7   0   20.71    1.67
  -9   7   0   17.89    1.71
   8  -7   0  170.17   14.25
  -8   7   0  157.29   11.77
  -8   7   0  156.37   11.44
   7  -7   0  493.97   37.20
  -7   7   0  484.82   34.49
  -7   7   0  495.39   35.04
  -6   7   0    5.66    1.21
  -6   7   0    7.43    0.70
   5  -7   0  126.25   11.81
  -5   7   0  143.68   10.40
   4  -7   0   88.32    9.13
  -4   7   0   97.72    7.83
  -4   7   0  107.49    7.06
   3  -7   0   41.52    5.30
  -3   7   0   45.68    4.23
  -3   7   0   53.48    3.48
   2  -7   0  565.45   43.92
  -2   7   0  627.40   42.71
   1  -7   0  226.70   18.93
  -1   7   0  255.88   17.98
   0  -7   0   87.50    8.58
   0   7   0  107.25    8.02
  -1  -7   0  261.22   16.69
  -1  -7   0  210.15   18.47
   1   7   0  239.33   17.92
  -2  -7   0   69.36    4.32
  -2  -7   0   56.25    5.92
   2   7   0   59.40    5.53
   2   7   0   55.31    4.30
  -3  -7   0   53.79    5.59
  -3  -7   0   57.90    3.82
   3   7   0   49.30    3.80
   3   7   0   49.96    5.01
  -4  -7   0  129.06   10.82
   4   7   0  117.28    8.88
   4   7   0  134.01   10.48
  -5  -7   0    0.71    0.27
  -5  -7   0    0.67    1.08
   5   7   0    1.17    0.28
  -6  -7   0  179.20   12.69
  -6  -7   0  183.05   14.62
   6   7   0  185.11   14.45
   6   7   0  169.66   12.67
  -7  -7   0  104.94    7.98
  -7  -7   0  108.36    9.28
  -7  -7   0  117.88    9.92
   7   7   0  114.48    9.21
   7   7   0  113.50    9.78
   7   7   0  107.51    7.99
  -8  -7   0    4.36    0.66
  -8  -7   0    5.45    1.67
  -8  -7   0    3.42    1.56
   8   7   0    4.52    0.69
   8   7   0    4.90    1.81
   8   7   0    4.11    1.45
  -9  -7   0   84.47    7.62
  -9  -7   0   86.93    6.20
  -9  -7   0   90.77    8.13
   9   7   0   82.17    8.00
   9   7   0   79.48    7.38
   9   7   0   77.10    6.16
 -10  -7   0   35.13    4.39
 -10  -7   0   37.16    4.78
 -10  -7   0   38.73    3.20
  10   7   0   43.05    3.24
  10   7   0   41.69    4.45
  10   7   0   41.24    4.99
 -11  -7   0   22.30    3.77
 -11  -7   0   24.11    3.40
  11   7   0   21.04    3.24
  11   7   0   22.35    2.05
 -12  -7   0   89.79    8.85
 -12  -7   0   86.12    8.11
 -12  -7   0   90.70    6.64
  12   7   0   82.33    7.88
  13  -8   0  116.25   12.12
 -13   8   0  118.56    8.80
  12  -8   0   59.78    7.74
 -12   8   0   61.26    4.80
  11  -8   0   12.24    3.59
 -11   8   0   10.67    1.22
  10  -8   0   38.48    5.76
 -10   8   0   41.41    3.21
   9  -8   0    7.34    1.06
   9  -8   0    7.48    2.67
  -9   8   0    6.03    1.00
  -9   8   0    6.26    0.78
   8  -8   0  168.46   14.74
  -8   8   0  159.85   11.64
   7  -8   0  242.76   19.19
  -7   8   0  222.05   15.95
  -7   8   0  216.44   16.67
   6  -8   0    0.72    1.44
  -6   8   0    0.47    0.25
  -6   8   0   -0.08    0.58
   5  -8   0  153.21   13.83
  -5   8   0  167.50   11.16
  -5   8   0  149.46   12.03
   4  -8   0   27.51    4.27
  -4   8   0   22.97    2.81
  -4   8   0   26.21    1.99
  -4   8   0   29.98    2.02
   3  -8   0  124.91   11.82
  -3   8   0  125.91   10.39
  -3   8   0  145.77    9.38
  -3   8   0  131.90    9.36
   2  -8   0  433.03   33.85
  -2   8   0  460.60   32.44
   1  -8   0   48.92    5.79
  -1   8   0   54.29    4.81
   0  -8   0   64.60    7.10
   0   8   0   81.39    6.51
  -1  -8   0  194.76   17.02
   1   8   0  230.96   16.39
  -2  -8   0   73.57    5.44
  -2  -8   0   89.10    5.45
  -2  -8   0   62.91    7.25
   2   8   0   76.35    6.88
  -3  -8   0  236.63   14.92
  -3  -8   0  194.33   14.90
  -3  -8   0  198.68   17.04
   3   8   0  204.94   16.50
   3   8   0  221.09   14.90
  -4  -8   0  359.38   23.94
  -4  -8   0  319.96   26.09
   4   8   0  341.92   23.92
   4   8   0  338.58   25.65
  -5  -8   0  101.80    7.02
  -5  -8   0   92.08    9.82
   5   8   0  108.51    8.89
   5   8   0   91.25    6.99
  -6  -8   0  203.09   14.22
  -6  -8   0  191.70   16.34
   6   8   0  205.16   16.18
   6   8   0  201.49   14.21
  -7  -8   0  102.62    7.12
  -7  -8   0   95.05    9.14
  -7  -8   0   95.60    8.58
   7   8   0  105.71    9.20
   7   8   0   92.66    7.09
  -8  -8   0   24.83    3.48
  -8  -8   0   24.67    3.83
  -8  -8   0   26.69    2.22
   8   8   0   28.56    2.24
   8   8   0   30.97    4.17
  -9  -8   0  102.57    9.97
  -9  -8   0  111.08    9.68
  -9  -8   0  111.19    8.02
   9   8   0  104.33    7.99
   9   8   0  123.84   10.37
 -10  -8   0    7.59    1.02
 -10  -8   0    8.82    2.27
 -10  -8   0    8.46    2.47
  10   8   0    8.24    2.61
 -11  -8   0   81.58    7.51
 -11  -8   0   73.10    5.73
 -11  -8   0   68.34    7.67
  11   8   0   83.07    8.04
  12  -9   0   -1.93    1.65
  11  -9   0   97.21   10.39
 -11   9   0   92.30    6.97
  10  -9   0   77.38    8.80
 -10   9   0   68.46    5.30
   9  -9   0   14.59    3.72
  -9   9   0   12.02    1.10
  -9   9   0    7.16    1.72
   8  -9   0   79.43    8.61
  -8   9   0   68.53    5.96
  -8   9   0   70.30    5.23
   7  -9   0   45.55    6.07
  -7   9   0   39.87    3.96
  -7   9   0   40.60    3.08
   6  -9   0  156.34   14.52
  -6   9   0  163.26   11.32
  -6   9   0  157.90   12.38
   5  -9   0  187.01   17.36
  -5   9   0  196.01   15.46
  -5   9   0  220.88   14.34
   4  -9   0   67.86    7.89
  -4   9   0   75.72    5.11
  -4   9   0   68.78    6.26
  -4   9   0   71.77    5.10
   3  -9   0  201.61   16.81
  -3   9   0  190.88   14.96
   2  -9   0  206.23   18.91
  -2   9   0  211.46   15.99
   1  -9   0    0.81    1.38
  -1   9   0    0.65    0.83
   0  -9   0   98.35    9.61
   0   9   0  104.88    9.21
  -1  -9   0  152.51   14.11
   1   9   0  181.21   13.38
  -2  -9   0    3.31    1.84
   2   9   0    1.28    1.18
  -3  -9   0  163.88   12.87
  -3  -9   0  207.28   12.89
  -3  -9   0  169.59   15.33
   3   9   0  191.56   14.78
  -4  -9   0   57.46    6.89
  -4  -9   0   72.70    4.80
   4   9   0   63.85    6.47
  -5  -9   0   88.40    9.28
  -5  -9   0  101.90    7.06
   5   9   0  103.61    9.12
  -6  -9   0   92.28    9.71
  -6  -9   0  108.72    7.57
   6   9   0  114.44    9.76
  -7  -9   0   18.77    2.96
  -7  -9   0   21.88    1.70
  -7  -9   0   17.05    3.42
   7   9   0   16.44    3.51
  -8  -9   0   63.33    4.76
  -8  -9   0   61.39    6.31
  -8  -9   0   59.97    6.83
   8   9   0   72.02    7.16
  -9  -9   0  124.79   11.87
  -9  -9   0  131.13   11.49
  -9  -9   0  136.04    9.61
   9   9   0  138.23   13.04
 -10  -9   0    3.03    1.65
 -10  -9   0    1.13    0.48
 -10  -9   0    1.77    1.57
  10   9   0    3.96    2.06
  12 -10   0    8.37    3.52
  11 -10   0  111.60   11.41
 -11  10   0   92.35    7.22
  10 -10   0   24.46    4.93
 -10  10   0   16.74    1.58
   9 -10   0   59.96    4.80
   9 -10   0   52.36    7.20
  -9  10   0   51.07    4.17
   8 -10   0  160.23   14.28
  -8  10   0  131.27   10.05
   7 -10   0   57.25    7.30
  -7  10   0   50.17    4.96
  -7  10   0   52.85    3.88
   6 -10   0   68.74    7.93
  -6  10   0   68.83    5.93
  -6  10   0   58.71    4.63
   5 -10   0  166.91   15.85
  -5  10   0  168.76   13.79
  -5  10   0  188.83   12.45
   4 -10   0    5.84    2.69
   3 -10   0  265.46   21.42
  -3  10   0  246.52   19.34
   2 -10   0  123.96   11.84
  -2  10   0  124.36   10.24
   1 -10   0   -0.30    1.13
  -1  10   0    0.68    0.94
   0 -10   0  230.35   20.32
   0  10   0  268.39   19.24
  -1 -10   0   43.10    5.57
   1  10   0   48.38    4.90
  -2 -10   0    1.79    1.53
   2  10   0    1.17    1.29
  -3 -10   0  187.10   14.39
  -3 -10   0  206.53   17.44
   3  10   0  233.74   16.68
  -4 -10   0    0.64    0.20
  -4 -10   0    0.73    1.30
   4  10   0    2.13    1.28
  -5 -10   0  107.13   10.95
   5  10   0  127.31   10.67
  -6 -10   0   91.79    9.49
  -6 -10   0   91.93    8.59
   6  10   0  102.71    9.34
  -7 -10   0    1.16    0.38
  -7 -10   0    1.57    1.54
   7  10   0    0.28    1.85
  -8 -10   0   71.64    8.13
  -8 -10   0   83.04    5.81
  -8 -10   0   75.42    7.61
   8  10   0   80.62    8.26
  -9 -10   0   81.24    5.80
  -9 -10   0   69.90    7.52
  -9 -10   0   71.08    8.13
   9  10   0   88.86    8.46
  11 -11   0  103.66   11.81
  10 -11   0    0.16    1.65
 -10  11   0   -0.56    0.33
   9 -11   0  114.96    8.99
   9 -11   0  102.10   11.32
  -9  11   0   87.92    7.18
   8 -11   0  145.13   13.85
  -8  11   0  128.04    9.52
   7 -11   0    0.49    3.23
  -7  11   0    1.20    1.21
  -7  11   0    0.88    0.29
   6 -11   0   42.09    6.15
  -6  11   0   39.47    4.40
  -6  11   0   39.97    2.94
   5 -11   0  160.06   15.25
  -5  11   0  163.58   13.06
   4 -11   0    5.36    2.70
  -4  11   0    4.41    1.43
   3 -11   0  132.50   12.63
  -3  11   0  126.59   10.75
   2 -11   0   26.81    4.74
  -2  11   0   29.06    3.61
   1 -11   0   23.10    4.41
  -1  11   0   28.46    3.43
   0 -11   0   75.94    8.57
   0  11   0   86.96    7.65
  -1 -11   0   56.05    7.12
   1  11   0   66.65    6.23
  -2 -11   0   65.39    7.96
   2  11   0   81.70    7.25
  -3 -11   0   84.86    9.31
   3  11   0   94.67    8.56
  -4 -11   0    4.75    2.33
   4  11   0    5.47    1.86
  -5 -11   0   69.27    8.15
   5  11   0   81.36    7.91
  -6 -11   0   93.98    8.26
  -6 -11   0   72.83    8.66
   6  11   0   83.04    8.52
  -7 -11   0    8.35    2.33
  -7 -11   0    4.80    3.61
   7  11   0    6.39    2.38
  -8 -11   0   76.17    9.01
  -8 -11   0   87.72    8.53
   8  11   0  105.07    9.56
  10 -12   0   -2.58    1.81
   9 -12   0  109.34   12.34
   8 -12   0   72.18    6.33
   8 -12   0   64.77    8.97
   7 -12   0    1.55    2.32
  -7  12   0    0.59    1.13
   6 -12   0   88.71   10.16
  -6  12   0   85.52    7.90
  -5  12   0   40.64    4.64
   4 -12   0   35.22    5.66
  -4  12   0   36.29    4.25
   3 -12   0   67.85    8.26
  -3  12   0   64.68    6.48
   2 -12   0   26.79    4.66
  -2  12   0   24.85    3.49
   1 -12   0   59.90    7.61
  -1  12   0   65.04    6.34
   0 -12   0   30.06    5.12
   0  12   0   39.88    4.54
  -1 -12   0    1.57    1.91
   1  12   0    2.34    1.53
  -2 -12   0   50.06    6.67
  -3 -12   0   14.17    3.79
   3  12   0   13.56    2.95
  -4 -12   0   13.41    3.71
   4  12   0   17.01    3.30
  -5 -12   0  131.91   11.27
   5  12   0  115.93   11.21
  -6 -12   0   29.54    5.10
  -6 -12   0   33.16    4.54
   6  12   0   33.29    4.95
  -7 -12   0   32.94    4.36
  -7 -12   0   26.56    4.85
   7  12   0   31.59    4.91
   8 -13   0    1.00    2.54
   8 -13   0    0.47    1.32
  -8  13   0   -0.01    1.05
   7 -13   0   46.64    7.39
  -7  13   0   42.08    4.89
   6 -13   0   86.33   10.35
  -6  13   0   79.57    7.73
   5 -13   0    7.74    3.08
  -5  13   0   10.61    2.50
   4 -13   0   87.84   10.20
  -4  13   0   83.73    8.07
   3 -13   0  108.68   11.34
  -3  13   0   94.30    9.10
   2 -13   0   -1.10    0.91
  -2  13   0   -0.96    0.96
   1 -13   0   35.10    5.63
  -1  13   0   36.67    4.62
   0  13   0   47.24    5.35
  -1 -13   0   43.08    7.65
   1  13   0   50.40    5.64
  -2 -13   0  157.58   15.31
   2  13   0  168.76   14.01
  -3 -13   0   33.46    5.64
   3  13   0   37.26    4.74
  -4 -13   0    1.34    1.48
  -4 -13   0    2.43    2.23
   4  13   0    2.41    1.64
  -5 -13   0   48.30    7.39
  -5 -13   0   79.56    7.56
   5  13   0   70.26    7.42
   6 -14   0   41.50    4.63
   6 -14   0   33.68    6.54
  -6  14   0   36.55    4.82
   5 -14   0   -1.58    1.68
  -5  14   0    0.63    1.14
   4 -14   0   60.43    8.52
  -4  14   0   61.92    6.58
   3 -14   0   58.57    8.01
  -3  14   0   52.84    6.10
   2 -14   0   -0.07    1.65
  -2  14   0    0.77    1.00
   1 -14   0   68.15    8.66
  -1  14   0   62.95    6.76
   0 -14   0   14.39    4.10
   0  14   0   15.58    3.34
  -1 -14   0   12.51    3.94
   1  14   0   14.37    3.22
  -2 -14   0   20.54    5.03
   2  14   0   23.10    3.87
  -3 -14   0    5.66    2.33
  -3 -14   0    2.39    2.31
   3  14   0    2.79    1.95
   2  14  -1   27.18    4.23
  -2 -14   1   27.02    5.30
  -2 -14   1   33.96    4.80
   1  14  -1   12.06    3.08
  -1 -14   1    9.27    2.84
  -1 -14   1   10.20    3.71
   0  14  -1   41.42    5.41
   0 -14   1   43.56    6.95
   0 -14   1   55.60    6.03
  -1  14  -1   83.38    8.81
   1 -14   1  100.88    9.03
  -2  14  -1   12.52    3.01
   2 -14   1   21.41    3.48
   2 -14   1   17.42    4.78
  -3  14  -1   18.52    3.81
   3 -14   1   18.76    5.27
   3 -14   1   28.78    3.88
  -4  14  -1   68.45    7.42
   4 -14   1   83.36    7.49
   4 -14   1   63.66    9.04
  -5  14  -1    9.36    2.64
   5 -14   1   10.54    4.15
   5 -14   1    9.46    2.40
  -6  14  -1   23.22    3.87
   6 -14   1   30.43    4.08
   4  13  -1   15.15    3.46
  -4 -13   1   14.95    3.41
  -4 -13   1   12.55    3.85
   3  13  -1   17.07    3.66
  -3 -13   1   18.69    4.66
  -3 -13   1   23.82    3.84
   2  13  -1   82.01    8.39
  -2 -13   1   93.09    8.52
  -2 -13   1   78.76    9.47
   1  13  -1    2.64    1.66
  -1 -13   1    0.95    1.41
  -1 -13   1    0.22    1.57
   0  13  -1  103.26    9.84
   0 -13   1   96.13   11.12
   0 -13   1  121.10    9.99
  -1  13  -1  104.37    9.80
   1 -13   1  110.48   11.58
  -2  13  -1    1.71    1.40
   2 -13   1    0.57    1.63
  -3  13  -1   47.02    6.29
   3 -13   1   54.15    7.50
  -4  13  -1   30.49    4.71
   4 -13   1   31.89    5.81
  -5  13  -1    4.41    1.84
   5 -13   1    2.07    2.47
   5 -13   1    3.97    1.64
  -6  13  -1  140.82   13.44
   6 -13   1  155.46   15.97
   6 -13   1  195.10   13.68
  -7  13  -1   70.05    7.49
   7 -13   1   81.54   10.32
   7 -13   1   94.51    7.71
   8 -13   1   -0.29    1.14
   8 -13   1    1.36    2.33
   6  12  -1   32.51    4.78
  -6 -12   1   33.00    4.59
  -6 -12   1   25.99    5.12
   5  12  -1   79.22    8.19
  -5 -12   1   61.71    8.27
  -5 -12   1   79.71    7.66
   4  12  -1   16.08    3.51
  -4 -12   1   13.05    2.99
  -4 -12   1   12.14    3.73
   3  12  -1   30.77    4.44
  -3 -12   1   25.48    4.89
  -3 -12   1   33.78    4.21
   2  12  -1  163.20   14.25
  -2 -12   1  152.78   15.32
  -2 -12   1  191.14   14.35
   1  12  -1    1.91    1.37
  -1 -12   1    4.22    2.10
   0  12  -1  103.12    9.65
   0 -12   1  110.86   11.22
  -1  12  -1   38.19    4.72
   1 -12   1   39.82    6.00
  -2  12  -1    2.16    1.46
   2 -12   1    4.13    2.46
  -3  12  -1   87.76    8.41
   3 -12   1   95.70   10.32
  -4  12  -1   40.87    4.73
   4 -12   1   37.76    5.99
  -5  12  -1   30.29    3.93
   5 -12   1   33.53    5.76
  -6  12  -1   96.95    9.09
   6 -12   1  117.37    9.04
   6 -12   1   92.28   11.20
  -7  12  -1   11.44    2.64
   7 -12   1   17.99    2.76
   7 -12   1   19.49    4.86
  -8  12  -1   33.62    4.48
   8 -12   1   42.77    4.35
   8 -12   1   43.87    7.16
   9 -12   1   61.11    8.71
   8  11  -1   69.51    7.57
  -8 -11   1   65.51    6.71
  -8 -11   1   45.96    6.68
   7  11  -1    7.45    2.93
  -7 -11   1    8.16    3.44
  -7 -11   1    9.43    2.47
   6  11  -1   46.46    5.89
  -6 -11   1   40.32    5.13
  -6 -11   1   43.14    6.05
   5  11  -1   83.63    8.31
  -5 -11   1   88.93    7.98
  -5 -11   1   68.94    8.60
   4  11  -1    4.40    2.14
  -4 -11   1    2.61    1.39
  -4 -11   1    2.51    1.98
   3  11  -1   54.35    6.13
  -3 -11   1   50.57    6.74
  -3 -11   1   60.69    5.93
   2  11  -1   48.32    5.15
  -2 -11   1   37.28    5.59
   1  11  -1   12.64    2.65
  -1 -11   1    8.15    3.07
   0  11  -1  159.18   12.97
   0 -11   1  151.74   14.23
  -1  11  -1   62.34    6.32
   1 -11   1   65.17    7.65
  -2  11  -1   43.02    4.74
   2 -11   1   44.16    6.10
  -3  11  -1   81.86    7.65
   3 -11   1   83.99    9.20
  -4  11  -1   30.87    3.72
   4 -11   1   26.07    4.99
  -5  11  -1   52.38    5.33
   5 -11   1   49.27    7.08
  -6  11  -1   87.89    7.95
   6 -11   1   91.83   10.28
  -7  11  -1    0.64    1.05
  -7  11  -1    0.32    0.25
   7 -11   1   -1.11    1.10
   7 -11   1    0.29    0.95
  -8  11  -1  152.51   11.63
   8 -11   1  186.66   16.45
  -9  11  -1   56.61    4.51
   9 -11   1   77.63    8.91
 -10  11  -1   -0.53    0.33
  10 -11   1   -2.19    1.50
 -11  11  -1   52.91    4.30
  11 -11   1   71.19    8.93
  -9 -10   1   69.43    7.22
  -9 -10   1   73.27    5.18
  -9 -10   1   59.98    7.56
   8  10  -1   96.70    9.74
  -8 -10   1  101.08    9.10
  -8 -10   1   81.00    9.40
  -8 -10   1  101.05    7.01
   7  10  -1    2.54    1.92
  -7 -10   1    3.05    1.66
  -7 -10   1    2.48    1.54
   6  10  -1  120.97   10.78
  -6 -10   1  115.60    7.93
  -6 -10   1   96.64   10.52
  -6 -10   1  105.31   10.51
   5  10  -1   60.78    6.40
  -5 -10   1   41.12    6.12
  -5 -10   1   54.88    5.73
  -5 -10   1   55.86    3.91
   4  10  -1    0.42    1.01
  -4 -10   1    1.13    1.51
  -4 -10   1    0.42    1.13
   3  10  -1  131.84   11.20
  -3 -10   1  136.93    9.01
  -3 -10   1  109.35   11.64
   2  10  -1   41.45    4.64
  -2 -10   1   37.21    5.30
   1  10  -1  114.35    9.64
  -1 -10   1  104.82   10.52
   0  10  -1  122.04   10.07
   0 -10   1  110.72   11.02
  -1  10  -1   22.73    3.20
   1 -10   1   22.74    4.10
  -2  10  -1  150.82   11.91
   2 -10   1  139.38   13.32
  -3  10  -1  171.70   14.15
   3 -10   1  187.93   16.11
  -4  10  -1    6.79    1.79
   4 -10   1    7.84    3.05
  -5  10  -1  127.09    8.31
  -5  10  -1  106.71   10.37
   5 -10   1  109.51   11.53
  -6  10  -1   52.48    5.11
   6 -10   1   50.88    6.93
  -7  10  -1    2.69    0.43
  -7  10  -1    2.73    1.21
   7 -10   1    2.95    1.07
   7 -10   1    2.38    2.28
  -8  10  -1  141.98   10.07
  -8  10  -1  127.14   11.06
   8 -10   1  160.43   14.27
   9 -10   1   73.95    9.08
 -10  10  -1    2.68    0.54
  10 -10   1    3.27    2.23
 -11  10  -1   56.50    4.58
  11 -10   1   73.47    8.85
 -12  10  -1   -0.84    0.42
  12 -10   1   -1.21    1.67
  10   9  -1   -1.11    1.64
 -10  -9   1   -0.86    1.17
 -10  -9   1   -0.19    0.42
 -10  -9   1    0.59    1.22
   9   9  -1   63.07    4.92
   9   9  -1   73.35    7.57
  -9  -9   1   60.48    7.15
  -9  -9   1   69.28    6.88
  -9  -9   1   64.96    4.93
   8   9  -1   28.36    4.46
   8   9  -1   26.43    2.20
  -8  -9   1   26.95    2.21
  -8  -9   1   26.98    4.22
  -8  -9   1   23.40    3.69
   7   9  -1   11.20    2.97
   7   9  -1    8.62    0.95
  -7  -9   1    8.67    1.02
  -7  -9   1    9.48    2.73
  -7  -9   1    7.83    2.09
   6   9  -1  218.66   16.48
   6   9  -1  196.98   13.85
  -6  -9   1  190.43   15.60
  -6  -9   1  177.82   16.38
   5   9  -1  113.22    9.48
   5   9  -1   99.02    7.05
  -5  -9   1  104.56    7.07
  -5  -9   1   88.05    9.40
  -5  -9   1   86.12    8.48
   4   9  -1    7.15    2.26
  -4  -9   1    9.11    0.80
  -4  -9   1    7.23    2.48
   3   9  -1   68.87    6.89
   3   9  -1   75.26    5.12
  -3  -9   1   76.82    5.13
  -3  -9   1   58.17    7.21
   2   9  -1    2.14    1.23
  -2  -9   1    0.98    0.17
   1   9  -1   95.02    7.84
  -1  -9   1   73.37    9.01
   0   9  -1  277.17   19.65
   0  -9   1  231.04   21.45
  -1   9  -1    5.95    1.60
  -2   9  -1  249.40   19.12
   2  -9   1  252.36   20.59
  -3   9  -1  126.05   10.19
   3  -9   1  123.82   11.79
  -4   9  -1    0.03    0.12
  -4   9  -1    0.55    0.17
  -4   9  -1    0.04    0.82
   4  -9   1   -0.65    1.34
  -5   9  -1  300.99   19.65
  -5   9  -1  275.17   20.91
   5  -9   1  255.96   22.77
  -6   9  -1   60.58    4.21
  -6   9  -1   52.77    5.22
   6  -9   1   58.01    7.20
  -7   9  -1   58.35    4.32
  -7   9  -1   59.29    5.32
   7  -9   1   60.05    7.27
  -8   9  -1  182.11   13.61
  -8   9  -1  171.00   14.38
   8  -9   1  223.80   14.46
   8  -9   1  192.59   17.18
  -9   9  -1   50.81    4.31
   9  -9   1   64.70    4.80
   9  -9   1   51.70    7.14
 -10   9  -1   38.32    3.13
  10  -9   1   45.38    6.48
 -11   9  -1   86.80    6.60
  11  -9   1   94.16   10.15
 -12   9  -1   -0.16    0.39
  12  -9   1   -0.53    1.73
  11   8  -1   47.17    3.58
 -11  -8   1   43.39    5.18
 -11  -8   1   35.58    5.36
 -11  -8   1   46.88    3.60
  10   8  -1   31.66    2.52
  10   8  -1   31.07    4.58
 -10  -8   1   30.62    4.06
 -10  -8   1   23.71    4.19
 -10  -8   1   28.97    2.48
   9   8  -1  182.00   14.62
  -9  -8   1  147.82   14.10
  -9  -8   1  168.07   12.09
  -9  -8   1  178.50   14.05
   8   8  -1   53.15    4.14
   8   8  -1   63.03    6.47
  -8  -8   1   51.26    6.10
  -8  -8   1   50.85    5.60
  -8  -8   1   57.19    4.17
   7   8  -1  107.83    9.84
   7   8  -1  108.66    7.68
  -7  -8   1  102.92    7.66
  -7  -8   1  105.45    9.92
  -7  -8   1  104.47    9.24
   6   8  -1  132.26    9.54
   6   8  -1  141.83   11.68
  -6  -8   1  128.66   11.01
  -6  -8   1  123.73   11.71
  -6  -8   1  139.24    9.55
   5   8  -1    5.81    0.63
   5   8  -1    4.32    1.78
  -5  -8   1    5.00    1.60
  -5  -8   1    5.13    0.63
   4   8  -1  346.35   25.15
  -4  -8   1  347.90   23.15
  -4  -8   1  292.33   25.30
   3   8  -1  386.56   27.62
   3   8  -1  364.54   25.69
  -3  -8   1  350.26   28.00
   2   8  -1   17.78    1.32
   2   8  -1   17.41    2.77
  -2  -8   1   19.07    3.20
  -2  -8   1   17.24    1.33
   1   8  -1  127.84   10.85
   1   8  -1  133.23    9.25
  -1  -8   1  133.00    9.26
   0   8  -1  184.17   13.29
   0  -8   1  150.34   13.85
  -1   8  -1    0.57    0.79
   1  -8   1    1.19    1.31
  -2   8  -1  174.22   13.39
   2  -8   1  170.93   14.67
  -3   8  -1   65.12    6.04
  -3   8  -1   76.16    4.95
   3  -8   1   61.48    7.24
  -4   8  -1   93.35    6.41
  -4   8  -1   85.38    7.46
   4  -8   1   90.48   10.08
  -5   8  -1  299.37   22.89
  -5   8  -1  336.25   21.89
   5  -8   1  293.74   24.67
  -6   8  -1  192.37   14.91
  -6   8  -1  205.29   14.00
   6  -8   1  194.10   16.88
  -7   8  -1    8.43    0.87
  -7   8  -1    9.97    1.61
   7  -8   1    9.17    2.95
  -8   8  -1   49.55    4.38
  -8   8  -1   47.67    3.80
   8  -8   1   57.74    4.39
   8  -8   1   48.00    6.36
  -9   8  -1   14.27    1.57
   9  -8   1   19.26    1.80
   9  -8   1   18.37    4.29
 -10   8  -1  105.40    7.93
  10  -8   1  114.59   11.22
 -11   8  -1   61.93    4.82
  11  -8   1   65.50    7.93
 -12   8  -1    0.68    0.50
  12  -8   1    1.93    2.16
 -13   8  -1   58.61    4.96
  13  -8   1   73.35    8.54
  11   7  -1   42.68    3.62
  11   7  -1   46.94    4.96
 -11  -7   1   47.01    3.68
 -11  -7   1   44.77    5.48
  10   7  -1   26.57    2.22
  10   7  -1   26.95    3.33
 -10  -7   1   24.84    2.22
 -10  -7   1   21.94    3.43
 -10  -7   1   23.56    3.70
   9   7  -1  160.61   13.35
   9   7  -1  149.13   11.20
  -9  -7   1  164.47   12.93
  -9  -7   1  151.41   13.19
  -9  -7   1  153.86   11.20
   8   7  -1   40.16    4.88
   8   7  -1   38.89    3.05
  -8  -7   1   36.67    4.33
  -8  -7   1   39.96    3.06
  -8  -7   1   37.48    4.70
   7   7  -1  137.62   10.33
   7   7  -1  143.80   12.27
  -7  -7   1  150.04   12.40
  -7  -7   1  147.21   10.35
  -7  -7   1  142.62   11.76
   6   7  -1  239.10   18.26
   6   7  -1  235.07   16.31
  -6  -7   1  227.92   16.30
  -6  -7   1  219.40   17.60
  -6  -7   1  230.02   18.32
   5   7  -1   40.16    2.97
   5   7  -1   45.11    4.63
  -5  -7   1   39.17    4.74
  -5  -7   1   35.11    4.05
   4   7  -1   77.82    5.74
   4   7  -1   90.04    8.22
  -4  -7   1   77.06    7.57
   3   7  -1    5.29    0.51
   3   7  -1    4.15    1.42
  -3  -7   1    5.41    1.79
   2   7  -1   13.79    2.15
   2   7  -1   12.75    1.01
  -2  -7   1   11.82    2.42
  -2  -7   1   13.36    1.03
   1   7  -1  472.48   33.11
   1   7  -1  459.22   31.65
  -1  -7   1  403.68   33.51
  -1  -7   1  473.41   31.67
   0   7  -1   83.61    7.87
   0  -7   1  104.47    6.80
  -1   7  -1   96.34    7.55
  -1   7  -1   94.27    6.29
   1  -7   1   75.46    8.11
  -2   7  -1   70.60    5.05
  -2   7  -1   80.85    5.07
  -2   7  -1   70.29    6.12
   2  -7   1   58.63    6.88
  -3   7  -1   14.50    1.09
  -3   7  -1   12.51    1.90
  -3   7  -1   15.41    1.11
   3  -7   1   13.57    2.86
  -4   7  -1  169.69   11.12
  -4   7  -1  154.02   12.01
   4  -7   1  144.06   13.34
  -5   7  -1  158.57   11.47
   5  -7   1  138.81   12.89
  -6   7  -1   12.15    1.03
  -6   7  -1   10.41    1.60
   6  -7   1   12.22    2.94
  -7   7  -1  212.92   15.17
   7  -7   1  216.08   17.84
  -8   7  -1  119.94    8.78
  -8   7  -1  108.88    9.10
   8  -7   1  117.15   11.28
   8  -7   1  140.98    9.14
  -9   7  -1    4.84    0.79
   9  -7   1    4.92    2.30
   9  -7   1    4.80    0.66
 -10   7  -1   99.16    7.47
  10  -7   1  106.27   10.30
 -11   7  -1   53.96    4.19
  11  -7   1   52.92    7.06
 -12   7  -1   68.06    5.21
  12  -7   1   65.76    7.86
 -13   7  -1  130.81    9.61
  13  -7   1  126.70   12.77
  12   6  -1   84.72    6.48
 -12  -6   1   85.77    6.51
 -12  -6   1   80.37    7.64
 -12  -6   1   90.80    9.66
  11   6  -1    8.52    2.11
 -11  -6   1    6.08    1.75
 -11  -6   1    6.86    1.08
 -11  -6   1    8.07    2.29
  10   6  -1   52.37    5.29
  10   6  -1   51.76    4.14
 -10  -6   1   52.80    5.49
 -10  -6   1   54.43    4.16
 -10  -6   1   54.12    5.84
   9   6  -1  136.84    9.88
   9   6  -1  131.91   10.99
   9   6  -1  132.70   11.58
  -9  -6   1  146.31   11.36
  -9  -6   1  128.99    9.86
  -9  -6   1  141.34   11.67
   8   6  -1   21.19    1.87
   8   6  -1   20.26    2.73
   8   6  -1   25.09    3.44
  -8  -6   1   19.42    2.87
  -8  -6   1   22.32    1.85
  -8  -6   1   21.71    3.29
   7   6  -1  296.76   21.32
   7   6  -1  286.19   21.88
   7   6  -1  270.62   20.19
  -7  -6   1  280.78   20.20
  -7  -6   1  303.19   22.02
  -7  -6   1  276.47   21.42
   6   6  -1  171.02   13.73
   6   6  -1  174.63   12.80
  -6  -6   1  196.82   14.64
   5   6  -1    4.92    0.57
   5   6  -1    4.89    1.58
  -5  -6   1    5.63    1.75
  -5  -6   1    4.00    1.29
   4   6  -1  125.40   10.06
   4   6  -1  114.46    8.56
  -4  -6   1  124.02   10.24
   3   6  -1   35.04    2.69
   3   6  -1   39.50    3.95
  -3  -6   1   37.88    4.17
   2   6  -1  212.18   14.81
   2   6  -1  184.44   13.39
  -2  -6   1  185.11   13.40
  -2  -6   1  185.63   15.00
   1   6  -1  341.38   23.83
   1   6  -1  355.00   25.08
  -1  -6   1  325.98   25.49
   0   6  -1   14.77    1.11
   0   6  -1   15.37    2.07
   0  -6   1   11.69    2.28
   0  -6   1   16.96    1.14
  -1   6  -1  228.23   15.20
  -1   6  -1  203.74   16.15
  -2   6  -1  372.08   26.14
  -2   6  -1  370.87   25.17
   2  -6   1  335.07   27.06
  -3   6  -1    0.03    0.08
  -3   6  -1    0.36    0.14
  -3   6  -1    0.83    0.61
   3  -6   1    0.01    0.84
  -4   6  -1  161.54   11.71
  -4   6  -1  171.09   10.98
   4  -6   1  128.05   12.66
  -5   6  -1  130.49    9.46
   5  -6   1  115.02   10.67
  -6   6  -1   29.64    2.76
  -6   6  -1   30.08    2.28
   6  -6   1   29.76    4.12
  -7   6  -1  455.15   31.39
  -7   6  -1  480.98   31.02
   7  -6   1  376.67   34.22
  -8   6  -1  220.03   16.25
   8  -6   1  241.13   16.33
   8  -6   1  224.98   18.68
   9  -6   1    2.82    1.77
 -10   6  -1   95.73    7.08
  10  -6   1   96.00    9.57
 -11   6  -1   13.40    1.42
  11  -6   1   13.94    3.48
 -12   6  -1   55.87    4.48
  12  -6   1   57.34    7.02
 -13   6  -1   88.09    6.83
  13  -6   1   90.07    9.63
 -14   6  -1    2.27    0.77
  14  -6   1    2.42    2.20
  12   5  -1   76.78    7.12
  12   5  -1   83.35    6.06
 -12  -5   1   64.10    6.76
 -12  -5   1   80.77    6.05
 -12  -5   1   87.88    8.13
  11   5  -1    0.24    0.81
  11   5  -1    1.44    0.60
 -11  -5   1   -0.06    0.95
 -11  -5   1    0.91    0.49
 -11  -5   1    1.04    1.28
  10   5  -1  186.53   14.38
  10   5  -1  174.39   13.24
 -10  -5   1  167.59   14.31
 -10  -5   1  182.78   13.26
 -10  -5   1  208.49   15.20
   9   5  -1  140.94   11.31
   9   5  -1  134.55   10.26
   9   5  -1  131.55   11.62
  -9  -5   1  141.07   10.28
  -9  -5   1  146.73   11.47
  -9  -5   1  155.99   11.94
   8   5  -1   46.84    4.42
   8   5  -1   41.00    3.41
  -8  -5   1   44.07    3.43
  -8  -5   1   45.31    4.75
   7   5  -1  460.94   34.91
   7   5  -1  444.82   33.50
   7   5  -1  482.07   34.48
  -7  -5   1  537.97   35.17
  -7  -5   1  456.95   34.54
   6   5  -1   55.19    4.78
   6   5  -1   54.17    5.27
   6   5  -1   48.99    3.93
  -6  -5   1   61.29    5.38
  -6  -5   1   47.05    4.76
   5   5  -1   34.71    3.32
   5   5  -1   36.35    3.86
   5   5  -1   30.68    2.59
  -5  -5   1   30.67    3.36
  -5  -5   1   43.19    4.04
   4   5  -1  333.37   24.76
   4   5  -1  295.71   23.51
  -4  -5   1  380.58   25.12
   3   5  -1    3.77    0.44
   3   5  -1    5.90    1.39
  -3  -5   1    5.74    1.51
   2   5  -1  515.41   35.26
  -2  -5   1  457.85   34.11
  -2  -5   1  492.71   35.50
   1   5  -1  451.67   31.32
  -1  -5   1  414.63   31.62
   0   5  -1   58.47    3.90
   0   5  -1   52.74    4.73
   0  -5   1   59.18    3.91
   0  -5   1   45.17    5.06
  -1   5  -1  220.15   14.44
  -1   5  -1  189.66   15.20
  -2   5  -1  168.94   11.73
  -2   5  -1  165.38   11.73
  -3   5  -1   67.30    4.18
  -3   5  -1   56.79    4.76
  -3   5  -1   58.01    4.15
   3  -5   1   45.83    5.43
  -4   5  -1  680.33   43.55
   4  -5   1  545.08   44.49
  -5   5  -1   28.57    2.54
  -5   5  -1   30.31    2.15
   5  -5   1   23.87    3.37
  -6   5  -1   23.96    2.12
  -6   5  -1   22.87    1.80
   6  -5   1   21.71    3.27
  -7   5  -1  413.55   32.57
  -7   5  -1  458.49   32.48
   7  -5   1  448.48   34.50
   7  -5   1  527.07   32.59
  -8   5  -1   36.17    2.82
   8  -5   1   36.54    4.67
   9  -5   1   31.34    4.43
 -10   5  -1  236.58   17.02
  10  -5   1  240.43   19.51
 -11   5  -1    1.58    0.52
  11  -5   1    1.31    1.63
 -12   5  -1   86.98    6.79
  12  -5   1   93.26    9.41
 -13   5  -1  145.71   10.89
  13  -5   1  149.44   13.74
 -14   5  -1    1.66    0.71
  14  -5   1    0.73    1.78
  13   4  -1   58.55    4.96
  13   4  -1   63.25    6.14
 -13  -4   1   65.15    5.02
  12   4  -1   47.82    4.85
  12   4  -1   48.48    3.78
 -12  -4   1   35.26    4.24
 -12  -4   1   51.53    3.85
  11   4  -1    6.71    1.78
  11   4  -1    9.05    1.18
 -11  -4   1    6.73    1.61
 -11  -4   1    9.81    1.22
  10   4  -1  153.42   11.38
  10   4  -1  158.06   12.40
 -10  -4   1  158.70   11.39
   9   4  -1   34.35    2.78
  -9  -4   1   35.72    2.80
  -9  -4   1   31.13    3.54
   8   4  -1  136.73   10.01
   8   4  -1  127.30    9.03
   8   4  -1  117.68   10.07
  -8  -4   1  113.66    9.79
   7   4  -1  350.40   29.09
   7   4  -1  389.36   28.10
   7   4  -1  452.80   29.10
  -7  -4   1  399.76   28.97
   6   4  -1   33.38    3.11
   6   4  -1   27.62    3.30
   6   4  -1   28.10    2.38
  -6  -4   1   26.51    3.01
  -6  -4   1   37.95    3.54
   5   4  -1  130.90   10.25
   5   4  -1  141.88    9.93
   5   4  -1  121.52    9.18
  -5  -4   1  120.63    9.87
   4   4  -1  515.17   39.80
   4   4  -1  522.22   39.43
  -4  -4   1  627.94   40.13
   3   4  -1    0.39    0.18
   3   4  -1    0.32    0.58
  -3  -4   1    1.39    0.80
   2   4  -1  559.77   40.04
   1   4  -1   76.62    5.34
   1   4  -1   76.49    6.16
  -1  -4   1   71.25    6.33
  -1  -4   1   77.08    5.35
   0   4  -1  104.66    8.14
   0   4  -1  113.47    7.42
   0  -4   1   91.96    8.44
   0  -4   1  108.97    7.42
  -2   4  -1  639.76   41.17
   2  -4   1  519.88   41.71
  -3   4  -1   37.60    3.43
  -3   4  -1   36.91    3.00
  -3   4  -1   44.22    3.03
   3  -4   1   47.93    3.04
  -4   4  -1  270.34   17.31
  -4   4  -1  251.68   17.67
   4  -4   1  212.97   18.51
  -5   4  -1    0.77    0.23
  -5   4  -1    0.17    0.25
   5  -4   1    1.28    0.39
   5  -4   1    0.04    0.66
  -6   4  -1  158.66   10.42
  -6   4  -1  138.99   10.49
   6  -4   1  140.68   11.94
  -7   4  -1  243.42   17.05
   7  -4   1  238.32   18.84
  -8   4  -1   15.31    1.35
   8  -4   1   14.44    2.61
   9  -4   1  140.14   12.17
 -10   4  -1  106.04    7.48
  10  -4   1   94.79    9.44
 -11   4  -1   21.35    1.93
  11  -4   1   18.55    3.58
 -12   4  -1   72.18    5.62
  12  -4   1   73.66    8.04
 -13   4  -1   91.37    7.06
  13  -4   1   93.42    9.56
 -14   4  -1   38.60    3.40
  14  -4   1   37.80    5.40
  13   3  -1  139.24   12.65
  13   3  -1  165.04   11.45
 -13  -3   1  159.64   11.43
  12   3  -1   40.55    4.38
  12   3  -1   39.17    3.34
 -12  -3   1   42.80    3.39
 -12  -3   1   35.56    3.73
  11   3  -1   79.22    6.82
  11   3  -1   77.45    5.80
 -11  -3   1   61.25    6.19
 -11  -3   1   85.75    5.85
  10   3  -1  187.25   14.04
  10   3  -1  185.18   13.03
 -10  -3   1  191.45   13.05
 -10  -3   1  156.80   13.55
   9   3  -1    4.10    0.68
   9   3  -1    3.26    1.10
  -9  -3   1    2.80    0.63
  -9  -3   1    3.35    0.99
   8   3  -1  342.05   23.05
  -8  -3   1  281.29   22.69
   7   3  -1  282.52   19.12
   7   3  -1  234.40   19.03
   7   3  -1  268.05   18.27
  -7  -3   1  243.31   18.87
   6   3  -1   61.38    4.78
   6   3  -1   56.25    4.06
   6   3  -1   51.64    4.81
  -6  -3   1   47.26    4.54
   5   3  -1  524.90   36.56
  -5  -3   1  492.99   36.26
   4   3  -1  528.21   36.97
  -4  -3   1  503.93   36.69
   3   3  -1    4.52    0.47
   3   3  -1    4.94    0.79
   2   3  -1  351.20   28.90
  -2  -3   1  457.24   29.21
   1   3  -1    7.38    0.54
   1   3  -1    7.34    1.04
  -1  -3   1    6.03    0.53
  -1  -3   1    6.49    1.10
  -1  -3   1    6.05    0.81
   0   3  -1    6.07    0.94
   0   3  -1    7.78    1.16
   0   3  -1    6.95    0.52
   0  -3   1    6.25    0.52
   0  -3   1    6.22    1.10
  -1   3  -1  477.66   34.22
  -2   3  -1   90.42    6.66
  -2   3  -1   94.36    6.67
  -2   3  -1   78.44    6.98
   2  -3   1  106.68    7.06
   2  -3   1  102.69    6.68
   3  -3   1  504.51   36.35
  -4   3  -1  276.39   18.38
   4  -3   1  239.49   19.25
  -5   3  -1   11.69    1.08
  -5   3  -1   13.94    1.05
   5  -3   1   12.89    1.06
   5  -3   1   11.21    1.89
  -6   3  -1  200.70   13.70
   6  -3   1  189.78   15.11
   6  -3   1  189.24   13.70
  -7   3  -1  191.48   12.96
   7  -3   1  176.93   12.95
   7  -3   1  177.16   14.48
  -8   3  -1   21.85    1.73
   8  -3   1   18.91    1.71
   8  -3   1   20.00    3.10
   9  -3   1  262.00   20.77
 -10   3  -1    8.78    1.00
  10  -3   1    6.46    0.96
  10  -3   1    6.42    2.06
 -11   3  -1   69.25    5.27
  11  -3   1   65.67    5.21
  11  -3   1   71.22    7.23
 -12   3  -1  247.34   18.15
  12  -3   1  258.28   20.58
 -13   3  -1    2.48    0.72
 -14   3  -1   38.69    3.50
  14  -3   1   42.14    5.80
 -15   3  -1  156.97   12.10
  15  -3   1  169.11   14.95
  14   2  -1    8.28    1.30
  14   2  -1    7.44    2.01
 -14  -2   1    7.65    1.26
  13   2  -1   91.83    7.21
  13   2  -1   94.04    8.44
 -13  -2   1   96.27    7.23
  12   2  -1    1.14    0.51
  12   2  -1   -0.46    0.69
 -12  -2   1    0.75    0.49
 -12  -2   1    0.42    0.65
  11   2  -1   94.04    7.97
  11   2  -1  101.36    6.97
 -11  -2   1   97.50    6.95
 -11  -2   1   76.70    7.17
  10   2  -1  180.76   13.49
  10   2  -1  179.36   12.49
 -10  -2   1  187.45   12.51
 -10  -2   1  143.38   12.78
   9   2  -1    6.58    1.57
   9   2  -1    6.76    0.92
  -9  -2   1    5.81    0.87
  -9  -2   1    5.92    1.22
   8   2  -1  176.45   12.32
   8   2  -1  177.67   13.14
  -8  -2   1  160.60   12.76
   7   2  -1  253.60   18.16
   7   2  -1  250.17   17.42
  -7  -2   1  232.59   17.87
   6   2  -1   15.38    1.36
   6   2  -1   18.34    1.96
   6   2  -1   15.32    1.90
  -6  -2   1   15.80    1.76
   5   2  -1  648.36   45.68
  -5  -2   1  627.76   45.39
   4   2  -1   53.23    4.55
   4   2  -1   61.53    4.50
  -4  -2   1   49.50    4.35
   3   2  -1  283.25   18.35
   3   2  -1  236.29   18.43
  -3  -2   1  223.19   18.26
  -3  -2   1  276.95   18.42
   1   2  -1   40.51    3.49
   1   2  -1   42.70    3.07
  -1  -2   1   48.11    3.35
  -1  -2   1   41.38    3.07
  -1  -2   1   39.19    3.42
  -1  -2   1   45.69    3.58
   0   2  -1  262.35   18.52
   0   2  -1  277.19   18.71
   0  -2   1  228.62   18.64
   0  -2   1  268.51   18.48
  -2   2  -1   10.54    0.86
  -2   2  -1    9.85    1.05
  -2   2  -1   11.81    0.87
   2  -2   1   11.61    1.08
   2  -2   1   12.41    0.87
  -4   2  -1   82.70    5.39
   4  -2   1   66.37    6.18
   4  -2   1   75.09    5.38
   5  -2   1  537.90   38.83
   6  -2   1  605.05   43.69
  -7   2  -1  206.56   14.30
   7  -2   1  211.17   15.77
   7  -2   1  187.84   14.28
  -8   2  -1   27.93    2.22
   8  -2   1   31.18    3.56
   8  -2   1   24.54    2.18
   9  -2   1  482.02   35.70
 -10   2  -1   30.63    2.54
  10  -2   1   25.83    2.47
  10  -2   1   36.57    4.18
 -11   2  -1   46.73    3.86
  11  -2   1   45.59    3.80
  11  -2   1   54.62    5.67
 -12   2  -1  142.65   10.67
  12  -2   1  138.90   10.63
  12  -2   1  155.93   12.88
 -13   2  -1    6.27    1.06
  13  -2   1    7.96    2.52
 -14   2  -1   75.96    6.00
  14  -2   1   76.39    8.26
 -15   2  -1  152.02   12.02
  15  -2   1  173.36   14.83
  14   1  -1  100.37    9.06
  14   1  -1  101.74    7.59
 -14  -1   1   92.20    7.52
  13   1  -1  166.77   13.75
  13   1  -1  167.36   12.37
 -13  -1   1  169.47   12.37
  12   1  -1    0.48    0.99
  12   1  -1   -0.25    0.62
 -12  -1   1   -0.11    0.51
 -12  -1   1   -0.06    0.52
  11   1  -1  166.41   14.20
  11   1  -1  189.59   13.20
 -11  -1   1  189.47   13.20
  10   1  -1   61.74    4.56
  10   1  -1   58.30    5.47
 -10  -1   1   61.81    4.58
 -10  -1   1   53.39    4.75
   9   1  -1   48.97    4.69
   9   1  -1   48.50    3.85
  -9  -1   1   47.00    4.15
  -9  -1   1   54.89    3.90
   8   1  -1  192.05   14.37
   8   1  -1  188.60   13.54
  -8  -1   1  187.15   13.88
   7   1  -1  229.86   15.57
   7   1  -1  223.55   16.28
  -7  -1   1  203.54   15.86
   6   1  -1    4.62    1.03
   6   1  -1    5.43    0.59
  -6  -1   1    5.05    0.93
   4   1  -1   31.03    3.00
   4   1  -1   41.31    3.15
   4   1  -1   38.79    2.69
  -4  -1   1   33.13    2.97
  -4  -1   1   35.47    2.95
   3   1  -1  141.99   10.94
   3   1  -1  151.23   10.59
  -3  -1   1  147.11   10.85
  -3  -1   1  166.07   11.07
  -3  -1   1  143.68   10.89
   0   1  -1  155.98   10.61
   0   1  -1  141.16   10.55
   0  -1   1  131.88   10.57
   0  -1   1  144.58   10.54
   0  -1   1  163.40   10.52
  -2   1  -1   75.82    4.75
  -2   1  -1   67.75    4.74
   2  -1   1   66.73    4.80
   2  -1   1   56.35    5.15
  -4   1  -1   78.18    5.07
   4  -1   1   65.69    5.05
   4  -1   1   67.59    5.77
  -5   1  -1   85.66    5.87
   5  -1   1   84.23    6.78
   5  -1   1   75.60    5.85
  -7   1  -1   61.03    4.30
   7  -1   1   53.59    4.26
   7  -1   1   58.97    5.36
  -8   1  -1  154.45   10.69
   8  -1   1  136.03   10.64
   8  -1   1  157.08   12.04
   9  -1   1  243.12   18.79
 -10   1  -1    1.53    0.50
  10  -1   1    1.70    1.21
  10  -1   1    1.78    0.51
 -11   1  -1  263.82   18.61
  11  -1   1  236.31   18.53
  11  -1   1  281.08   20.54
 -12   1  -1   98.07    7.49
  12  -1   1  104.01    9.33
  12  -1   1   96.62    7.45
 -13   1  -1    0.95    0.55
  13  -1   1   -0.65    1.19
 -14   1  -1  103.89    8.20
  14  -1   1  111.67   10.41
 -15   1  -1   12.90    1.88
  15  -1   1   22.07    3.93
  14   0  -1   58.86    4.97
  14   0  -1   60.52    6.56
 -14   0   1   63.43    4.99
  13   0  -1   12.20    2.67
  13   0  -1    7.69    1.26
 -13   0   1    8.05    1.30
  12   0  -1   28.89    3.69
  11   0  -1  241.21   19.32
  11   0  -1  257.27   18.09
 -11   0   1  257.25   18.10
  10   0  -1    2.08    1.24
  10   0  -1    2.78    0.65
 -10   0   1    1.39    0.57
 -10   0   1    1.59    0.56
   9   0  -1  130.56   10.45
   9   0  -1  128.94    9.43
  -9   0   1  114.36    9.53
  -9   0   1  147.40    9.49
   8   0  -1  382.27   24.77
   8   0  -1  353.00   25.67
  -8   0   1  316.05   24.88
   7   0  -1   66.53    5.74
   7   0  -1   69.17    5.02
  -7   0   1   67.70    5.21
   6   0  -1  184.91   13.57
   6   0  -1  193.67   12.91
  -6   0   1  179.54   13.09
  -6   0   1  168.11   13.11
   5   0  -1   58.63    4.66
   5   0  -1   54.18    4.09
  -5   0   1   56.24    4.30
  -5   0   1   54.78    4.33
   4   0  -1  122.93    8.89
   4   0  -1  121.97    8.43
  -4   0   1  116.18    9.31
  -4   0   1  112.55    8.64
  -4   0   1  118.91    8.61
   2   0  -1  120.44    8.19
   2   0  -1  124.59    8.04
   2   0  -1  115.98    8.24
  -2   0   1  116.97    8.19
  -2   0   1  102.16    8.20
  -2   0   1  103.08    8.27
  -2   0   1  113.88    8.02
  -4   0  -1  106.02    7.12
  -4   0  -1  106.10    7.15
   4   0   1   93.64    7.13
   4   0   1   95.33    7.69
  -5   0  -1  136.88    9.34
  -5   0  -1  132.84    9.34
  -5   0  -1  138.02    9.36
   5   0   1  122.23    9.34
   5   0   1  127.19   10.38
  -6   0  -1  507.01   33.95
  -6   0  -1  465.12   33.93
   6   0   1  479.51   34.83
  -7   0  -1    4.12    0.54
  -7   0  -1    2.24    0.39
  -7   0  -1    2.31    0.37
   7   0   1    2.03    0.82
   7   0   1    2.10    0.41
  -8   0  -1  235.30   19.48
  -8   0  -1  289.60   19.62
  -8   0  -1  298.79   19.55
   8   0   1  272.33   19.59
   8   0   1  290.47   20.80
  -9   0  -1  323.23   23.61
  -9   0  -1  352.75   23.95
   9   0   1  340.92   25.07
   9   0   1  327.83   23.91
 -10   0  -1    0.08    0.12
 -10   0  -1    0.16    0.11
 -10   0  -1    0.49    0.33
  10   0   1   -0.03    0.91
  10   0   1    0.14    0.25
 -11   0  -1  182.86   13.56
  11   0   1  192.75   15.16
  11   0   1  187.32   13.54
 -12   0  -1   55.25    4.09
  12   0   1   45.86    3.97
  12   0   1   49.70    5.49
 -13   0  -1   22.27    2.14
  13   0   1   24.35    3.66
  13   0   1   20.51    2.08
 -14   0  -1  174.90   13.62
  14   0   1  197.65   15.84
 -15   0  -1   11.43    1.67
  15   0   1   11.73    2.93
  14  -1  -1  119.90   10.75
  14  -1  -1  120.10    8.84
 -14   1   1  109.67    8.78
  13  -1  -1   50.61    4.12
  13  -1  -1   50.42    5.69
 -13   1   1   48.21    4.11
  12  -1  -1   47.96    4.06
  12  -1  -1   53.31    5.59
 -12   1   1   49.08    4.07
  11  -1  -1  102.80    7.67
  11  -1  -1   98.50    9.05
 -11   1   1  106.62    7.70
  10  -1  -1   50.24    5.09
  10  -1  -1   47.42    3.83
 -10   1   1   45.69    3.79
 -10   1   1   54.27    3.89
   9  -1  -1  347.60   24.89
   9  -1  -1  349.42   26.12
  -9   1   1  335.41   24.93
  -9   1   1  374.35   24.93
   8  -1  -1  382.65   25.13
   8  -1  -1  388.89   26.35
  -8   1   1  353.76   25.23
  -8   1   1  300.90   25.09
   7  -1  -1   41.26    2.97
   7  -1  -1   41.27    3.86
  -7   1   1   38.64    3.08
  -7   1   1   34.02    2.97
   6  -1  -1  563.42   35.61
  -6   1   1  460.54   34.72
  -6   1   1  457.59   34.65
   5  -1  -1  217.18   14.59
   5  -1  -1  209.66   15.14
   5  -1  -1  207.24   14.39
  -5   1   1  191.07   14.45
  -5   1   1  193.58   14.55
   4  -1  -1   61.25    5.02
   4  -1  -1   60.84    4.44
   4  -1  -1   71.34    4.57
  -4   1   1   55.90    4.57
  -4   1   1   58.18    4.50
   3  -1  -1  238.13   16.61
   3  -1  -1  259.02   16.21
  -3   1   1  211.17   16.15
  -3   1   1  231.26   16.08
  -3   1   1  205.53   16.59
   2  -1  -1  190.53   12.77
  -2   1   1  160.88   12.71
   1  -1  -1   89.01    5.99
   1  -1  -1   87.56    5.90
  -1   1   1   75.16    5.96
  -1  -1  -1   22.92    1.80
  -1  -1  -1   24.11    1.71
  -1  -1  -1   22.19    1.86
   1   1   1   23.94    1.71
   1   1   1   23.84    1.88
   1   1   1   26.27    1.82
  -2  -1  -1   10.82    0.90
  -2  -1  -1    9.33    0.75
  -2  -1  -1   10.35    0.76
  -2  -1  -1   11.88    1.11
   2   1   1   10.52    0.92
   2   1   1    9.23    0.76
   2   1   1    9.12    1.03
   2   1   1    8.27    0.75
  -3  -1  -1   41.55    3.51
  -3  -1  -1   48.70    3.20
  -3  -1  -1   36.30    3.03
  -3  -1  -1   42.10    3.05
   3   1   1   40.92    3.45
   3   1   1   38.25    3.04
   3   1   1   48.97    3.26
  -4  -1  -1   36.79    2.65
  -4  -1  -1   41.95    2.82
   4   1   1   30.21    2.62
   4   1   1   37.20    2.85
   4   1   1   34.19    3.13
  -6  -1  -1  360.15   26.51
  -6  -1  -1  432.86   26.59
  -6  -1  -1  388.46   26.40
   6   1   1  374.11   27.15
   6   1   1  321.16   26.54
  -7  -1  -1   29.63    2.60
  -7  -1  -1   35.93    2.68
  -7  -1  -1   35.43    2.53
   7   1   1   29.73    2.65
   7   1   1   31.68    3.25
   7   1   1   31.28    2.48
  -8  -1  -1  262.29   20.45
  -8  -1  -1  319.44   20.56
  -8  -1  -1  299.05   20.39
   8   1   1  283.86   21.36
   8   1   1  274.04   20.35
  -9  -1  -1   49.48    3.72
  -9  -1  -1   40.48    3.58
  -9  -1  -1   49.09    3.61
   9   1   1   48.13    4.57
   9   1   1   43.40    3.55
 -10  -1  -1   43.45    3.24
 -10  -1  -1   37.62    3.18
  10   1   1   39.34    4.27
  10   1   1   39.48    3.19
 -11  -1  -1  197.53   13.58
  11   1   1  182.36   14.89
  11   1   1  182.13   13.52
 -12  -1  -1   38.61    3.23
  12   1   1   37.53    3.19
  12   1   1   38.36    4.48
 -13  -1  -1  114.96    8.57
  13   1   1  106.89    8.50
  13   1   1  119.58   10.26
 -14  -1  -1   98.45    7.74
  14   1   1  103.91    9.55
  14  -2  -1  148.92   12.43
  14  -2  -1  127.84   10.00
 -14   2   1  126.10   10.00
  13  -2  -1   10.58    2.89
  13  -2  -1   10.62    1.43
 -13   2   1   11.22    1.35
  12  -2  -1  125.60   11.18
  12  -2  -1  129.03    9.41
 -12   2   1  124.89    9.39
  11  -2  -1  168.61   13.69
  11  -2  -1  155.33   11.90
 -11   2   1  168.07   11.94
  10  -2  -1   40.05    4.49
  10  -2  -1   41.02    3.21
 -10   2   1   36.87    3.17
   9  -2  -1  271.55   18.71
   9  -2  -1  272.37   20.24
  -9   2   1  222.11   18.48
  -9   2   1  292.43   18.76
  -9   2   1  262.16   18.56
   8  -2  -1  156.30   11.20
   8  -2  -1  166.29   12.62
  -8   2   1  147.64   11.17
   7  -2  -1  178.76   11.89
   7  -2  -1  185.74   13.20
  -7   2   1  159.63   11.89
  -7   2   1  146.28   11.79
   6  -2  -1  283.67   20.36
   6  -2  -1  281.41   19.21
   6  -2  -1  285.84   19.24
  -6   2   1  239.25   19.25
   5  -2  -1  355.55   26.29
   5  -2  -1  390.06   25.39
   5  -2  -1  390.39   25.33
  -5   2   1  306.41   25.29
   4  -2  -1   56.91    4.93
   4  -2  -1   58.03    4.13
   4  -2  -1   64.38    4.23
  -4   2   1   49.41    4.13
   2  -2  -1    6.79    1.09
   2  -2  -1    8.86    0.69
   2  -2  -1   10.48    0.85
  -2   2   1    9.48    0.80
  -2   2   1    7.00    1.07
   1  -2  -1   60.65    4.49
  -1   2   1   66.31    4.65
  -1   2   1   64.62    4.50
  -1  -2  -1  118.32    7.61
  -1  -2  -1  101.91    7.62
  -1  -2  -1  103.78    7.34
   1   2   1  108.40    7.58
   1   2   1   99.06    7.61
   1   2   1   97.35    7.33
  -2  -2  -1   62.29    4.81
  -2  -2  -1   62.58    4.46
   2   2   1   67.70    4.76
   2   2   1   57.53    4.45
   2   2   1   65.51    4.83
  -4  -2  -1   34.63    2.78
  -4  -2  -1   38.47    2.53
   4   2   1   33.13    3.02
   4   2   1   34.07    2.88
   4   2   1   29.76    2.48
  -5  -2  -1  481.97   32.38
   5   2   1  431.92   32.44
  -6  -2  -1  379.46   25.84
   6   2   1  344.36   26.22
   6   2   1  377.62   26.62
  -7  -2  -1   41.42    3.51
  -7  -2  -1   46.48    3.26
   7   2   1   43.21    3.23
   7   2   1   40.20    3.62
   7   2   1   41.62    3.98
  -8  -2  -1  157.75   12.48
  -8  -2  -1  190.14   12.27
   8   2   1  172.04   13.16
   8   2   1  182.17   12.24
   8   2   1  153.46   12.55
  -9  -2  -1    3.37    0.64
   9   2   1    3.79    0.66
   9   2   1    4.16    1.34
 -10  -2  -1  187.41   13.11
  10   2   1  177.72   14.21
  10   2   1  179.88   13.08
 -11  -2  -1  241.32   16.45
 -11  -2  -1  206.61   16.95
  11   2   1  227.19   16.40
  11   2   1  239.06   17.76
 -12  -2  -1   13.85    1.51
  12   2   1   13.40    2.42
  12   2   1   10.16    1.41
 -13  -2  -1  157.28   11.42
  13   2   1  156.21   12.94
  13   2   1  149.77   11.36
 -14  -2  -1  111.94    8.56
  14   2   1  113.74   10.21
  14  -3  -1  107.78    8.60
  14  -3  -1  122.91   11.08
 -14   3   1  111.64    8.62
  13  -3  -1    2.70    0.81
  13  -3  -1   -0.34    1.33
 -13   3   1    2.26    0.75
  12  -3  -1  180.96   14.40
  12  -3  -1  157.36   12.14
 -12   3   1  162.84   12.17
  11  -3  -1  112.69    8.97
  11  -3  -1  133.23   11.10
 -11   3   1  121.99    9.01
  10  -3  -1   44.99    5.32
  10  -3  -1   47.80    3.82
 -10   3   1   52.04    3.86
   9  -3  -1  288.71   20.64
   9  -3  -1  275.78   22.27
  -9   3   1  306.13   20.67
   8  -3  -1   97.71    6.99
   8  -3  -1   97.17    8.52
  -8   3   1  109.26    7.04
  -8   3   1   82.98    6.81
   7  -3  -1  101.30    7.16
   7  -3  -1  103.86    7.10
   7  -3  -1  103.09    8.60
  -7   3   1   83.40    7.10
  -7   3   1  103.50    7.11
   6  -3  -1  280.80   19.62
   6  -3  -1  273.95   20.93
   6  -3  -1  272.66   19.63
  -6   3   1  284.31   19.63
   5  -3  -1    6.77    1.60
   5  -3  -1    8.22    0.77
   5  -3  -1    9.20    0.87
  -5   3   1    8.57    0.82
   4  -3  -1  165.41   14.44
   4  -3  -1  223.12   13.71
   4  -3  -1  184.52   13.54
  -4   3   1  192.87   13.64
   3  -3  -1  210.55   15.35
  -3   3   1  243.52   15.53
  -3   3   1  202.02   15.34
   2  -3  -1   34.93    2.47
   2  -3  -1   30.56    3.20
  -2   3   1   36.15    2.47
   0  -3  -1  259.30   16.80
   0   3   1  207.16   16.69
   0   3   1  238.69   17.22
  -1  -3  -1  194.96   13.18
  -1  -3  -1  194.21   13.96
  -1  -3  -1  203.75   13.60
  -1  -3  -1  172.43   13.57
   1   3   1  177.05   13.54
  -2  -3  -1   10.19    1.27
  -2  -3  -1    8.88    0.61
  -2  -3  -1    9.92    1.04
  -2  -3  -1    5.84    0.58
  -2  -3  -1    7.15    0.94
   2   3   1    7.47    1.02
   2   3   1    7.33    0.93
   2   3   1    6.98    0.59
  -3  -3  -1  199.30   13.92
   3   3   1  217.39   14.49
   3   3   1  163.71   13.89
   3   3   1  214.71   14.46
   4   3   1  477.84   34.04
   5   3   1  512.64   36.55
  -6  -3  -1   37.70    2.90
   6   3   1   42.04    3.70
   6   3   1   36.18    2.89
  -7  -3  -1  241.18   16.63
   7   3   1  222.82   16.60
   7   3   1  256.16   17.60
   7   3   1  217.39   17.22
  -8  -3  -1  186.23   13.28
  -8  -3  -1  185.27   13.77
   8   3   1  177.85   13.25
   8   3   1  195.92   14.29
   8   3   1  183.84   13.93
  -9  -3  -1    5.47    0.76
  -9  -3  -1    4.46    1.00
   9   3   1    3.84    0.67
   9   3   1    3.36    1.02
   9   3   1    3.91    1.25
 -10  -3  -1   87.12    7.53
 -10  -3  -1   99.57    7.20
  10   3   1  101.22    7.20
  10   3   1  100.57    8.31
 -11  -3  -1  281.22   19.94
  11   3   1  278.84   21.18
  11   3   1  276.32   19.92
 -12  -3  -1   18.77    1.81
 -12  -3  -1   13.26    1.85
  12   3   1   18.72    1.73
  12   3   1   19.39    2.85
 -13  -3  -1  136.51   10.03
  13   3   1  145.19   10.04
  13   3   1  122.81   11.47
 -14  -3  -1   43.74    3.80
  14   3   1   44.68    5.14
  14  -4  -1   60.81    7.08
  14  -4  -1   58.52    4.90
 -14   4   1   61.55    4.93
  13  -4  -1   14.92    3.61
  13  -4  -1   13.97    1.76
 -13   4   1   20.34    1.89
  12  -4  -1   82.89    6.42
  12  -4  -1   86.70    8.64
 -12   4   1   83.60    6.44
  11  -4  -1   41.20    3.50
  11  -4  -1   45.30    5.45
 -11   4   1   43.79    3.51
  10  -4  -1   96.43    9.26
  10  -4  -1   98.20    7.37
 -10   4   1  102.93    7.39
   9  -4  -1  267.74   21.72
   9  -4  -1  277.18   19.86
  -9   4   1  292.03   19.89
   8  -4  -1    0.44    0.36
   8  -4  -1    0.08    0.75
  -8   4   1    1.08    0.40
  -8   4   1    0.50    0.19
   7  -4  -1   99.05    7.53
   7  -4  -1  101.50    9.07
   7  -4  -1   99.54    7.50
  -7   4   1  115.77    7.57
  -7   4   1  105.29    7.54
   6  -4  -1  224.88   18.42
   6  -4  -1  224.23   16.98
  -6   4   1  244.96   17.08
  -6   4   1  265.98   17.02
   5  -4  -1    0.86    0.32
   5  -4  -1    0.33    0.74
   5  -4  -1    0.71    0.24
  -5   4   1    0.57    0.29
  -4   4   1  381.13   26.94
   3  -4  -1  255.68   17.24
   3  -4  -1  206.11   18.35
  -3   4   1  244.85   17.22
  -3   4   1  272.32   17.54
   2  -4  -1  321.48   23.73
   1  -4  -1  185.91   14.26
  -1   4   1  212.10   14.26
  -1   4   1  215.14   14.70
   0  -4  -1  280.64   22.03
   0   4   1  320.11   21.51
  -1  -4  -1  149.90   11.91
   1   4   1  162.08   11.49
   2   4   1  495.32   35.23
  -3  -4  -1  105.25    7.29
   3   4   1  108.49    8.03
   3   4   1   90.87    7.27
   3   4   1  109.48    7.93
  -4  -4  -1  519.09   32.74
   4   4   1  418.52   32.24
   4   4   1  414.81   32.18
   5   4   1  821.89   58.33
  -6  -4  -1   21.34    1.69
   6   4   1   20.87    3.03
   6   4   1   19.11    1.67
   6   4   1   22.92    2.48
  -7  -4  -1  289.13   19.91
   7   4   1  280.35   20.81
   7   4   1  254.57   19.87
   7   4   1  302.92   20.94
  -8  -4  -1  134.13   10.70
  -8  -4  -1  141.51   10.03
   8   4   1  146.72   11.09
   8   4   1  133.75   10.93
   8   4   1  138.76   10.02
  -9  -4  -1   51.65    4.66
  -9  -4  -1   54.53    4.03
   9   4   1   49.38    4.00
   9   4   1   49.30    4.88
   9   4   1   55.79    5.07
 -10  -4  -1  155.54   11.14
 -10  -4  -1  153.73   11.82
  10   4   1  150.07   11.12
  10   4   1  160.38   12.33
  10   4   1  147.66   11.98
 -11  -4  -1   72.07    5.33
 -11  -4  -1   63.73    5.80
  11   4   1   71.07    5.31
  11   4   1   69.61    6.45
 -12  -4  -1   34.08    3.17
 -12  -4  -1   28.90    3.33
  12   4   1   38.08    3.05
  12   4   1   39.88    4.21
 -13  -4  -1  161.63   11.11
  13   4   1  138.18   12.50
 -14  -4  -1   22.12    2.17
  14   4   1   18.95    3.14
  14  -5  -1    3.89    2.23
 -14   5   1    1.97    0.74
  13  -5  -1   73.38    7.93
  13  -5  -1   63.14    5.37
 -13   5   1   69.91    5.41
  12  -5  -1  100.65    9.51
  12  -5  -1   86.49    6.95
 -12   5   1   89.59    6.94
  11  -5  -1    2.02    1.70
  11  -5  -1    2.80    0.65
 -11   5   1    3.29    0.70
  10  -5  -1  187.38   13.65
  10  -5  -1  180.34   15.78
 -10   5   1  198.99   13.67
   9  -5  -1  264.45   22.45
   9  -5  -1  287.30   20.51
  -9   5   1  311.72   20.54
   8  -5  -1   16.13    2.82
   8  -5  -1   17.05    1.53
   8  -5  -1   16.18    1.40
  -8   5   1   19.17    1.54
  -8   5   1   16.38    1.43
   7  -5  -1  418.89   28.02
   7  -5  -1  355.63   29.62
   7  -5  -1  401.98   27.93
  -7   5   1  419.97   27.93
  -7   5   1  381.63   28.01
   6  -5  -1   98.36    6.93
   6  -5  -1   88.30    8.28
   6  -5  -1   90.20    6.73
  -6   5   1   91.22    6.93
  -6   5   1   96.73    6.73
   5  -5  -1  101.42    7.44
  -5   5   1  102.67    7.71
  -5   5   1  107.66    7.43
   4  -5  -1  291.54   21.25
  -4   5   1  312.74   21.24
  -4   5   1  303.59   21.60
   3  -5  -1   87.47    8.45
   3  -5  -1  100.71    7.12
  -3   5   1  108.68    7.57
  -3   5   1  106.22    7.11
  -3   5   1   97.30    7.10
   2  -5  -1  564.20   41.01
   0  -5  -1  169.90   15.57
   0   5   1  224.63   14.61
  -1  -5  -1   48.40    3.48
   1   5   1   51.64    4.20
  -2  -5  -1  378.96   25.51
  -2  -5  -1  295.54   24.06
   2   5   1  363.93   24.90
  -3  -5  -1    0.04    0.10
  -3  -5  -1    0.34    0.13
  -3  -5  -1   -0.26    0.50
   3   5   1    0.78    0.69
   3   5   1    0.20    0.43
   3   5   1    0.48    0.14
  -4  -5  -1  261.74   17.24
   4   5   1  251.72   18.17
   4   5   1  253.15   18.03
   4   5   1  214.43   17.20
  -5  -5  -1  252.72   17.40
  -5  -5  -1  275.36   18.80
   5   5   1  248.84   18.25
   5   5   1  254.64   18.43
   5   5   1  206.80   17.35
  -6  -5  -1   34.37    2.60
  -6  -5  -1   39.11    3.80
   6   5   1   33.62    3.40
   6   5   1   31.00    2.57
   6   5   1   32.85    3.55
  -7  -5  -1  520.12   37.01
   7   5   1  482.04   36.98
   7   5   1  577.50   38.17
   7   5   1  528.96   38.17
  -8  -5  -1  133.34   10.30
  -8  -5  -1  124.22    9.35
   8   5   1  127.14   10.52
   8   5   1  118.95    9.34
   8   5   1  146.58   10.59
  -9  -5  -1    3.35    1.19
  -9  -5  -1    2.73    0.57
   9   5   1    1.96    0.47
   9   5   1    2.26    1.19
   9   5   1    1.16    0.92
 -10  -5  -1  162.88   13.57
 -10  -5  -1  183.42   12.74
  10   5   1  163.76   13.86
  10   5   1  181.13   12.73
  10   5   1  188.10   14.01
 -11  -5  -1    9.91    1.16
  11   5   1    8.95    2.11
  11   5   1    8.43    1.17
 -12  -5  -1   58.85    5.96
 -12  -5  -1   69.07    5.59
  12   5   1   82.07    6.88
 -13  -5  -1  119.91    8.91
  13   5   1  117.78   10.27
  14  -6  -1    1.78    2.25
 -14   6   1   -1.26    0.42
  13  -6  -1   57.20    7.04
 -13   6   1   52.00    4.45
  12  -6  -1  146.74   11.02
 -12   6   1  145.99   10.81
  11  -6  -1    0.14    0.45
  11  -6  -1   -0.04    0.83
 -11   6   1   -0.05    0.37
  10  -6  -1   75.96    8.29
  10  -6  -1   82.12    6.20
 -10   6   1   87.15    6.20
   9  -6  -1  166.34   14.53
   9  -6  -1  166.36   12.23
  -9   6   1  175.82   12.23
   8  -6  -1   63.51    4.85
   8  -6  -1   62.53    6.85
   8  -6  -1   67.27    4.89
  -8   6   1   69.35    4.85
  -8   6   1   60.21    4.91
   7  -6  -1  386.07   26.68
   7  -6  -1  360.02   28.75
  -7   6   1  371.15   26.92
  -7   6   1  393.75   26.65
   6  -6  -1  153.41   13.46
   6  -6  -1  161.85   11.59
  -6   6   1  166.73   11.55
  -6   6   1  166.63   11.95
   5  -6  -1   56.32    6.02
   5  -6  -1   60.04    4.37
  -5   6   1   61.15    4.33
  -5   6   1   60.25    4.79
   4  -6  -1  178.77   16.01
   4  -6  -1  215.13   14.31
  -4   6   1  208.77   14.27
  -4   6   1  204.24   14.80
   3  -6  -1   19.93    2.95
  -3   6   1   21.61    1.56
  -3   6   1   20.48    2.31
  -3   6   1   21.34    1.56
  -2   6   1  169.17   11.11
  -2   6   1  149.78   11.72
  -2   6   1  155.00   11.10
   1  -6  -1  552.82   40.44
   0  -6  -1   14.71    2.36
   0   6   1   18.35    1.97
  -1  -6  -1  598.41   45.05
   1   6   1  646.12   44.37
  -2  -6  -1  259.28   19.56
  -2  -6  -1  298.30   21.29
   2   6   1  284.74   20.54
  -3  -6  -1    5.26    1.63
  -3  -6  -1    7.27    0.55
  -3  -6  -1    5.24    0.51
   3   6   1    5.34    0.51
   3   6   1    6.25    1.40
  -4  -6  -1   49.37    4.63
  -4  -6  -1   44.81    3.12
   4   6   1   40.35    3.09
   4   6   1   41.71    4.14
   4   6   1   38.19    3.83
  -5  -6  -1  112.69    8.82
  -5  -6  -1  102.83    7.17
   5   6   1   84.17    7.13
   5   6   1  104.29    8.14
   5   6   1  101.15    8.33
  -6  -6  -1  204.17   14.27
  -6  -6  -1  228.98   16.00
   6   6   1  201.97   15.56
   6   6   1  176.98   14.23
   6   6   1  198.92   15.29
  -7  -6  -1  219.12   16.36
  -7  -6  -1  205.58   14.73
   7   6   1  209.64   16.14
   7   6   1  193.51   14.71
   7   6   1  210.97   15.87
  -8  -6  -1    2.67    1.34
  -8  -6  -1    2.44    0.54
   8   6   1    2.22    0.51
   8   6   1    2.73    1.18
   8   6   1    4.38    1.53
  -9  -6  -1  153.99   11.17
  -9  -6  -1  167.18   12.92
  -9  -6  -1  147.38   12.26
   9   6   1  148.53   12.62
   9   6   1  153.96   11.17
   9   6   1  157.65   12.43
 -10  -6  -1   68.63    6.28
 -10  -6  -1   73.91    6.92
 -10  -6  -1   63.72    5.12
  10   6   1   64.93    5.13
  10   6   1   66.39    6.33
  10   6   1   71.86    6.78
 -11  -6  -1    0.00    0.88
 -11  -6  -1    0.51    0.40
 -11  -6  -1    0.29    1.18
  11   6   1   -0.29    1.35
  11   6   1    0.48    0.97
  11   6   1    0.97    0.44
 -12  -6  -1   74.89    5.77
 -13  -6  -1  101.40    9.39
 -13  -6  -1   89.36    6.86
  13   6   1   81.77    8.11
  13  -7  -1   64.34    7.78
 -13   7   1   63.02    5.05
  12  -7  -1    9.48    3.10
  11  -7  -1   57.69    7.00
 -11   7   1   61.29    4.68
  10  -7  -1  187.06   13.25
  10  -7  -1  165.98   15.68
 -10   7   1  193.41   13.22
   9  -7  -1  143.66    9.96
   9  -7  -1  136.63   12.50
  -9   7   1  145.56    9.91
  -9   7   1  123.44    9.87
   8  -7  -1   69.49    5.02
   8  -7  -1   62.43    7.16
  -8   7   1   60.12    5.20
  -8   7   1   73.98    4.98
   7  -7  -1  133.90   12.31
   7  -7  -1  145.09   10.09
  -7   7   1  130.34   10.36
  -7   7   1  144.63    9.93
   6  -7  -1    5.58    0.69
   6  -7  -1    5.67    2.00
  -6   7   1    5.19    0.60
  -6   7   1    5.09    1.10
   5  -7  -1  112.29   11.04
  -5   7   1  134.08    9.64
  -5   7   1  128.89    8.95
   4  -7  -1  131.93   11.87
  -4   7   1  141.86    9.66
  -4   7   1  134.68   10.35
   3  -7  -1   43.54    5.30
  -3   7   1   49.69    3.42
  -3   7   1   42.96    4.07
  -3   7   1   50.78    3.42
   2  -7  -1  145.61   14.02
  -2   7   1  195.74   12.17
  -2   7   1  172.58   13.00
   1  -7  -1  184.69   16.64
  -1   7   1  237.19   15.78
   0  -7  -1   83.60    8.14
   0   7   1   97.46    7.38
  -1  -7  -1  203.51   16.52
   1   7   1  215.24   15.73
  -2  -7  -1  103.35    6.57
  -2  -7  -1   86.06    6.55
  -2  -7  -1   89.84    8.29
   2   7   1   91.94    7.64
  -3  -7  -1  154.71   12.70
  -3  -7  -1  173.54   10.86
  -3  -7  -1  137.09   10.83
   3   7   1  149.94   12.01
  -4  -7  -1  413.05   28.67
  -4  -7  -1  402.92   30.54
   4   7   1  410.00   30.00
  -5  -7  -1   83.86    5.69
  -5  -7  -1   87.64    7.54
   5   7   1   68.18    5.64
   5   7   1   79.09    7.06
  -6  -7  -1  151.24   11.98
  -6  -7  -1  141.10   10.09
   6   7   1  144.65   11.72
   6   7   1  130.19   11.13
   6   7   1  142.07   10.08
  -7  -7  -1   79.46    7.16
  -7  -7  -1   73.76    5.37
   7   7   1   74.19    6.87
   7   7   1   65.13    5.32
   7   7   1   75.25    6.56
  -8  -7  -1   19.66    1.68
  -8  -7  -1   20.22    3.14
   8   7   1   18.20    2.73
   8   7   1   20.03    3.11
   8   7   1   18.58    1.65
  -9  -7  -1  326.17   24.02
  -9  -7  -1  317.33   24.45
  -9  -7  -1  314.17   22.55
   9   7   1  325.08   24.40
   9   7   1  326.66   23.99
   9   7   1  302.25   22.53
 -10  -7  -1  130.09   11.18
 -10  -7  -1  126.44    9.26
 -10  -7  -1  125.17   10.63
  10   7   1  123.86   10.58
  10   7   1  128.44   11.09
 -11  -7  -1   13.95    3.28
 -11  -7  -1   17.74    2.70
 -11  -7  -1   17.41    1.68
  11   7   1   21.64    3.49
  11   7   1   16.39    2.75
 -12  -7  -1  109.10    7.93
 -12  -7  -1  109.34   10.20
 -12  -7  -1  103.66    9.14
  12   7   1  101.41    9.27
  13  -8  -1   96.45   10.41
 -13   8   1   92.71    7.16
  12  -8  -1    6.73    2.78
  11  -8  -1   33.25    5.47
 -11   8   1   41.09    3.17
  10  -8  -1  123.34   11.82
 -10   8   1  117.01    8.74
   9  -8  -1    1.28    1.33
  -9   8   1    1.25    0.39
  -9   8   1    0.51    0.45
   8  -8  -1   77.79    8.23
  -8   8   1   74.61    5.55
   7  -8  -1  127.95   11.85
  -7   8   1  129.69    9.10
  -7   8   1  123.79    9.76
   6  -8  -1   44.18    5.80
  -6   8   1   53.42    4.42
  -6   8   1   48.99    3.62
   5  -8  -1  173.19   16.42
  -5   8   1  174.94   13.15
   4  -8  -1   51.88    6.27
  -4   8   1   58.00    5.01
  -4   8   1   60.68    4.16
   3  -8  -1   33.21    4.81
  -3   8   1   42.38    2.95
  -3   8   1   36.00    3.74
  -3   8   1   46.26    2.97
   2  -8  -1  394.43   31.23
  -2   8   1  426.83   29.79
   1  -8  -1   84.01    8.75
  -1   8   1  105.79    7.84
   0  -8  -1  122.00   11.39
   0   8   1  143.17   10.51
  -1  -8  -1  178.05   15.21
   1   8   1  195.76   14.37
  -2  -8  -1    5.73    1.89
  -2  -8  -1    3.51    0.28
   2   8   1    2.82    1.18
  -3  -8  -1  147.59   12.59
  -3  -8  -1  129.77   10.39
  -3  -8  -1  164.43   10.43
   3   8   1  151.49   11.84
  -4  -8  -1  359.08   24.07
  -4  -8  -1  324.00   26.17
  -5  -8  -1   24.25    1.89
  -5  -8  -1   24.32    3.76
   5   8   1   23.28    3.28
  -6  -8  -1  311.80   21.70
  -6  -8  -1  304.55   23.82
   6   8   1  306.18   23.45
  -7  -8  -1  231.77   18.78
  -7  -8  -1  242.91   16.74
   7   8   1  231.56   18.54
  -8  -8  -1    2.19    1.51
   8   8   1    1.41    1.16
   8   8   1    2.10    1.56
  -9  -8  -1  117.61    9.88
  -9  -8  -1  114.09    8.31
  -9  -8  -1  112.13   10.27
   9   8   1  110.69    9.70
   9   8   1  115.81   10.32
 -10  -8  -1   27.61    4.04
 -10  -8  -1   28.94    2.43
 -10  -8  -1   29.35    3.83
  10   8   1   27.94    3.66
  10   8   1   30.03    4.20
 -11  -8  -1   37.87    4.59
 -11  -8  -1   34.17    4.81
 -11  -8  -1   39.49    3.16
  11   8   1   39.23    4.54
  11   8   1   39.67    5.03
 -12  -8  -1  137.04   13.02
 -12  -8  -1  146.60   10.83
  12   8   1  147.47   12.41
  12   8   1  163.50   13.15
  12  -9  -1    2.19    2.25
 -12   9   1    1.43    0.55
  11  -9  -1   73.66    8.76
 -11   9   1   71.52    5.49
  10  -9  -1   84.13    9.89
 -10   9   1   88.82    6.46
   9  -9  -1    1.62    1.97
  -9   9   1    1.96    0.46
   8  -9  -1   84.56    8.73
  -8   9   1   71.57    5.48
  -8   9   1   73.99    6.19
   7  -9  -1   68.40    7.78
  -7   9   1   68.73    5.79
  -7   9   1   65.27    4.88
   6  -9  -1   15.52    3.74
  -6   9   1   16.74    1.37
  -6   9   1   18.79    2.25
   5  -9  -1  160.89   14.39
  -5   9   1  153.26   12.28
  -5   9   1  163.52   11.26
   4  -9  -1   31.63    4.96
  -4   9   1   35.02    2.48
  -4   9   1   32.57    3.47
  -4   9   1   34.65    2.47
   3  -9  -1   99.81    9.95
  -3   9   1  106.05    8.43
   2  -9  -1  316.26   25.33
  -2   9   1  316.79   23.34
   1  -9  -1   31.47    4.70
  -1   9   1   37.71    3.70
   0  -9  -1   74.88    7.95
   0   9   1   86.76    7.02
  -1  -9  -1  123.69   11.19
  -2  -9  -1    2.12    1.57
   2   9   1    1.44    0.92
  -3  -9  -1  308.31   27.01
  -3  -9  -1  352.40   23.36
   3   9   1  333.52   25.02
  -4  -9  -1  238.36   16.19
  -4  -9  -1  227.09   18.71
   4   9   1  222.24   17.88
  -5  -9  -1    5.57    0.62
  -5  -9  -1    7.58    2.40
   5   9   1    6.28    2.05
  -6  -9  -1   98.44    7.12
  -6  -9  -1   94.27    9.35
   6   9   1  105.06    9.06
  -7  -9  -1    8.40    0.86
  -7  -9  -1    7.05    2.38
   7   9   1    4.66    2.04
  -8  -9  -1   49.66    6.01
  -8  -9  -1   49.46    5.47
  -8  -9  -1   62.39    4.35
   8   9   1   56.25    6.15
  -9  -9  -1  197.75   13.72
  -9  -9  -1  175.94   15.85
  -9  -9  -1  193.67   15.51
   9   9   1  197.54   16.06
 -10  -9  -1    5.69    0.85
 -10  -9  -1    5.56    1.95
 -10  -9  -1    4.27    2.03
  10   9   1    5.01    2.35
 -11  -9  -1   83.58    7.63
 -11  -9  -1   68.46    7.77
  12 -10  -1    1.65    2.39
 -12  10   1    4.00    0.76
  11 -10  -1  151.51   14.81
  10 -10  -1   31.27    5.56
 -10  10   1   28.38    2.38
   9 -10  -1   32.90    5.30
  -9  10   1   25.95    2.82
  -9  10   1   27.61    2.23
   8 -10  -1  151.24   13.37
  -8  10   1  121.29    9.17
  -8  10   1  123.37   10.11
   7 -10  -1   25.71    4.79
  -7  10   1   20.32    2.72
  -7  10   1   22.92    1.77
   6 -10  -1   32.45    5.30
  -6  10   1   35.28    3.67
  -6  10   1   35.13    2.59
   5 -10  -1   53.52    6.87
  -5  10   1   49.20    4.91
  -5  10   1   53.10    3.76
   4 -10  -1    0.14    1.66
  -4  10   1    0.29    0.14
  -4  10   1   -0.62    0.62
  -4  10   1    0.00    0.11
   3 -10  -1  300.44   24.76
  -3  10   1  312.17   23.33
   2 -10  -1  170.48   15.31
  -2  10   1  178.10   13.66
   1 -10  -1   -0.36    1.15
  -1  10   1    0.66    0.74
   0 -10  -1   74.99    8.32
   0  10   1   86.30    7.24
  -1 -10  -1  137.25   13.22
   1  10   1  164.41   12.30
  -2 -10  -1    1.15    1.57
   2  10   1    3.28    1.49
  -3 -10  -1  151.45   14.27
   3  10   1  180.09   13.59
  -4 -10  -1   39.47    5.58
  -4 -10  -1   47.92    3.41
   4  10   1   56.98    5.50
  -5 -10  -1   57.12    7.03
   5  10   1   74.15    6.82
  -6 -10  -1  149.74   14.12
  -6 -10  -1  168.20   11.63
   6  10   1  172.06   13.93
  -7 -10  -1   44.77    3.26
  -7 -10  -1   41.56    5.44
   7  10   1   37.98    5.12
  -8 -10  -1   44.25    3.26
  -8 -10  -1   32.95    4.96
  -9 -10  -1   90.64    6.31
  -9 -10  -1   75.78    8.48
  -9 -10  -1   80.97    8.02
   9  10   1   90.79    8.81
 -10 -10  -1    0.72    1.20
 -10 -10  -1   -0.97    0.33
 -10 -10  -1   -0.44    1.15
  10  10   1   -1.83    1.40
  11 -11  -1   65.21    8.83
 -11  11   1   65.25    4.92
  10 -11  -1   12.96    4.29
 -10  11   1    9.51    1.05
   9 -11  -1  103.37   11.50
   8 -11  -1  112.06   11.37
  -8  11   1   97.85    7.02
  -8  11   1   89.17    8.06
   7 -11  -1   27.31    4.98
  -7  11   1   26.57    3.29
  -7  11   1   29.36    2.17
   6 -11  -1   63.14    8.03
  -6  11   1   61.20    5.88
  -6  11   1   62.62    4.51
   5 -11  -1   52.05    7.16
  -5  11   1   49.39    5.22
  -5  11   1   56.98    3.86
   4 -11  -1    4.87    2.51
  -4  11   1    7.05    1.79
   3 -11  -1  162.13   14.69
  -3  11   1  156.30   12.71
   2 -11  -1   50.25    6.36
  -2  11   1   46.84    4.90
   1 -11  -1    7.45    2.76
  -1  11   1   10.43    2.19
   0 -11  -1   87.19    9.76
   0  11   1  109.61    8.72
  -1 -11  -1   22.65    4.27
   1  11   1   27.94    3.39
  -2 -11  -1   63.40    7.68
   2  11   1   77.87    6.94
  -3 -11  -1  105.85   10.83
   3  11   1  116.99    9.91
  -4 -11  -1    6.31    2.49
   4  11   1    8.20    2.20
  -5 -11  -1   78.02    8.80
   5  11   1   92.68    8.42
  -6 -11  -1   24.24    4.23
   6  11   1   22.51    4.87
  -7 -11  -1   -0.30    1.14
   7  11   1    1.96    1.60
  -8 -11  -1  111.47   11.61
  -8 -11  -1  131.11   11.18
   8  11   1  136.12   11.77
  -9 -11  -1   42.47    5.77
  -9 -11  -1   45.21    5.30
   9  11   1   45.44    5.99
  10 -12  -1   16.91    5.04
   9 -12  -1   58.32    8.26
   8 -12  -1   56.19    7.64
  -8  12   1   39.14    4.45
   7 -12  -1    2.62    2.44
  -7  12   1    1.25    1.12
   6 -12  -1   50.41    7.45
  -6  12   1   60.11    5.76
   5 -12  -1   40.03    6.30
  -5  12   1   41.03    4.56
   4 -12  -1   35.59    5.65
  -4  12   1   37.37    4.26
   3 -12  -1  161.15   15.06
  -3  12   1  157.39   12.93
   2 -12  -1   10.70    3.32
  -2  12   1    9.91    2.12
   1 -12  -1   12.85    3.73
  -1  12   1   13.86    2.69
   0 -12  -1  140.12   13.47
   0  12   1  145.77   11.95
  -1 -12  -1    4.96    2.45
   1  12   1    7.36    2.02
  -2 -12  -1   98.36   10.37
   2  12   1  102.02    9.06
  -3 -12  -1   88.42    9.67
   3  12   1   92.81    8.65
  -4 -12  -1   -0.79    1.10
   4  12   1    1.03    1.14
  -5 -12  -1   57.93    7.53
   5  12   1   69.76    7.13
  -6 -12  -1   59.44    7.39
   6  12   1   64.12    7.04
  -7 -12  -1    6.58    2.60
  -7 -12  -1    7.12    2.32
   7  12   1    9.50    2.91
  -8 -12  -1   85.68    9.78
  -8 -12  -1   98.81    9.25
   8  12   1  109.33   10.14
   9 -13  -1   83.40   10.67
   8 -13  -1   67.07    9.20
   7 -13  -1   13.37    4.21
  -7  13   1   11.78    2.51
   6 -13  -1   80.76    9.79
  -6  13   1   73.68    7.18
   5 -13  -1    3.56    2.44
  -5  13   1    5.72    1.85
   4 -13  -1   56.44    7.73
  -4  13   1   54.44    5.77
   3 -13  -1   39.95    6.29
  -3  13   1   37.50    4.51
   2 -13  -1    1.09    2.40
  -2  13   1    3.59    1.57
   1 -13  -1  112.46   13.31
  -1  13   1  121.24   10.34
   0 -13  -1   65.98    8.43
  -1 -13  -1    3.00    2.59
   1  13   1    1.57    1.32
   2  13   1   93.54    8.83
  -3 -13  -1   32.96    5.57
   3  13   1   38.21    4.84
  -4 -13  -1   11.93    3.66
   4  13   1   12.97    3.16
  -5 -13  -1   54.93    7.30
  -6 -13  -1   40.94    6.13
  -6 -13  -1   46.31    5.46
   6  13   1   40.81    5.67
   7 -14  -1   19.44    5.32
  -7  14   1   25.54    3.37
   6 -14  -1   55.72    8.14
  -6  14   1   47.12    6.05
   5 -14  -1   -0.79    2.12
  -5  14   1    1.65    1.65
   4 -14  -1   76.34    9.61
  -4  14   1   75.90    7.53
   3 -14  -1   22.80    4.73
  -3  14   1   26.70    3.77
   2 -14  -1    0.48    1.54
  -2  14   1    1.22    1.39
   1 -14  -1   89.51   10.44
  -1  14   1   93.81    8.74
   0 -14  -1   43.74    6.81
   0  14   1   49.70    5.57
  -1 -14  -1   25.72    4.82
   1  14   1   31.39    4.11
  -2 -14  -1   95.11   11.09
   2  14   1  113.00    9.96
  -3 -14  -1    8.14    3.23
   3  14   1   13.22    2.98
  -4 -14  -1   17.86    4.55
   4 -15  -1  112.37   12.62
  -4  15   1  116.52   10.60
   3 -15  -1   86.72   10.29
  -3  15   1   80.27    8.27
   2 -15  -1    1.49    1.86
  -2  15   1    0.69    1.40
   1 -15  -1   50.37    7.87
  -1  15   1   63.49    6.91
   0 -15  -1   18.08    4.95
   0  15   1   10.36    2.86
  -1 -15  -1   10.17    3.65
   1  15   1   12.13    2.92
  -1  14  -2   52.86    6.58
   1 -14   2   66.94    6.87
   1 -14   2   60.10    8.22
  -2  14  -2   23.48    3.88
   2 -14   2   30.70    4.13
   2 -14   2   22.48    4.71
  -3  14  -2   27.78    4.41
   3 -14   2   31.95    4.40
   3 -14   2   31.73    5.98
  -4  14  -2   68.27    7.75
   4 -14   2   83.28    7.75
   4 -14   2   72.80    9.50
   3  13  -2    1.35    1.70
  -3 -13   2    1.81    1.81
  -3 -13   2    2.88    1.93
   2  13  -2   73.56    7.91
  -2 -13   2   83.85    7.93
  -2 -13   2   62.81    8.58
   1  13  -2   28.04    4.15
  -1 -13   2   31.40    4.16
  -1 -13   2   25.53    5.00
   0  13  -2   33.61    4.86
   0 -13   2   40.43    4.86
   0 -13   2   33.65    5.64
  -1  13  -2  108.28   10.75
   1 -13   2  135.71   10.91
   1 -13   2  113.92   12.30
  -2  13  -2   32.25    4.51
   2 -13   2   34.99    5.89
   2 -13   2   33.85    4.41
  -3  13  -2   32.27    4.48
   3 -13   2   42.49    4.69
   3 -13   2   29.10    5.76
  -4  13  -2   43.26    5.36
   4 -13   2   40.74    6.55
   4 -13   2   51.28    5.27
  -5  13  -2   -0.12    1.02
   5 -13   2    0.79    1.90
   5 -13   2    0.11    1.28
   6 -13   2   95.29    8.37
   6 -13   2   83.56   10.47
  -7  13  -2   52.25    6.17
   7 -13   2   65.61    9.03
   7 -13   2   67.31    6.29
   5  12  -2   97.54    9.76
  -5 -12   2  106.74    9.41
  -5 -12   2   77.41    9.75
   4  12  -2   11.08    3.18
  -4 -12   2   13.61    3.14
   3  12  -2   44.78    5.53
  -3 -12   2   42.79    5.09
  -3 -12   2   31.79    5.63
   2  12  -2  125.16   11.01
  -2 -12   2  134.71   10.85
  -2 -12   2   95.86   11.40
   1  12  -2   24.14    3.59
  -1 -12   2   16.38    4.26
   0  12  -2   24.86    3.96
   0 -12   2   22.52    4.59
   0 -12   2   33.89    4.06
  -1  12  -2   83.16    8.95
   1 -12   2   78.95    9.19
  -2  12  -2    5.36    2.02
   2 -12   2    4.28    2.16
   2 -12   2    6.70    1.93
  -3  12  -2   48.27    5.64
   3 -12   2   45.75    7.00
   3 -12   2   61.93    5.71
  -4  12  -2    8.04    2.32
   4 -12   2    9.40    2.14
   4 -12   2    9.49    3.77
  -5  12  -2    9.01    2.41
   5 -12   2   13.63    2.55
   5 -12   2   10.31    3.77
  -6  12  -2  108.31   10.20
   6 -12   2  113.78   12.61
   6 -12   2  130.68   10.13
  -7  12  -2   30.40    4.06
   7 -12   2   38.17    6.23
   7 -12   2   34.44    3.92
   8 -12   2   20.63    5.50
   8 -12   2   21.82    3.11
   9 -12   2   69.01    9.41
   7  11  -2   34.38    5.21
  -7 -11   2   33.55    4.62
  -7 -11   2   22.22    5.13
   6  11  -2   45.77    6.09
  -6 -11   2   38.74    6.04
  -6 -11   2   44.39    5.25
   5  11  -2   70.89    7.95
  -5 -11   2   73.93    7.47
   4  11  -2   14.57    3.35
  -4 -11   2   10.83    2.65
  -4 -11   2    9.71    3.19
   3  11  -2   74.51    7.49
  -3 -11   2   63.86    7.90
  -3 -11   2   71.15    7.05
  -2 -11   2   72.55    8.34
   1  11  -2    2.48    1.44
  -1 -11   2    5.19    1.79
  -1 -11   2    0.69    1.52
   0  11  -2  113.00   10.40
   0 -11   2  104.83   11.29
   0 -11   2  135.10   10.38
  -1  11  -2  130.57   11.59
   1 -11   2  150.76   11.51
   1 -11   2  125.57   12.80
  -2  11  -2    0.20    1.10
   2 -11   2    0.59    0.98
   2 -11   2    1.08    1.67
  -3  11  -2   77.61    7.60
   3 -11   2   84.43    7.39
   3 -11   2   80.22    9.16
  -4  11  -2   12.26    2.57
   4 -11   2   10.37    2.20
   4 -11   2   11.53    3.40
  -5  11  -2   60.10    6.25
   5 -11   2   63.77    8.16
   5 -11   2   65.57    6.01
  -6  11  -2   75.53    7.75
   6 -11   2   92.94    7.70
   6 -11   2   93.61   10.63
  -7  11  -2   -0.77    0.72
   7 -11   2   -1.19    0.74
   7 -11   2   -0.24    1.36
  -8  11  -2   70.60    7.27
   8 -11   2   93.69    7.36
   8 -11   2   90.81   10.41
   9 -11   2  111.34    9.80
   9 -11   2  119.95   13.00
  10 -11   2   -0.34    2.19
   8  10  -2   38.01    5.55
  -8 -10   2   35.56    4.84
   7  10  -2   -0.14    0.38
   7  10  -2    1.07    1.71
  -7 -10   2   -0.50    0.31
  -7 -10   2    0.16    0.95
  -7 -10   2   -0.78    1.36
   6  10  -2   87.72    6.05
   6  10  -2   88.25    8.82
  -6 -10   2   86.36    6.06
  -6 -10   2   81.46    8.02
  -6 -10   2   66.81    8.45
   5  10  -2  142.57    9.64
   5  10  -2  140.96   12.30
  -5 -10   2  112.12   12.36
  -5 -10   2  140.45    9.65
  -5 -10   2  133.81   11.64
   4  10  -2    4.59    1.86
   4  10  -2    4.50    0.54
  -4 -10   2    3.03    2.13
  -4 -10   2    4.71    1.61
   3  10  -2  140.11    8.97
   3  10  -2  116.91   11.10
  -3 -10   2  101.43   11.49
  -3 -10   2  130.20   10.86
  -3 -10   2  132.31    8.97
   2  10  -2   14.94    2.98
  -2 -10   2   11.10    2.49
  -2 -10   2    9.56    2.99
  -2 -10   2   12.59    0.94
   1  10  -2    9.04    2.35
  -1 -10   2    9.26    2.18
  -1 -10   2    5.78    2.33
   0  10  -2  242.02   19.38
   0 -10   2  269.23   19.19
   0 -10   2  232.02   20.41
  -1  10  -2   81.08    7.39
   1 -10   2   72.99    8.31
  -2  10  -2   13.90    2.66
   2 -10   2   13.29    3.50
  -3  10  -2   90.12    8.26
   3 -10   2   95.69    9.79
  -4  10  -2    2.41    0.28
  -4  10  -2    3.02    1.28
   4 -10   2    4.09    2.43
   4 -10   2    2.60    1.26
  -5  10  -2  150.42   13.47
  -5  10  -2  172.46   11.98
   5 -10   2  161.64   15.50
   5 -10   2  193.36   13.48
  -6  10  -2  174.57   15.08
   6 -10   2  220.17   15.04
   6 -10   2  183.82   17.32
  -7  10  -2    2.59    1.25
  -7  10  -2    2.43    0.40
   7 -10   2    2.28    1.12
   7 -10   2    2.06    2.21
  -8  10  -2   87.18    8.31
   8 -10   2  115.54    8.41
   9 -10   2   71.26    8.77
 -10  10  -2    6.00    0.81
  10 -10   2    8.45    3.58
 -11  10  -2  155.75   12.28
  11 -10   2  201.61   17.31
   9   9  -2   66.47    7.46
   9   9  -2   61.97    4.76
  -9  -9   2   56.96    7.06
  -9  -9   2   64.20    4.79
  -9  -9   2   64.88    6.83
   8   9  -2   70.21    5.27
   8   9  -2   71.55    7.84
  -8  -9   2   70.18    5.27
  -8  -9   2   70.17    7.18
   7   9  -2    2.97    0.54
   7   9  -2    1.55    1.80
  -7  -9   2    3.17    1.79
  -7  -9   2    2.96    1.65
  -7  -9   2    2.90    0.53
   6   9  -2  151.00   12.61
   6   9  -2  147.47   10.00
  -6  -9   2  129.93   11.74
  -6  -9   2  120.02   12.44
  -6  -9   2  145.18   10.00
   5   9  -2  113.51   10.30
   5   9  -2  111.06    7.87
  -5  -9   2   91.59   10.22
  -5  -9   2  109.63    9.59
  -5  -9   2  118.00    7.88
   4   9  -2   18.57    3.67
   4   9  -2   22.64    1.67
  -4  -9   2   22.47    3.17
  -4  -9   2   16.26    3.75
   3   9  -2  204.35   13.04
   3   9  -2  183.88   15.02
  -3  -9   2  148.86   15.11
  -3  -9   2  185.50   14.52
   2   9  -2   26.92    3.83
   2   9  -2   30.09    2.02
  -2  -9   2   22.56    3.27
  -2  -9   2   23.98    3.98
   1   9  -2   87.83    8.00
   1   9  -2   93.74    6.07
  -1  -9   2   88.43    7.58
  -1  -9   2   62.78    9.02
   0   9  -2  124.84   10.81
   0  -9   2  104.26   11.55
   0  -9   2  146.04    9.04
  -1   9  -2   41.95    4.46
   1  -9   2   36.79    5.04
  -2   9  -2   60.82    5.87
   2  -9   2   60.04    6.98
  -3   9  -2  108.83    7.36
  -3   9  -2   99.68    8.93
   3  -9   2  101.48   10.29
  -4   9  -2    0.33    0.17
  -4   9  -2    0.09    0.91
   4  -9   2   -0.20    1.35
  -5   9  -2  119.30   10.33
   5  -9   2  117.98   12.06
   5  -9   2  142.66   10.25
  -6   9  -2   32.85    3.67
  -6   9  -2   33.48    2.56
   6  -9   2   37.34    3.64
   6  -9   2   32.25    5.07
  -7   9  -2   39.15    4.11
  -7   9  -2   38.22    3.10
   7  -9   2   47.69    4.09
   7  -9   2   43.36    6.13
  -8   9  -2  125.27   10.81
  -8   9  -2  130.24    9.97
   8  -9   2  161.53   10.88
   8  -9   2  145.07   13.64
  -9   9  -2   49.86    4.22
   9  -9   2   50.97    7.39
   9  -9   2   62.62    4.80
 -10   9  -2   18.06    1.68
  10  -9   2   23.59    4.46
 -11   9  -2  104.35    8.12
  11  -9   2  125.13   12.23
 -12   9  -2    3.02    0.67
  12  -9   2    3.81    2.75
  10   8  -2    0.47    0.45
 -10  -8   2    0.51    1.13
 -10  -8   2    1.12    1.52
   9   8  -2   50.76    3.92
  -9  -8   2   49.53    5.64
  -9  -8   2   52.76    3.93
  -9  -8   2   45.95    5.92
   8   8  -2    2.11    0.52
   8   8  -2    1.06    1.84
  -8  -8   2   -1.54    1.26
  -8  -8   2    0.58    1.25
  -8  -8   2    2.45    0.54
   7   8  -2   31.16    4.47
   7   8  -2   31.29    2.44
  -7  -8   2   32.24    3.98
  -7  -8   2   29.03    2.42
  -7  -8   2   26.71    4.44
   6   8  -2  265.92   19.29
   6   8  -2  303.56   21.90
  -6  -8   2  252.44   20.85
  -6  -8   2  276.01   21.92
   5   8  -2   33.85    2.56
   5   8  -2   32.82    4.44
  -5  -8   2   32.18    3.92
  -5  -8   2   33.34    7.97
   4   8  -2  168.79   13.38
  -4  -8   2  163.44   12.80
  -4  -8   2  144.98   13.45
   3   8  -2  183.86   14.19
  -3  -8   2  158.56   14.34
  -3  -8   2  174.48   13.59
   2   8  -2   58.19    5.58
   2   8  -2   55.58    3.79
  -2  -8   2   54.07    5.08
  -2  -8   2   41.30    5.55
   1   8  -2  231.98   15.23
   1   8  -2  231.89   17.08
  -1  -8   2  179.36   17.27
  -1  -8   2  221.03   15.24
   0   8  -2  263.20   20.13
   0   8  -2  266.92   17.66
   0  -8   2  224.06   19.91
  -1   8  -2    0.30    0.66
  -1   8  -2    0.15    0.09
   1  -8   2    0.20    1.19
   1  -8   2    0.17    0.11
  -2   8  -2  206.19   13.60
  -2   8  -2  184.91   14.99
   2  -8   2  185.98   16.21
  -3   8  -2   64.91    4.67
  -3   8  -2   64.26    5.97
  -3   8  -2   71.23    4.69
   3  -8   2   57.66    7.02
  -4   8  -2    0.12    0.73
  -4   8  -2    0.46    0.20
   4  -8   2    0.50    1.46
  -5   8  -2  342.22   24.89
   5  -8   2  331.29   26.65
  -6   8  -2   27.34    3.12
  -6   8  -2   28.66    2.26
   6  -8   2   33.97    3.11
   6  -8   2   27.09    4.67
  -7   8  -2   84.28    7.66
  -7   8  -2   92.89    6.88
   7  -8   2  112.42    7.73
   7  -8   2   91.62    9.74
  -8   8  -2  130.41   11.05
  -8   8  -2  150.54   10.46
   8  -8   2  161.69   13.82
  -9   8  -2    2.96    0.60
   9  -8   2    2.54    0.79
   9  -8   2    2.84    2.09
 -10   8  -2   54.73    4.34
  10  -8   2   63.23    7.41
 -11   8  -2  124.32    9.46
  11  -8   2  140.03   13.14
 -12   8  -2    0.40    0.49
  12  -8   2    1.61    1.98
 -13   8  -2  106.53    8.49
  13  -8   2  127.72   12.48
  11   7  -2   27.20    2.33
 -11  -7   2   26.32    4.15
 -11  -7   2   29.72    4.10
 -11  -7   2   23.55    2.37
 -10  -7   2   16.58    3.31
 -10  -7   2   21.63    2.01
   9   7  -2  164.06   12.04
  -9  -7   2  177.57   12.07
  -9  -7   2  159.00   14.14
  -9  -7   2  165.12   13.78
   8   7  -2   26.81    3.89
   8   7  -2   23.89    1.94
  -8  -7   2   18.36    1.87
  -8  -7   2   24.48    3.30
  -8  -7   2   21.91    3.52
   7   7  -2  102.03    9.37
   7   7  -2  101.01    7.36
  -7  -7   2   98.10    8.82
  -7  -7   2  102.68    9.45
   6   7  -2  209.21   15.10
   6   7  -2  225.06   17.23
  -6  -7   2  211.71   17.26
  -6  -7   2  207.25   16.54
   5   7  -2   -0.23    1.15
   5   7  -2    0.13    0.24
  -5  -7   2   -0.23    0.93
  -5  -7   2   -0.23    0.87
   4   7  -2   72.79    5.23
   4   7  -2   75.41    7.00
  -4  -7   2   68.75    7.10
  -4  -7   2   72.68    6.47
   3   7  -2  382.33   27.46
   3   7  -2  427.11   29.41
  -3  -7   2  387.29   28.72
  -3  -7   2  373.74   29.47
   2   7  -2   19.61    2.81
   2   7  -2   16.87    1.32
  -2  -7   2   16.09    2.85
  -2  -7   2   17.21    2.27
   1   7  -2  187.07   13.65
   1   7  -2  171.48   11.99
  -1  -7   2  152.99   13.85
  -1  -7   2  171.62   12.00
   0   7  -2  212.09   14.59
   0   7  -2  205.59   16.01
   0  -7   2  227.92   14.61
   0  -7   2  179.79   16.45
  -1   7  -2   16.09    2.41
  -1   7  -2   18.37    1.29
   1  -7   2   14.72    2.90
  -2   7  -2  153.28   12.38
  -2   7  -2  164.37   11.17
  -2   7  -2  173.10   11.18
   2  -7   2  137.52   13.21
  -3   7  -2    7.11    0.59
  -3   7  -2    6.10    0.59
  -3   7  -2    5.71    1.44
   3  -7   2    5.13    1.88
   3  -7   2    7.44    0.59
  -4   7  -2   56.49    5.08
  -4   7  -2   59.98    4.09
   4  -7   2   49.69    6.12
  -5   7  -2  344.87   22.39
  -5   7  -2  309.23   23.30
   5  -7   2  295.77   24.81
  -6   7  -2    8.39    1.54
  -6   7  -2    8.58    0.82
   6  -7   2    6.24    2.43
   6  -7   2    8.97    1.39
  -7   7  -2  133.75    9.30
  -7   7  -2  111.60    9.83
   7  -7   2  149.84    9.91
   7  -7   2  121.63   11.81
  -8   7  -2  156.65   11.66
   8  -7   2  158.62   14.40
   8  -7   2  173.91   12.05
  -9   7  -2    4.51    0.75
   9  -7   2    3.86    0.68
   9  -7   2    4.39    2.22
 -10   7  -2  109.75    8.29
  10  -7   2  120.42   11.39
 -11   7  -2   49.76    3.92
  12  -7   2   12.40    3.45
 -13   7  -2  154.56   11.59
  13  -7   2  162.44   15.05
  11   6  -2    3.12    1.31
  11   6  -2    3.04    0.70
 -11  -6   2    5.66    2.00
 -11  -6   2    2.59    1.65
 -11  -6   2    4.51    0.82
  10   6  -2   55.27    5.55
  10   6  -2   52.31    4.41
 -10  -6   2   61.79    6.31
 -10  -6   2   59.82    4.48
 -10  -6   2   58.40    5.87
   9   6  -2  213.19   16.20
   9   6  -2  201.27   14.96
  -9  -6   2  199.45   16.43
  -9  -6   2  220.27   16.98
  -9  -6   2  209.46   14.97
   8   6  -2   41.71    3.30
   8   6  -2   44.52    4.94
  -8  -6   2   37.74    4.46
  -8  -6   2   44.71    5.03
   7   6  -2  151.54   12.74
  -7  -6   2  141.14   12.23
  -7  -6   2  166.05   12.96
   6   6  -2  151.04   11.46
   6   6  -2  157.19   13.20
  -6  -6   2  152.07   12.66
  -6  -6   2  184.92   13.54
   5   6  -2    9.07    0.90
   5   6  -2    8.33    2.15
  -5  -6   2    8.42    1.78
  -5  -6   2    9.70    2.34
   4   6  -2  124.23    9.07
   4   6  -2  129.38   10.65
  -4  -6   2  127.08   10.20
  -4  -6   2  130.31   10.83
   3   6  -2  231.69   16.55
   3   6  -2  260.19   18.23
  -3  -6   2  231.60   17.61
  -3  -6   2  220.31   18.16
   2   6  -2   23.47    1.74
   2   6  -2   25.07    3.06
  -2  -6   2   20.64    2.96
  -2  -6   2   23.11    2.60
   1   6  -2  799.53   52.60
  -1  -6   2  665.17   52.73
   0   6  -2  139.18    9.76
   0   6  -2  135.69   10.95
   0  -6   2  140.28    9.77
  -1   6  -2   92.11    8.18
  -1   6  -2  104.42    7.14
   1  -6   2  116.53    7.17
   1  -6   2   83.50    8.70
  -2   6  -2   34.21    3.70
  -2   6  -2   40.17    2.82
   2  -6   2   43.16    2.83
   2  -6   2   32.66    4.33
  -3   6  -2   15.69    1.20
  -3   6  -2   15.15    1.21
  -3   6  -2   14.65    1.96
   3  -6   2   17.65    1.22
   3  -6   2   11.57    2.51
  -4   6  -2  254.41   15.90
  -4   6  -2  222.83   16.71
   4  -6   2  193.46   17.71
  -5   6  -2  161.35   13.09
  -5   6  -2  181.46   12.44
   5  -6   2  201.67   13.11
   5  -6   2  155.11   14.32
  -6   6  -2   29.82    3.30
  -6   6  -2   35.43    2.65
   6  -6   2   39.27    3.17
   6  -6   2   33.24    4.40
  -7   6  -2  405.56   28.47
  -7   6  -2  366.44   28.85
   7  -6   2  452.23   28.85
   7  -6   2  393.23   30.83
  -8   6  -2   76.09    5.81
   8  -6   2   76.07    8.06
   8  -6   2   84.51    5.97
   9  -6   2   24.53    4.06
 -10   6  -2  125.73    9.35
  10  -6   2  133.14   12.04
 -11   6  -2   45.87    3.71
  11  -6   2   48.68    6.21
 -12   6  -2   15.34    1.63
  12  -6   2   18.50    4.26
 -13   6  -2   74.15    5.91
  13  -6   2   79.37    8.82
 -14   6  -2    1.77    0.72
  14  -6   2    1.84    2.33
  12   5  -2   45.49    4.79
  12   5  -2   41.37    3.63
 -12  -5   2   48.93    3.71
 -12  -5   2   36.27    4.55
 -12  -5   2   48.48    5.67
  11   5  -2    0.42    0.49
  11   5  -2    1.27    1.18
 -11  -5   2    0.19    1.07
 -11  -5   2    2.75    1.56
 -11  -5   2    1.78    0.56
  10   5  -2   35.22    3.21
  10   5  -2   42.44    4.29
 -10  -5   2   43.44    3.26
 -10  -5   2   35.31    4.25
 -10  -5   2   39.53    4.69
   9   5  -2   79.59    6.94
   9   5  -2   73.24    5.91
  -9  -5   2   80.38    7.15
  -9  -5   2   78.24    5.93
  -9  -5   2   85.56    7.60
   8   5  -2   15.49    2.23
   8   5  -2   15.21    2.90
   8   5  -2   12.04    1.36
  -8  -5   2   16.00    2.37
  -8  -5   2   16.03    2.59
   7   5  -2  299.56   22.58
   7   5  -2  330.25   23.55
   7   5  -2  299.63   24.04
  -7  -5   2  368.02   24.36
  -7  -5   2  298.37   23.65
   6   5  -2   16.22    2.10
   6   5  -2   15.10    1.39
   6   5  -2   17.42    2.57
  -6  -5   2   15.23    2.28
  -6  -5   2   16.70    2.57
   5   5  -2    4.35    0.56
   5   5  -2    3.63    1.51
  -5  -5   2    3.70    1.19
  -5  -5   2    3.50    1.35
   4   5  -2  414.01   30.51
   4   5  -2  462.94   32.00
  -4  -5   2  464.38   32.08
  -4  -5   2  401.23   31.39
   3   5  -2    4.78    0.56
   3   5  -2    4.55    1.37
  -3  -5   2    3.87    1.12
  -3  -5   2    5.88    1.52
   2   5  -2  147.16   11.06
   2   5  -2  142.94    9.81
  -2  -5   2  128.95   10.59
  -2  -5   2  136.31   11.14
   1   5  -2  831.51   55.98
  -1  -5   2  736.64   56.12
   0   5  -2    4.86    0.41
   0   5  -2    3.45    1.16
   0  -5   2    3.69    1.31
   0  -5   2    4.17    0.40
  -1   5  -2  162.17   11.31
  -1   5  -2  143.88   12.15
   1  -5   2  173.02   11.32
  -2   5  -2  344.36   22.88
  -2   5  -2  306.59   23.68
  -3   5  -2   83.33    7.36
  -3   5  -2  106.34    6.74
  -3   5  -2   92.40    6.73
  -4   5  -2  542.61   35.95
   4  -5   2  462.50   36.88
  -5   5  -2  249.10   16.06
  -5   5  -2  207.86   16.50
   5  -5   2  254.20   16.51
   5  -5   2  194.41   17.60
  -6   5  -2   49.51    4.33
  -6   5  -2   54.22    4.01
   6  -5   2   63.68    4.35
   6  -5   2   48.30    5.52
  -7   5  -2  526.36   36.72
   7  -5   2  485.65   38.70
   7  -5   2  553.37   36.87
  -8   5  -2   53.86    4.32
   8  -5   2   51.86    6.15
   8  -5   2   64.08    4.21
   9  -5   2  143.10   12.64
 -10   5  -2  217.52   15.61
  10  -5   2  219.36   18.14
 -11   5  -2    5.46    0.83
  11  -5   2    4.54    1.97
 -12   5  -2   72.46    5.68
  12  -5   2   75.96    8.51
 -13   5  -2  195.49   14.49
  13  -5   2  203.55   17.51
 -14   5  -2    0.13    0.57
  14  -5   2    0.56    1.85
  12   4  -2   44.36    3.61
  12   4  -2   42.24    4.37
 -12  -4   2   41.64    5.13
 -12  -4   2   40.54    3.36
 -12  -4   2   29.96    3.96
  11   4  -2    3.60    1.37
 -11  -4   2    3.47    0.87
 -11  -4   2    2.48    1.29
 -11  -4   2    2.61    1.61
  10   4  -2  134.40   11.22
  10   4  -2  140.98   10.34
 -10  -4   2  146.20   10.34
 -10  -4   2  159.10   12.06
 -10  -4   2  127.26   11.21
   9   4  -2   60.05    4.74
   9   4  -2   66.16    5.80
  -9  -4   2   59.12    5.66
   8   4  -2   99.18    7.88
   8   4  -2   87.95    6.99
  -8  -4   2  102.11    8.34
  -8  -4   2   92.55    7.94
   7   4  -2  404.31   27.08
   7   4  -2  383.23   26.20
   7   4  -2  325.53   27.28
  -7  -4   2  366.59   27.14
   6   4  -2   55.65    4.32
   6   4  -2   45.15    4.64
   6   4  -2   42.82    3.49
  -6  -4   2   40.52    4.22
   5   4  -2   17.54    1.57
   5   4  -2   21.13    2.19
   5   4  -2   14.71    2.44
  -5  -4   2   25.14    2.78
  -5  -4   2   18.31    2.30
   4   4  -2  351.99   25.72
   4   4  -2  374.27   25.20
   4   4  -2  341.28   24.56
  -4  -4   2  329.57   25.31
   3   4  -2    2.26    0.37
   3   4  -2    3.73    1.09
  -3  -4   2    2.55    0.81
  -3  -4   2    1.67    0.79
   2   4  -2  579.40   41.27
  -2  -4   2  595.10   41.38
  -2  -4   2  551.11   40.93
   1   4  -2  484.84   34.52
  -1  -4   2  470.76   34.67
  -1  -4   2  483.67   34.25
   0   4  -2   61.45    5.45
   0   4  -2   68.11    4.70
   0  -4   2   67.05    4.70
  -1   4  -2  260.71   18.12
   1  -4   2  256.22   18.15
  -2   4  -2  532.92   35.13
   2  -4   2  450.39   35.61
  -3   4  -2   59.15    3.98
  -3   4  -2   50.05    4.45
  -4   4  -2  681.86   46.88
   4  -4   2  644.13   47.85
  -5   4  -2   31.82    2.97
  -5   4  -2   39.30    2.74
   5  -4   2   33.11    3.90
   5  -4   2   40.30    2.99
  -6   4  -2   67.47    4.68
   6  -4   2   57.56    6.09
   6  -4   2   64.82    4.78
  -7   4  -2  308.77   22.08
   7  -4   2  301.60   23.89
   7  -4   2  327.18   22.02
  -8   4  -2    0.41    0.28
   8  -4   2   -0.07    0.70
  -9   4  -2  131.66    9.76
   9  -4   2  135.42   11.78
 -10   4  -2  274.34   19.86
  10  -4   2  284.71   22.23
 -11   4  -2    2.06    0.58
  11  -4   2    1.16    1.36
 -12   4  -2  120.91    9.28
  12  -4   2  131.54   11.90
 -13   4  -2    4.54    0.98
  13  -4   2    7.57    2.70
 -14   4  -2   11.64    1.57
  14  -4   2    9.97    3.25
 -15   4  -2  122.93    9.49
  15  -4   2  127.13   12.38
  13   3  -2   84.53    6.37
  13   3  -2   75.15    7.44
 -13  -3   2   85.38    6.37
  12   3  -2   54.14    4.45
  12   3  -2   60.47    5.47
 -12  -3   2   56.55    4.46
 -12  -3   2   48.84    4.96
  11   3  -2   22.84    2.98
  11   3  -2   25.25    2.21
 -11  -3   2   19.48    2.57
 -11  -3   2   23.33    2.12
  10   3  -2  127.60   10.42
  10   3  -2  133.67    9.58
 -10  -3   2  116.68   10.22
 -10  -3   2  143.56    9.61
   9   3  -2    3.95    1.20
   9   3  -2    4.08    0.73
  -9  -3   2    3.85    1.22
   8   3  -2  253.19   17.81
   8   3  -2  271.36   18.66
  -8  -3   2  223.86   18.48
   7   3  -2  304.89   20.98
   7   3  -2  318.81   21.75
  -7  -3   2  263.08   21.63
   6   3  -2  114.04    8.41
   6   3  -2  111.76    9.30
   6   3  -2  135.42    9.14
  -6  -3   2  103.48    9.02
   5   3  -2  267.94   18.99
   5   3  -2  309.90   19.63
   5   3  -2  250.55   19.85
  -5  -3   2  244.21   19.59
   4   3  -2  573.45   40.81
  -4  -3   2  564.59   40.52
   3   3  -2   12.57    1.35
   3   3  -2   11.20    1.72
   3   3  -2   11.06    1.00
  -3  -3   2   13.60    1.75
  -3  -3   2   11.66    1.45
   2   3  -2  646.73   46.05
   1   3  -2  287.45   22.35
  -1  -3   2  294.25   22.14
  -1  -3   2  351.58   22.04
  -1  -3   2  298.41   22.42
   0   3  -2   88.80    6.63
   0   3  -2   77.17    6.40
   0   3  -2   88.20    5.79
   0  -3   2   79.79    6.25
   0  -3   2   66.91    6.49
   0  -3   2   86.85    5.79
  -1   3  -2  509.11   32.38
  -1   3  -2  420.12   32.50
   1  -3   2  432.50   32.62
  -2   3  -2   80.18    5.20
  -2   3  -2   67.00    5.62
   2  -3   2   71.69    5.60
   2  -3   2   71.69    5.55
  -3   3  -2  506.62   34.10
   3  -3   2  455.63   34.72
  -5   3  -2   19.51    1.46
   5  -3   2   15.60    2.38
   5  -3   2   18.29    1.53
  -6   3  -2  236.54   16.20
   6  -3   2  226.69   16.17
   6  -3   2  223.66   17.64
  -7   3  -2  348.40   24.48
   7  -3   2  346.48   26.16
  -8   3  -2    0.01    0.16
   8  -3   2   -0.58    0.56
  -9   3  -2  177.00   13.20
   9  -3   2  193.06   15.25
 -10   3  -2   91.45    6.88
  10  -3   2   94.89    8.93
 -11   3  -2   59.38    4.56
  11  -3   2   57.65    6.56
 -12   3  -2  153.22   11.75
  12  -3   2  170.48   14.30
 -13   3  -2   36.29    3.02
  13  -3   2   28.95    5.76
 -14   3  -2   35.35    3.21
  14  -3   2   38.47    5.53
 -15   3  -2   26.71    2.75
  15  -3   2   28.77    4.98
  13   2  -2   68.35    6.47
  13   2  -2   69.29    5.40
 -13  -2   2   65.27    5.33
  12   2  -2   16.95    1.84
  12   2  -2   17.02    2.52
 -12  -2   2   16.74    1.82
  11   2  -2  121.62    8.79
  11   2  -2  117.86    9.70
 -11  -2   2  105.15    9.20
 -11  -2   2  128.68    8.81
  10   2  -2  210.10   14.17
  10   2  -2  203.14   15.07
 -10  -2   2  174.59   14.63
   9   2  -2    0.14    0.27
   9   2  -2    0.22    0.62
  -9  -2   2    0.17    0.59
   8   2  -2  180.17   13.27
   8   2  -2  188.12   12.55
  -8  -2   2  154.26   13.03
   7   2  -2  177.61   12.77
   7   2  -2  181.27   13.42
  -7  -2   2  176.71   13.37
   6   2  -2   43.29    3.54
   6   2  -2   37.47    2.93
  -6  -2   2   32.90    3.39
   5   2  -2   96.65    8.52
   5   2  -2  111.62    7.92
   5   2  -2  127.01    8.48
  -5  -2   2  103.32    8.40
   4   2  -2   91.02    6.55
   4   2  -2  105.33    7.01
   4   2  -2   80.87    7.13
  -4  -2   2   84.97    7.01
   3   2  -2  304.53   23.53
  -3  -2   2  357.08   23.36
  -3  -2   2  315.44   23.37
   1   2  -2  350.31   25.11
  -1  -2   2  350.79   24.96
   0   2  -2  203.51   13.64
   0   2  -2  183.41   13.53
   0  -2   2  162.89   13.55
   0  -2   2  191.91   13.43
   0  -2   2  188.17   13.50
  -1   2  -2    9.99    0.77
  -1   2  -2   10.11    1.12
  -1   2  -2    6.94    1.13
   1  -2   2   10.76    1.08
   1  -2   2   10.82    0.77
   1  -2   2    9.00    1.05
  -2   2  -2    5.50    0.77
  -2   2  -2    4.87    0.93
   2  -2   2    6.22    0.72
   2  -2   2    5.60    0.73
   2  -2   2    5.03    0.98
   4  -2   2  504.06   31.41
   4  -2   2  386.01   32.14
  -5   2  -2   99.51    6.67
   5  -2   2   85.00    7.66
   6  -2   2  491.33   35.82
  -7   2  -2  245.61   17.58
   7  -2   2  251.91   19.09
  -8   2  -2    5.27    0.70
   8  -2   2    5.76    1.80
  -9   2  -2  262.94   19.71
   9  -2   2  294.38   21.83
 -10   2  -2   44.41    3.54
  10  -2   2   45.39    5.23
 -11   2  -2  267.52   20.10
  11  -2   2  297.96   22.38
 -12   2  -2  152.91   11.55
  12  -2   2  163.81   13.83
 -13   2  -2    8.17    1.23
  13  -2   2    6.53    2.27
 -14   2  -2   85.30    7.11
  14  -2   2  102.52    9.79
 -15   2  -2   94.98    7.43
  15  -2   2   95.98    9.92
  13   1  -2  135.54    9.74
  13   1  -2  123.76   10.87
 -13  -1   2  129.22    9.68
  12   1  -2    3.46    1.30
  12   1  -2    5.26    0.89
 -12  -1   2    3.43    0.75
 -12  -1   2    1.60    0.93
  11   1  -2  101.61    9.02
  11   1  -2  111.75    8.14
 -11  -1   2  113.17    8.13
  10   1  -2  191.23   14.50
  10   1  -2  204.06   13.47
 -10  -1   2  163.42   13.74
   9   1  -2   19.24    1.70
   9   1  -2   18.50    2.34
  -9  -1   2   16.84    2.06
   8   1  -2  176.62   11.81
   8   1  -2  165.56   12.51
  -8  -1   2  149.56   12.18
   7   1  -2  187.58   13.90
   7   1  -2  197.37   13.29
  -7  -1   2  172.27   13.68
   6   1  -2   93.02    6.44
   6   1  -2   86.10    6.92
  -6  -1   2   85.53    6.84
   5   1  -2  279.70   19.49
   5   1  -2  272.06   19.02
  -5  -1   2  255.28   19.67
   4   1  -2  108.09    7.44
   4   1  -2   96.13    7.03
  -4  -1   2   88.83    7.51
  -4  -1   2   99.60    7.44
   3   1  -2  144.34   10.54
   3   1  -2  170.19   10.85
  -3  -1   2  143.86   10.90
  -3  -1   2  136.57   10.87
   2   1  -2  251.66   19.89
   2   1  -2  303.57   19.84
  -2  -1   2  283.83   19.84
  -2  -1   2  270.98   19.89
   1   1  -2  133.85    9.66
   1   1  -2  115.76    9.73
  -1  -1   2  143.45    9.38
  -1  -1   2  122.27    9.72
  -1  -1   2  155.43    9.65
  -1  -1   2  124.68    9.66
  -2   1  -2   22.20    1.74
   2  -1   2   19.62    2.07
   2  -1   2   21.31    1.79
   2  -1   2   23.20    1.77
  -3   1  -2  195.01   13.65
   3  -1   2  174.35   13.66
   3  -1   2  216.48   13.68
   3  -1   2  186.57   14.24
  -4   1  -2  141.94    8.88
   4  -1   2  113.88    8.83
   4  -1   2  119.74    9.63
  -7   1  -2  204.12   14.06
   7  -1   2  191.16   15.27
  -8   1  -2   56.77    4.23
   8  -1   2   62.82    5.69
   8  -1   2   51.80    4.20
  -9   1  -2  390.18   29.60
   9  -1   2  450.35   31.33
 -10   1  -2    5.14    0.78
  10  -1   2    3.01    1.58
 -11   1  -2   67.13    5.30
  11  -1   2   72.13    7.10
 -12   1  -2  128.86    9.77
  12  -1   2  136.08   11.76
 -13   1  -2   13.10    1.60
  13  -1   2   14.13    3.31
 -14   1  -2  145.20   11.54
  14  -1   2  168.22   14.07
 -15   1  -2   92.14    7.54
  15  -1   2  103.18   10.07
  14   0  -2   49.37    5.48
  14   0  -2   47.77    4.05
 -14   0   2   45.02    3.99
  13   0  -2   59.34    5.98
  13   0  -2   58.38    4.74
 -13   0   2   56.34    4.68
  12   0  -2   14.50    2.49
  12   0  -2   15.67    1.63
 -12   0   2   15.30    1.61
  11   0  -2  136.25   11.71
  11   0  -2  152.36   10.71
 -11   0   2  148.32   10.68
  10   0  -2   57.58    4.10
  10   0  -2   49.83    5.54
 -10   0   2   47.14    4.24
   9   0  -2  171.36   11.70
   9   0  -2  164.03   12.60
  -9   0   2  150.26   11.95
   8   0  -2  363.60   24.77
   8   0  -2  343.23   25.35
  -8   0   2  335.73   24.88
   7   0  -2   89.96    7.50
   7   0  -2   98.62    6.89
   6   0  -2  124.93    8.59
   6   0  -2  117.01    9.13
  -6   0   2  115.82    8.89
  -5   0   2  442.81   31.43
   4   0  -2    3.87    0.47
   4   0  -2    4.58    0.76
  -4   0   2    4.42    0.95
  -4   0   2    4.47    0.79
   3   0  -2  182.48   11.79
   3   0  -2  184.43   12.07
   3   0  -2  170.34   12.04
  -3   0   2  148.13   12.33
  -3   0   2  141.69   12.05
  -3   0   2  172.93   12.07
   1   0  -2   10.91    0.78
  -1   0   2    8.67    0.81
  -1   0   2   11.02    0.79
  -1   0   2    9.37    0.99
  -1   0  -2   84.65    6.42
  -1   0  -2   81.34    6.47
   1   0   2  100.11    6.48
   1   0   2   92.29    6.52
   5   0   2  160.37   12.24
  -7   0  -2   71.42    5.97
  -7   0  -2   77.44    6.00
  -7   0  -2   95.49    6.20
   7   0   2   88.77    6.17
   7   0   2  101.05    7.41
  -8   0  -2  215.49   15.02
   8   0   2  197.59   14.97
   8   0   2  220.34   16.29
  -9   0  -2  358.44   24.43
   9   0   2  348.12   25.79
   9   0   2  327.78   24.37
 -10   0  -2    1.51    0.44
  10   0   2    1.47    0.44
  10   0   2    1.41    1.15
 -11   0  -2   85.85    6.55
  11   0   2   88.17    8.15
 -12   0  -2   68.09    5.32
  12   0   2   68.63    6.96
 -13   0  -2    5.04    0.91
  13   0   2    4.82    2.06
 -14   0  -2   90.01    7.13
  14   0   2   95.40    9.24
 -15   0  -2    6.66    1.18
  15   0   2    6.33    2.42
  14  -1  -2   67.27    5.63
 -14   1   2   73.40    5.64
  13  -1  -2   15.78    1.85
  13  -1  -2   16.96    2.99
 -13   1   2   16.84    1.82
  12  -1  -2   35.45    4.32
  12  -1  -2   34.75    3.04
 -12   1   2   34.81    3.02
  11  -1  -2  233.31   16.85
  11  -1  -2  232.67   18.19
 -11   1   2  236.18   16.86
  10  -1  -2   37.22    3.94
  10  -1  -2   32.39    2.78
 -10   1   2   29.04    2.85
 -10   1   2   38.49    2.85
   9  -1  -2  181.37   11.89
   9  -1  -2  170.11   12.96
  -9   1   2  143.95   11.95
   8  -1  -2  692.43   45.86
  -8   1   2  582.87   44.91
   7  -1  -2    5.65    0.74
   7  -1  -2    6.63    1.34
  -7   1   2    4.99    0.81
   6  -1  -2   95.57    6.54
   6  -1  -2   90.17    7.22
  -6   1   2   84.59    6.71
   5  -1  -2  208.62   13.86
   5  -1  -2  194.57   14.24
   5  -1  -2  203.95   13.64
  -5   1   2  172.94   13.88
  -5   1   2  181.82   13.81
   4  -1  -2   49.66    3.62
   4  -1  -2   51.25    3.42
   4  -1  -2   43.60    3.84
  -4   1   2   38.57    4.19
  -4   1   2   46.79    3.59
   3  -1  -2  187.22   14.12
   3  -1  -2  213.23   13.76
   3  -1  -2  218.36   13.98
  -3   1   2  181.45   13.91
  -3   1   2  175.76   14.21
  -1  -1  -2  154.04   10.93
  -3  -1  -2    9.14    1.16
  -3  -1  -2    9.59    0.78
  -3  -1  -2    7.81    0.80
  -3  -1  -2    8.94    0.75
   3   1   2    9.58    0.76
   3   1   2   10.74    0.88
   3   1   2    9.53    1.17
  -4  -1  -2   45.96    3.53
  -4  -1  -2   50.83    3.49
   4   1   2   46.41    4.01
  -6  -1  -2  517.96   37.70
   6   1   2  572.03   37.81
   6   1   2  519.45   38.45
  -7  -1  -2    0.47    0.25
   7   1   2    0.18    0.56
   7   1   2    1.25    0.30
   7   1   2   -0.11    0.25
  -8  -1  -2  290.03   19.95
  -8  -1  -2  313.12   20.55
  -8  -1  -2  255.59   19.92
   8   1   2  284.33   21.03
   8   1   2  267.90   19.90
  -9  -1  -2  138.53   10.38
  -9  -1  -2  152.66   10.61
   9   1   2  155.92   11.72
   9   1   2  133.26   10.50
 -10  -1  -2   23.13    2.02
 -10  -1  -2   27.97    2.23
  10   1   2   27.91    3.30
  10   1   2   24.98    2.16
 -11  -1  -2   89.11    6.71
 -12  -1  -2   23.45    2.14
  12   1   2   22.75    3.41
 -13  -1  -2   67.01    5.38
  13   1   2   69.51    7.05
 -14  -1  -2  121.15    9.17
  14   1   2  121.71   11.08
 -15  -1  -2    4.18    1.03
  15   1   2    3.01    1.94
  14  -2  -2  109.89    7.92
  14  -2  -2  102.37    9.70
 -14   2   2   95.27    7.80
  13  -2  -2    7.28    1.17
  13  -2  -2    5.99    2.08
 -13   2   2    6.79    1.14
  12  -2  -2   81.92    7.75
  12  -2  -2   76.92    6.10
 -12   2   2   78.99    6.11
  11  -2  -2  143.00   11.06
  11  -2  -2  154.63   12.70
 -11   2   2  157.59   11.11
  10  -2  -2    2.03    0.59
  10  -2  -2    1.67    1.18
 -10   2   2    1.00    0.40
 -10   2   2    2.33    0.60
   9  -2  -2  246.30   18.80
   9  -2  -2  242.60   17.45
   8  -2  -2  296.80   22.09
   8  -2  -2  291.54   20.88
   7  -2  -2    1.14    0.82
   7  -2  -2    0.07    0.20
  -7   2   2    0.58    0.34
  -7   2   2    0.80    0.39
   6  -2  -2  650.08   42.52
   6  -2  -2  676.60   41.61
  -6   2   2  541.78   41.49
  -6   2   2  494.95   41.57
   5  -2  -2  307.70   20.14
   5  -2  -2  286.45   19.95
   5  -2  -2  300.97   21.32
  -5   2   2  239.52   20.01
   4  -2  -2  175.90   14.21
   4  -2  -2  213.33   13.63
   4  -2  -2  210.93   13.73
  -4   2   2  167.15   13.61
   3  -2  -2  243.84   17.29
  -3   2   2  229.23   16.74
  -1  -2  -2  115.05    8.03
  -1  -2  -2  114.18    7.75
  -1  -2  -2  105.66    7.94
   1   2   2  107.57    7.93
   1   2   2  111.16    8.03
   1   2   2  107.26    7.75
  -4  -2  -2    6.99    0.65
  -4  -2  -2    7.41    0.82
   4   2   2    6.89    1.11
  -5  -2  -2  307.39   21.03
  -5  -2  -2  287.91   21.21
   5   2   2  293.39   21.73
   5   2   2  328.54   21.39
   5   2   2  277.48   20.99
  -6  -2  -2  291.42   20.13
  -6  -2  -2  292.25   20.35
   6   2   2  241.02   20.08
   6   2   2  318.12   20.54
   6   2   2  285.49   20.94
  -7  -2  -2   63.32    4.43
   7   2   2   56.65    5.21
   7   2   2   57.98    4.39
   7   2   2   60.03    4.76
  -8  -2  -2  287.46   19.01
  -8  -2  -2  267.58   19.21
   8   2   2  277.94   20.05
   8   2   2  253.89   19.27
   8   2   2  252.49   18.95
  -9  -2  -2   18.03    1.80
   9   2   2   15.74    1.86
   9   2   2   23.38    2.74
 -10  -2  -2   81.47    7.03
 -10  -2  -2  100.72    7.02
  10   2   2   99.12    8.24
  10   2   2   98.88    6.99
 -11  -2  -2   92.58    6.92
  11   2   2   90.57    8.20
  11   2   2   93.33    6.89
 -12  -2  -2    2.50    0.70
  12   2   2    2.83    1.44
 -13  -2  -2   83.78    6.56
  13   2   2   86.42    8.12
 -14  -2  -2   74.73    5.98
  14   2   2   76.71    7.68
 -15  -2  -2    0.17    0.66
  15   2   2    1.27    1.51
  14  -3  -2   81.33    6.29
 -14   3   2   78.04    6.26
  13  -3  -2    0.63    1.36
  13  -3  -2    1.13    0.69
 -13   3   2    1.87    0.70
  12  -3  -2  128.46    9.80
  12  -3  -2  139.15   11.81
 -12   3   2  130.01    9.79
  11  -3  -2  141.37   11.65
  11  -3  -2  125.85    9.71
 -11   3   2  129.98    9.72
  10  -3  -2    8.29    2.21
  10  -3  -2    8.53    0.99
 -10   3   2    6.70    0.76
 -10   3   2    9.73    1.02
   9  -3  -2  344.63   21.86
   9  -3  -2  344.48   23.66
  -9   3   2  265.91   21.76
  -9   3   2  283.09   21.68
   8  -3  -2  232.29   15.20
   8  -3  -2  232.95   16.80
  -8   3   2  183.53   15.21
  -8   3   2  207.29   15.14
   7  -3  -2    2.01    1.11
   7  -3  -2    2.95    0.48
   7  -3  -2    1.97    0.48
  -7   3   2    1.96    0.44
  -7   3   2    1.38    0.47
   6  -3  -2  199.29   15.16
   6  -3  -2  207.72   14.07
   6  -3  -2  208.49   13.93
  -6   3   2  170.28   13.94
   5  -3  -2   66.47    4.57
   5  -3  -2   67.65    4.76
   5  -3  -2   61.26    5.58
  -5   3   2   55.25    4.62
   4  -3  -2  171.64   13.97
   4  -3  -2  212.66   13.31
  -4   3   2  170.00   13.15
   2  -3  -2  384.83   25.78
  -2   3   2  326.38   25.61
   1  -3  -2  248.76   20.02
  -1   3   2  302.64   20.15
  -3  -3  -2  198.76   13.83
  -3  -3  -2  204.32   14.20
   3   3   2  177.02   13.80
   3   3   2  203.32   14.22
   3   3   2  200.99   14.40
  -6  -3  -2  201.09   13.69
   6   3   2  164.40   13.63
   6   3   2  198.68   14.24
   6   3   2  209.70   14.62
  -7  -3  -2  139.78   10.05
   7   3   2  126.23   10.00
   7   3   2  142.39   10.98
   7   3   2  154.48   10.74
  -8  -3  -2  516.70   34.33
   8   3   2  507.60   35.40
   8   3   2  493.79   34.91
   8   3   2  432.69   34.26
  -9  -3  -2    3.23    0.87
  -9  -3  -2    3.19    0.62
   9   3   2    1.40    0.81
   9   3   2    2.36    1.15
   9   3   2    1.85    0.60
 -10  -3  -2  165.81   12.05
 -10  -3  -2  161.47   12.37
  10   3   2  169.10   13.26
  10   3   2  170.76   12.04
 -11  -3  -2   83.01    7.34
 -11  -3  -2  106.95    7.24
  11   3   2  101.59    8.52
 -12  -3  -2   22.36    1.95
 -12  -3  -2   16.69    1.96
  12   3   2   22.58    2.99
 -13  -3  -2  124.32    9.04
  13   3   2  116.75   10.67
 -14  -3  -2   78.35    6.14
  14   3   2   78.06    7.74
  14  -4  -2  131.77    9.71
  14  -4  -2  136.82   12.17
 -14   4   2  118.96    9.62
  13  -4  -2    8.78    2.76
  13  -4  -2    7.71    1.22
 -13   4   2    7.50    1.21
  12  -4  -2  105.97    7.83
  12  -4  -2  107.01    9.93
 -12   4   2   99.38    7.81
  11  -4  -2   52.21    5.85
  11  -4  -2   46.75    3.93
 -11   4   2   49.48    3.96
  10  -4  -2  104.66    9.61
  10  -4  -2  100.13    7.74
 -10   4   2  109.39    7.77
   9  -4  -2  212.60   17.28
   9  -4  -2  210.27   15.25
  -9   4   2  233.45   15.29
  -9   4   2  198.23   15.11
   8  -4  -2  215.59   15.41
   8  -4  -2  217.90   17.13
   8  -4  -2  221.69   15.43
  -8   4   2  210.28   15.41
   7  -4  -2  107.19    7.53
   7  -4  -2  108.85    9.11
   7  -4  -2   96.98    7.58
  -7   4   2  103.49    7.58
   6  -4  -2  410.55   31.82
   6  -4  -2  451.94   30.45
   6  -4  -2  462.02   30.63
  -6   4   2  405.83   30.52
   5  -4  -2    0.40    0.23
   5  -4  -2    0.12    0.66
   5  -4  -2   -0.11    0.23
  -5   4   2    0.94    0.31
  -4   4   2  465.70   32.84
  -3   4   2  292.28   20.74
   2  -4  -2  106.50    7.82
  -2   4   2  109.91    8.10
  -2   4   2  116.17    7.83
   1  -4  -2  217.09   18.38
  -1   4   2  278.42   17.77
  -1  -4  -2  638.35   45.59
  -3  -4  -2   37.07    2.55
   3   4   2   33.64    3.02
   3   4   2   32.73    3.10
  -5  -4  -2  437.76   31.72
   5   4   2  477.34   32.62
   5   4   2  441.51   32.38
  -6  -4  -2   83.10    5.66
   6   4   2   69.76    5.60
   6   4   2   86.35    6.63
   6   4   2   72.13    6.31
  -7  -4  -2  302.91   21.06
   7   4   2  299.03   21.85
   7   4   2  332.73   22.20
   7   4   2  259.47   21.00
  -8  -4  -2  343.08   24.32
   8   4   2  314.27   24.27
   8   4   2  365.58   25.48
   8   4   2  355.23   25.19
  -9  -4  -2   21.58    2.44
  -9  -4  -2   21.75    1.91
   9   4   2   21.13    1.92
   9   4   2   24.05    2.93
   9   4   2   24.12    2.74
 -10  -4  -2   38.72    3.77
 -10  -4  -2   41.83    3.28
  10   4   2   43.67    4.41
  10   4   2   40.32    3.24
  10   4   2   37.89    4.00
 -11  -4  -2   28.07    2.31
 -11  -4  -2   23.96    2.69
  11   4   2   19.19    2.77
  11   4   2   30.79    3.43
 -12  -4  -2   63.22    4.91
  12   4   2   61.62    6.12
 -13  -4  -2   70.07    5.66
  13   4   2   74.65    7.12
 -14  -4  -2    2.98    0.90
  14   4   2    3.98    1.62
  14  -5  -2   25.44    2.25
  14  -5  -2   18.06    3.73
 -14   5   2   17.11    2.04
  13  -5  -2   54.50    6.43
  13  -5  -2   50.75    4.12
 -13   5   2   44.81    4.03
  12  -5  -2  103.18    7.47
  12  -5  -2   97.59    9.69
 -12   5   2   94.75    7.43
  11  -5  -2    2.03    0.61
  11  -5  -2    1.78    1.68
 -11   5   2    2.30    0.66
  10  -5  -2  194.22   16.68
  10  -5  -2  203.72   14.62
 -10   5   2  209.83   14.62
   9  -5  -2  286.43   20.21
   9  -5  -2  290.33   22.32
  -9   5   2  259.80   20.06
  -9   5   2  302.93   20.22
   8  -5  -2   92.45    6.99
   8  -5  -2   93.86    6.98
   8  -5  -2   95.79    8.81
  -8   5   2   93.16    7.02
  -8   5   2  101.03    6.99
   7  -5  -2   35.96    2.88
   7  -5  -2   35.33    2.74
   7  -5  -2   33.01    4.19
  -7   5   2   34.16    2.87
   6  -5  -2  117.73    8.11
   6  -5  -2  103.52    9.58
  -6   5   2  114.44    8.31
   5  -5  -2    3.79    0.48
   5  -5  -2    1.94    1.16
  -5   5   2    3.33    0.65
   3  -5  -2    2.85    0.33
   3  -5  -2    2.14    1.00
  -3   5   2    2.09    0.56
   2  -5  -2    2.77    1.12
   2  -5  -2    3.48    0.35
  -2   5   2    3.52    0.70
   1  -5  -2  399.22   31.37
   0  -5  -2  293.44   23.41
   0   5   2  339.93   22.73
  -3  -5  -2  161.42   11.09
  -3  -5  -2  175.36   12.47
   3   5   2  150.95   11.76
   3   5   2  143.05   11.76
  -5  -5  -2  674.40   44.27
  -5  -5  -2  597.59   42.89
   5   5   2  565.32   43.68
  -6  -5  -2    9.74    0.88
   6   5   2    8.30    0.83
   6   5   2    8.94    1.60
   6   5   2    8.48    1.67
  -7  -5  -2  269.15   19.23
   7   5   2  299.29   20.44
   7   5   2  273.44   20.24
   7   5   2  247.30   19.19
  -8  -5  -2   66.65    5.11
   8   5   2   72.71    6.21
   8   5   2   77.33    6.30
   8   5   2   60.92    5.07
  -9  -5  -2  144.66   10.19
   9   5   2  126.14   10.13
   9   5   2  135.17   11.24
   9   5   2  157.75   11.53
 -10  -5  -2  209.14   16.25
 -10  -5  -2  211.17   15.41
  10   5   2  229.15   16.80
  10   5   2  210.29   16.50
 -11  -5  -2   29.97    2.46
 -11  -5  -2   23.44    3.00
  11   5   2   31.20    3.64
  11   5   2   29.78    3.53
 -12  -5  -2   52.79    3.82
 -12  -5  -2   38.98    4.20
  12   5   2   47.25    5.02
 -13  -5  -2   70.58    5.50
  13   5   2   69.36    6.88
 -14  -5  -2    2.62    0.83
  14   5   2    2.68    1.70
  13  -6  -2   81.81    6.52
  13  -6  -2   86.10    9.08
 -13   6   2   85.20    6.50
  12  -6  -2   86.24    6.40
  12  -6  -2   72.35   11.34
 -12   6   2   84.32    6.36
  11  -6  -2   24.32    2.15
  11  -6  -2   20.70    3.81
 -11   6   2   22.31    2.05
  10  -6  -2  206.03   17.38
  10  -6  -2  206.99   15.07
 -10   6   2  214.50   15.06
   9  -6  -2  206.35   17.69
   9  -6  -2  238.38   15.62
  -9   6   2  238.75   15.59
  -9   6   2  189.67   15.48
   8  -6  -2    0.66    1.01
   8  -6  -2    0.76    0.37
  -8   6   2    1.07    0.41
  -8   6   2    1.53    0.53
   7  -6  -2  193.62   17.38
   7  -6  -2  221.04   15.57
  -7   6   2  239.27   15.57
  -7   6   2  217.94   15.83
   6  -6  -2   80.50    5.97
   6  -6  -2   71.97    7.54
  -6   6   2   92.18    5.98
  -6   6   2   80.64    6.29
   5  -6  -2  165.16   11.20
   5  -6  -2  144.25   12.89
  -5   6   2  160.36   11.58
   4  -6  -2   96.71    9.39
   4  -6  -2  115.06    7.79
  -4   6   2  112.86    8.26
   3  -6  -2   66.68    4.70
   3  -6  -2   60.93    6.29
  -3   6   2   62.86    5.37
  -3   6   2   69.14    4.69
   2  -6  -2  367.67   28.61
  -2   6   2  409.43   29.17
  -2   6   2  450.67   28.64
   1  -6  -2  305.92   26.92
   1  -6  -2  367.30   25.43
  -1   6   2  416.64   26.15
   0  -6  -2   14.65    2.40
   0   6   2   16.46    1.78
  -1  -6  -2  334.70   24.06
  -1  -6  -2  324.28   25.61
   1   6   2  376.30   24.91
  -2  -6  -2  501.56   35.81
   2   6   2  476.69   34.98
  -3  -6  -2   52.26    3.64
  -3  -6  -2   50.56    5.05
   3   6   2   47.23    4.41
  -4  -6  -2  674.31   45.87
   4   6   2  623.03   45.17
   4   6   2  599.36   45.10
  -5  -6  -2  355.83   25.43
  -5  -6  -2  394.44   27.07
   5   6   2  346.04   26.38
   5   6   2  352.62   26.46
  -6  -6  -2   79.08    5.81
  -6  -6  -2   84.49    7.27
   6   6   2   78.21    6.82
   6   6   2   78.42    6.84
  -7  -6  -2  326.34   23.65
  -7  -6  -2  356.33   25.27
   7   6   2  340.99   24.85
   7   6   2  316.98   24.81
  -8  -6  -2   89.36    7.64
  -8  -6  -2   79.25    6.09
   8   6   2   80.43    7.30
   8   6   2   82.83    7.24
  -9  -6  -2   30.84    3.73
  -9  -6  -2   23.55    2.17
   9   6   2   25.12    3.32
   9   6   2   25.50    3.26
 -10  -6  -2  130.86   10.79
 -10  -6  -2  132.46   10.19
 -10  -6  -2  112.38    8.92
  10   6   2  114.72   10.28
  10   6   2  122.92   10.25
 -11  -6  -2    1.01    0.47
 -11  -6  -2    1.56    1.14
  11   6   2    1.37    0.96
  11   6   2    0.46    1.31
 -12  -6  -2  110.30    9.75
  12   6   2  133.18   10.47
 -13  -6  -2   20.92    2.99
 -13  -6  -2   31.42    2.58
 -13  -6  -2   35.30    4.84
  13   6   2   26.62    3.77
  13  -7  -2   94.33   10.41
  13  -7  -2  104.96    7.83
 -13   7   2  106.46    7.77
  12  -7  -2  137.34    9.31
  12  -7  -2  111.22   11.68
 -12   7   2  121.67    9.19
  11  -7  -2   22.28    2.06
  11  -7  -2   18.85    3.93
 -11   7   2   22.08    2.02
  10  -7  -2  161.87   15.13
  10  -7  -2  177.95   12.75
 -10   7   2  184.96   12.72
   9  -7  -2   50.55    6.13
   9  -7  -2   59.27    4.16
  -9   7   2   56.73    4.10
  -9   7   2   46.79    4.12
   8  -7  -2  153.10   10.02
   8  -7  -2  124.51   12.08
  -8   7   2  146.73    9.96
  -8   7   2  125.29   10.19
   7  -7  -2  628.87   42.38
   7  -7  -2  537.73   44.55
  -7   7   2  637.49   42.34
   6  -7  -2  312.51   27.39
   6  -7  -2  379.05   25.38
  -6   7   2  392.07   25.34
  -6   7   2  350.31   25.83
   5  -7  -2   48.56    5.98
   5  -7  -2   59.25    4.21
  -5   7   2   60.73    4.18
  -5   7   2   56.66    4.71
   4  -7  -2   48.19    5.67
   4  -7  -2   54.23    3.92
  -4   7   2   56.66    3.89
  -4   7   2   53.57    4.49
   3  -7  -2   20.49    1.50
   3  -7  -2   16.10    3.03
  -3   7   2   19.78    1.47
  -3   7   2   20.97    1.48
  -3   7   2   18.09    2.04
   2  -7  -2  352.54   23.38
  -2   7   2  305.34   24.03
  -2   7   2  357.44   23.37
  -2   7   2  318.72   23.36
   1  -7  -2  241.24   20.54
  -1   7   2  291.32   19.52
   0  -7  -2   29.49    3.80
   0   7   2   36.27    3.20
  -1  -7  -2  401.46   31.63
   1   7   2  451.51   30.78
  -2  -7  -2   58.20    3.62
  -2  -7  -2   48.71    5.24
  -2  -7  -2   45.32    3.60
   2   7   2   50.69    4.57
  -3  -7  -2   16.21    2.53
  -3  -7  -2   13.69    1.15
   3   7   2   19.28    2.25
  -4  -7  -2  421.44   31.02
  -4  -7  -2  430.00   29.16
   4   7   2  394.30   30.25
  -5  -7  -2   88.50    7.78
  -5  -7  -2   84.40    6.02
   5   7   2   81.81    7.07
   5   7   2   79.08    7.17
  -6  -7  -2  181.01   13.72
  -6  -7  -2  164.01   11.84
   6   7   2  149.84   13.03
   6   7   2  170.54   13.05
  -7  -7  -2  205.83   15.90
  -7  -7  -2  189.19   14.09
   7   7   2  199.72   15.38
   7   7   2  199.97   15.67
  -8  -7  -2    2.96    1.49
  -8  -7  -2    3.35    0.59
   8   7   2    3.82    1.55
   8   7   2    4.98    1.54
  -9  -7  -2   75.71    5.79
  -9  -7  -2   82.52    7.60
   9   7   2   75.25    7.28
   9   7   2   77.79    7.08
 -10  -7  -2   57.74    5.86
 -10  -7  -2   50.28    5.16
 -10  -7  -2   52.13    4.01
  10   7   2   50.80    5.29
  10   7   2   43.76    5.36
 -11  -7  -2    5.79    1.64
 -11  -7  -2    2.11    0.59
 -11  -7  -2    1.75    1.39
  11   7   2    2.50    1.43
  11   7   2    4.34    1.76
 -12  -7  -2   89.80    7.39
 -12  -7  -2  114.26    9.91
 -12  -7  -2   96.17    8.52
  12   7   2  108.13    9.23
  12   7   2   93.08    8.82
 -13  -7  -2   37.50    4.49
 -13  -7  -2   47.30    3.76
 -13  -7  -2   53.78    6.22
  13  -8  -2   83.93    9.50
 -13   8   2   83.87    6.44
  12  -8  -2   27.80    4.95
 -12   8   2   26.14    2.42
  11  -8  -2   50.53    6.78
  11  -8  -2   55.27    4.33
 -11   8   2   55.12    4.26
  10  -8  -2  147.68   13.63
  10  -8  -2  140.76   10.72
 -10   8   2  152.95   10.70
   9  -8  -2   79.57    8.63
   9  -8  -2   84.91    6.00
  -9   8   2   70.69    6.12
  -9   8   2   84.90    5.95
   8  -8  -2   43.55    3.48
   8  -8  -2   43.71    5.86
  -8   8   2   43.86    3.88
  -8   8   2   47.15    3.44
   7  -8  -2   32.93    2.60
   7  -8  -2   29.76    4.54
  -7   8   2   32.58    3.12
  -7   8   2   33.54    2.54
   6  -8  -2   36.41    2.72
   6  -8  -2   29.47    4.77
  -6   8   2   35.51    2.65
  -6   8   2   35.99    3.35
   5  -8  -2  138.93    9.35
   5  -8  -2  110.80   12.34
  -5   8   2  133.95    9.29
  -5   8   2  132.02   10.07
   4  -8  -2  109.64   10.66
   4  -8  -2  122.87    8.27
  -4   8   2  115.11    9.01
  -4   8   2  114.59    8.21
   3  -8  -2    2.00    1.52
  -3   8   2    1.31    0.70
  -3   8   2    1.55    0.20
  -3   8   2    1.43    0.21
   2  -8  -2  296.70   24.22
  -2   8   2  326.49   22.77
   1  -8  -2   11.42    2.75
  -1   8   2   12.16    1.73
   0  -8  -2  177.11   15.68
   0   8   2  211.43   14.71
  -1  -8  -2  114.59   10.98
   1   8   2  142.88   10.20
  -2  -8  -2   14.05    2.53
   2   8   2   13.75    2.03
  -3  -8  -2  273.56   22.99
  -3  -8  -2  328.58   20.99
   3   8   2  290.44   22.20
  -4  -8  -2  517.66   38.72
  -4  -8  -2  542.54   36.57
   4   8   2  503.65   37.88
  -5  -8  -2    3.10    0.44
  -5  -8  -2    3.89    1.74
  -6  -8  -2  383.53   26.26
  -6  -8  -2  359.22   28.24
   6   8   2  375.28   27.84
  -7  -8  -2  176.70   12.61
  -7  -8  -2  184.10   14.67
   7   8   2  174.28   13.97
   7   8   2  171.89   14.17
  -8  -8  -2   -0.06    1.03
  -8  -8  -2    0.84    0.39
   8   8   2    1.16    1.11
   8   8   2    0.43    1.13
  -9  -8  -2  130.22   11.56
  -9  -8  -2  129.86    9.63
   9   8   2  137.67   11.51
   9   8   2  134.87   11.14
 -10  -8  -2   64.85    6.71
 -10  -8  -2   62.51    4.80
 -10  -8  -2   60.93    6.14
  10   8   2   63.10    6.25
  10   8   2   62.55    6.59
 -11  -8  -2   51.32    5.84
 -11  -8  -2   46.92    3.86
 -11  -8  -2   47.84    5.17
  11   8   2   47.09    5.39
  11   8   2   52.77    5.87
 -12  -8  -2   92.76    9.19
 -12  -8  -2   88.66    8.31
 -12  -8  -2   93.83    6.94
  12   8   2   87.11    8.39
  12   8   2   97.12    9.07
  12  -9  -2    3.48    2.53
 -12   9   2    3.62    0.73
  11  -9  -2  136.99   13.26
 -11   9   2  132.72    9.83
 -10   9   2  155.96   11.28
   9  -9  -2    5.11    2.36
  -9   9   2    7.78    0.91
  -9   9   2    7.12    1.30
   8  -9  -2  158.56   14.57
  -8   9   2  161.49   11.46
   7  -9  -2  100.77   10.00
  -7   9   2   95.62    6.95
  -7   9   2   94.71    7.77
   6  -9  -2   31.54    5.09
  -6   9   2   35.95    2.66
  -6   9   2   37.12    3.53
   5  -9  -2  168.52   15.21
  -5   9   2  176.98   13.22
   4  -9  -2   57.18    6.65
  -4   9   2   54.34    5.03
  -4   9   2   58.82    4.09
  -3   9   2   94.04    6.42
  -3   9   2   79.10    7.33
  -3   9   2   96.38    6.42
   2  -9  -2  224.41   19.47
  -2   9   2  256.03   18.02
   1  -9  -2   14.13    3.24
  -1   9   2   14.01    1.92
   0  -9  -2  219.04   19.09
   0   9   2  256.97   17.94
  -1  -9  -2   57.84    6.57
   1   9   2   63.61    5.52
  -2  -9  -2    0.60    1.39
  -3  -9  -2  274.07   20.63
  -3  -9  -2  301.62   20.64
   3   9   2  314.24   22.25
  -4  -9  -2  233.71   15.73
  -4  -9  -2  213.83   18.06
   4   9   2  220.30   17.26
  -5  -9  -2    0.53    1.27
   5   9   2    0.49    0.84
  -6  -9  -2  204.61   13.62
  -6  -9  -2  174.45   15.70
   6   9   2  193.49   15.41
  -7  -9  -2   32.08    2.52
  -7  -9  -2   33.35    4.46
   7   9   2   30.27    4.14
  -8  -9  -2    4.00    0.64
  -8  -9  -2    2.08    1.50
   8   9   2    6.52    2.06
  -9  -9  -2   64.50    7.27
  -9  -9  -2   75.02    5.44
   9   9   2   78.12    7.39
 -10  -9  -2    1.48    1.29
 -10  -9  -2    0.41    0.41
  10   9   2    2.22    1.85
 -11  -9  -2   34.13    4.92
 -11  -9  -2   41.64    4.72
 -11  -9  -2   39.08    3.18
  11   9   2   36.97    4.59
  11   9   2   40.96    5.33
  12 -10  -2    1.51    2.13
 -12  10   2    1.95    0.68
  11 -10  -2  124.22   12.90
 -11  10   2  125.49    9.15
  10 -10  -2  127.93   12.70
 -10  10   2  117.95    8.83
   9 -10  -2    5.20    3.32
  -9  10   2    4.92    1.17
  -9  10   2    4.32    0.70
   8 -10  -2  116.86   11.24
  -8  10   2  103.97    7.55
  -8  10   2   98.37    8.38
   7 -10  -2   24.80    4.31
  -7  10   2   19.28    1.63
  -7  10   2   21.13    2.56
   6 -10  -2   57.86    7.36
  -6  10   2   68.78    5.80
  -6  10   2   63.58    4.61
   5 -10  -2  214.07   19.59
  -5  10   2  241.79   16.39
  -5  10   2  239.17   17.64
   4 -10  -2   22.94    4.05
  -4  10   2   23.57    1.67
  -4  10   2   19.75    2.68
   3 -10  -2  153.38   13.75
  -3  10   2  147.47   11.77
   2 -10  -2  131.54   12.70
  -2  10   2  148.40   11.62
   1 -10  -2    6.01    2.37
  -1  10   2    6.17    1.52
   0 -10  -2  228.11   19.72
   0  10   2  255.98   18.39
  -1 -10  -2  133.05   12.46
   1  10   2  146.53   11.32
  -2 -10  -2    1.76    1.63
   2  10   2    2.07    1.03
  -3 -10  -2  291.42   23.80
   3  10   2  307.89   22.69
  -4 -10  -2   49.65    6.05
  -4 -10  -2   48.34    3.50
   4  10   2   50.19    5.22
  -5 -10  -2   61.49    7.16
  -5 -10  -2   69.07    4.85
   5  10   2   69.69    6.62
  -6 -10  -2  229.47   15.55
  -6 -10  -2  198.10   17.96
   6  10   2  230.54   17.67
  -7 -10  -2   48.34    3.54
  -7 -10  -2   41.46    5.54
   7  10   2   50.00    5.54
  -8 -10  -2   20.79    3.76
  -8 -10  -2   25.69    2.04
   8  10   2   25.40    3.91
  -9 -10  -2   76.00    9.57
   9  10   2  107.43   10.05
 -10 -10  -2    1.25    0.46
 -10 -10  -2    1.23    1.83
 -10 -10  -2    3.39    1.62
  10  10   2    2.61    1.92
 -11 -10  -2   34.08    5.10
 -11 -10  -2   37.33    4.68
  11  10   2   48.37    5.61
  11 -11  -2  126.04   12.86
 -11  11   2  108.30    8.32
  10 -11  -2   35.59    6.17
 -10  11   2   29.82    2.50
   9 -11  -2   48.17    7.16
   8 -11  -2  178.37   16.06
  -8  11   2  155.69   12.76
   7 -11  -2   17.74    4.34
  -7  11   2   15.30    2.33
  -7  11   2   16.46    1.34
   6 -11  -2   64.76    7.80
  -6  11   2   54.30    6.18
  -6  11   2   62.82    4.52
   5 -11  -2  145.17   14.74
  -5  11   2  164.12   12.87
  -5  11   2  170.39   11.40
   4 -11  -2   -0.08    1.13
  -4  11   2    0.08    0.86
   3 -11  -2  132.40   12.82
  -3  11   2  138.43   11.02
   2 -11  -2   83.74    9.08
  -2  11   2   88.57    7.57
   1 -11  -2   14.53    3.68
  -1  11   2   13.63    2.33
   0 -11  -2  105.89   10.75
   0  11   2  114.66    9.35
  -1 -11  -2   96.19   10.18
   1  11   2  111.81    9.04
  -2 -11  -2   20.86    4.05
   2  11   2   24.42    3.21
  -3 -11  -2   40.02    5.61
   3  11   2   50.17    5.04
  -4 -11  -2    2.91    1.65
   4  11   2    5.82    1.78
  -5 -11  -2   93.71    6.89
  -5 -11  -2   94.94    9.71
   5  11   2  103.28    9.03
  -6 -11  -2   73.57    5.35
  -6 -11  -2   70.52    7.97
   6  11   2   80.61    7.64
  -7 -11  -2    1.01    0.34
  -7 -11  -2    3.45    1.93
   7  11   2    0.42    1.80
  -8 -11  -2   41.32    5.80
  -8 -11  -2   51.71    3.70
   8  11   2   50.32    6.01
  -9 -11  -2   17.05    3.92
  -9 -11  -2   21.78    3.43
   9  11   2   22.46    4.27
 -10 -11  -2    1.23    1.35
 -10 -11  -2    2.55    1.66
  10  11   2    0.15    1.48
  10 -12  -2   34.03    6.49
   9 -12  -2   50.14    7.65
   8 -12  -2   55.75    7.50
  -8  12   2   44.88    4.78
   7 -12  -2   11.32    4.01
  -7  12   2   12.65    2.37
  -6  12   2   90.18    7.98
   5 -12  -2   40.17    5.98
  -5  12   2   37.39    4.25
   4 -12  -2   20.15    4.71
  -4  12   2   18.38    2.75
   3 -12  -2  133.06   13.22
  -3  12   2  139.55   11.31
   2 -12  -2   17.30    4.15
  -2  12   2   18.18    2.72
   1 -12  -2   51.96    6.95
  -1  12   2   59.28    5.58
   0 -12  -2   94.24   10.10
   0  12   2  102.25    8.69
  -1 -12  -2    1.96    2.02
   1  12   2    2.30    1.24
  -2 -12  -2  135.29   13.85
   2  12   2  170.44   12.79
  -3 -12  -2   86.93    9.49
   3  12   2   91.94    8.29
  -4 -12  -2    0.48    1.60
   4  12   2    1.60    1.39
  -5 -12  -2   75.27    8.89
   5  12   2   95.65    8.49
  -6 -12  -2   17.53    4.30
   6  12   2   24.51    3.68
  -7 -12  -2   17.56    3.52
   7  12   2   18.66    3.81
  -8 -12  -2   70.75    8.49
   8  12   2   97.13    8.89
   9 -13  -2   62.33    8.91
   8 -13  -2    9.52    3.69
  -8  13   2    6.75    1.74
   7 -13  -2   16.33    4.81
  -7  13   2   15.35    2.50
   6 -13  -2  123.35   12.84
  -6  13   2  118.69   10.31
   5 -13  -2   28.67    5.54
  -5  13   2   30.74    3.84
   4 -13  -2   34.39    5.69
  -4  13   2   33.25    4.11
  -3  13   2  190.38   15.27
   2 -13  -2    1.57    1.62
  -2  13   2    2.43    1.38
   1 -13  -2   20.80    4.36
  -1  13   2   23.75    3.36
   0 -13  -2  103.47   11.27
   0  13   2  116.65    9.79
  -1 -13  -2   15.10    4.05
   1  13   2   20.75    3.38
  -2 -13  -2  117.55   12.51
   2  13   2  141.25   11.35
  -3 -13  -2  109.94   13.77
   3  13   2  130.89   10.96
  -4 -13  -2    1.57    1.81
   4  13   2    0.24    1.39
  -5 -13  -2  106.29   11.22
   5  13   2  115.27   10.42
  -6 -13  -2   26.31    4.93
   6  13   2   35.84    4.70
  -7 -13  -2    9.58    3.29
   7  13   2   15.64    3.44
   7 -14  -2   33.11    6.32
  -7  14   2   32.85    4.01
   6 -14  -2   75.50    9.48
  -6  14   2   64.05    6.73
   5 -14  -2    8.68    3.61
  -5  14   2    6.16    2.00
   4 -14  -2   17.30    4.55
   3 -14  -2   66.65    8.59
  -3  14   2   65.46    6.76
   2 -14  -2    1.71    1.85
  -2  14   2   -0.57    0.87
   1 -14  -2   88.84   10.28
  -1  14   2   89.72    8.37
   0 -14  -2   42.74    6.73
   0  14   2   50.88    5.39
  -1 -14  -2    1.17    1.73
   1  14   2    2.99    1.64
  -2 -14  -2   37.05    6.03
   2  14   2   34.69    4.48
  -3 -14  -2   16.98    4.57
   3  14   2   24.31    3.56
  -4 -14  -2   23.71    4.83
   4  14   2   23.52    3.67
  -5 -14  -2   48.77    7.26
   5  14   2   68.13    6.87
   5 -15  -2    5.32    3.15
  -5  15   2    2.73    1.47
   4 -15  -2  143.31   15.55
  -4  15   2  168.52   13.56
   3 -15  -2   66.21    8.98
  -3  15   2   67.79    7.01
   2 -15  -2   -1.33    0.96
  -2  15   2    1.23    1.31
   1 -15  -2  117.50   12.34
  -1  15   2  106.95   10.11
   0 -15  -2   19.13    5.10
   0  15   2   23.99    3.73
  -1 -15  -2    5.32    2.64
   1  15   2    3.92    1.58
  -2 -15  -2   36.01    7.29
   2  15   2   51.33    5.67
  -3 -15  -2    0.68    1.95
   3  15   2    3.38    1.99
   1  13  -3   26.71    4.35
  -1 -13   3   27.62    4.20
   0  13  -3   36.37    5.04
   0 -13   3   33.24    4.58
   0 -13   3   31.56    5.57
  -1  13  -3   56.11    6.49
   1 -13   3   55.63    7.72
   1 -13   3   61.49    6.46
  -2  13  -3   12.26    2.96
   2 -13   3   15.01    3.15
   2 -13   3   13.65    3.99
  -3  13  -3   51.73    6.23
   3 -13   3   61.47    6.18
   3 -13   3   53.23    7.66
   4 -13   3   81.87    7.59
   4 -13   3   70.57    9.34
  -5  13  -3    1.42    1.54
   5 -13   3   -0.60    1.20
   5 -13   3   -0.29    2.12
  -6  13  -3   71.05    7.65
   6 -13   3   91.36    7.69
   6 -13   3   69.97    9.63
   4  12  -3   20.64    4.50
  -4 -12   3   27.03    3.96
  -4 -12   3   22.74    4.55
   3  12  -3   23.88    4.05
  -3 -12   3   25.82    3.82
   2  12  -3  119.79   11.41
  -2 -12   3  106.91   12.01
  -2 -12   3  142.71   11.37
   1  12  -3   18.25    3.83
  -1 -12   3   21.99    4.48
  -1 -12   3   26.20    3.63
   0  12  -3   27.89    4.38
   0 -12   3   33.71    4.28
   0 -12   3   27.49    5.07
  -1  12  -3   54.20    6.03
   1 -12   3   57.47    5.92
   1 -12   3   49.50    6.99
  -2  12  -3    4.18    1.63
   2 -12   3    1.95    1.95
   2 -12   3    0.84    1.44
   3 -12   3   22.49    6.38
  -4  12  -3   47.84    5.53
   4 -12   3   42.28    6.72
   4 -12   3   51.57    5.27
  -5  12  -3   12.02    2.87
   5 -12   3   15.39    4.53
   5 -12   3   14.03    2.66
  -6  12  -3   98.79   10.09
   6 -12   3  132.48   10.18
   6 -12   3  118.25   12.53
  -7  12  -3   60.63    6.85
   7 -12   3   81.22    9.57
   7 -12   3   77.01    6.90
   8 -12   3    4.67    2.86
   8 -12   3    7.81    2.09
   6  11  -3    4.57    2.48
  -6 -11   3    4.37    1.98
  -6 -11   3    5.55    2.06
   5  11  -3   61.29    7.08
  -5 -11   3   46.10    6.66
  -5 -11   3   61.71    6.46
   4  11  -3    2.32    1.55
  -4 -11   3    4.09    1.99
  -4 -11   3    2.23    1.57
   3  11  -3   57.67    6.76
  -3 -11   3   63.57    6.39
  -3 -11   3   51.57    7.00
   2  11  -3   86.38    8.61
  -2 -11   3   94.20    8.31
  -2 -11   3   75.51    8.91
   1  11  -3   -0.40    0.88
  -1 -11   3    0.49    0.86
  -1 -11   3    0.01    1.29
   0  11  -3   88.56    9.21
   0 -11   3   79.88    9.17
   0 -11   3   88.65    8.12
  -1  11  -3   40.49    5.01
   1 -11   3   37.73    5.71
   1 -11   3   45.35    4.80
  -2  11  -3    7.30    2.20
   2 -11   3    6.22    2.67
   2 -11   3    9.39    2.25
  -3  11  -3   94.78    8.73
   3 -11   3   86.21    9.92
   3 -11   3   98.43    8.38
  -4  11  -3   25.37    3.55
   4 -11   3   23.83    4.94
   4 -11   3   30.62    3.58
  -5  11  -3    8.62    2.29
   5 -11   3    6.28    3.05
   5 -11   3    8.25    2.02
  -6  11  -3   98.49    9.17
   6 -11   3   98.03   11.47
   6 -11   3  109.32    8.95
  -7  11  -3   10.59    2.40
   7 -11   3   15.52    4.31
   7 -11   3   15.47    2.54
   8 -11   3   69.98    6.30
   8 -11   3   64.16    8.78
   9 -11   3   61.71    8.63
  10 -11   3   17.13    5.09
   7  10  -3    2.33    2.35
  -7 -10   3    4.27    2.07
  -7 -10   3    4.10    2.33
   6  10  -3   57.46    6.40
  -6 -10   3   53.36    5.82
  -6 -10   3   37.78    5.91
   5  10  -3  131.63   12.13
  -5 -10   3  135.70    9.48
  -5 -10   3  119.31   11.20
   4  10  -3    1.87    1.69
   4  10  -3    0.24    0.28
  -4 -10   3    0.26    0.28
  -4 -10   3    0.87    1.11
  -4 -10   3    0.17    1.49
  -3 -10   3   52.51    6.73
   2  10  -3   52.33    5.60
  -2 -10   3   44.48    4.90
  -2 -10   3   39.50    5.82
   1  10  -3   22.12    3.50
  -1 -10   3   15.02    3.73
  -1 -10   3   21.33    3.05
   0  10  -3  139.03   11.90
   0 -10   3  148.83   11.57
   0 -10   3  126.81   12.63
  -1  10  -3   13.02    2.79
   1 -10   3   15.57    2.49
   1 -10   3   11.80    3.26
  -2  10  -3   63.11    6.54
   2 -10   3   66.45    6.23
   2 -10   3   67.88    7.78
  -3  10  -3  161.97   13.21
   3 -10   3  165.25   12.79
   3 -10   3  149.94   14.52
  -4  10  -3    0.09    0.15
  -4  10  -3   -0.31    0.98
   4 -10   3   -0.07    0.88
   4 -10   3    0.57    1.38
  -5  10  -3   46.97    5.29
  -5  10  -3   52.12    3.75
   5 -10   3   58.97    5.26
   5 -10   3   48.07    6.86
  -6  10  -3  123.17   10.70
   6 -10   3  135.49   10.48
   6 -10   3  123.99   12.76
  -7  10  -3   13.65    1.27
  -7  10  -3   14.18    2.36
   7 -10   3   17.46    4.46
   7 -10   3   17.23    2.33
  -8  10  -3  117.41    9.39
   8 -10   3  150.45   10.67
   8 -10   3  131.79   13.39
   9 -10   3  146.64   11.00
   9 -10   3  130.07   13.95
 -10  10  -3    2.62    0.56
  10 -10   3    2.06    2.38
 -11  10  -3   47.48    3.85
  11 -10   3   59.37    7.86
   8   9  -3   98.15    7.07
  -8  -9   3   86.18    9.61
  -8  -9   3  100.33    7.08
  -8  -9   3   95.51    9.14
   7   9  -3    7.79    2.89
  -7  -9   3   10.55    2.58
  -7  -9   3    7.16    2.57
  -7  -9   3    8.57    0.98
   6   9  -3   68.13    7.54
   6   9  -3   64.46    5.08
  -6  -9   3   74.54    5.00
  -6  -9   3   58.74    7.37
  -6  -9   3   65.74    6.74
   5   9  -3   57.49    3.97
  -5  -9   3   44.49    6.29
   4   9  -3   70.86    7.15
   4   9  -3   61.53    4.67
  -4  -9   3   67.84    6.48
  -4  -9   3   61.02    7.25
   3   9  -3  147.04    9.98
   3   9  -3  148.48   12.46
  -3  -9   3  120.67   12.41
  -3  -9   3  144.81   11.77
   2   9  -3   40.05    4.57
   2   9  -3   25.86    2.40
  -2  -9   3   33.90    3.82
  -2  -9   3   29.16    4.47
   1   9  -3   18.72    1.39
   1   9  -3   17.31    2.84
  -1  -9   3   20.41    2.72
  -1  -9   3   15.00    3.17
   0   9  -3  271.51   18.11
   0   9  -3  258.87   20.19
   0  -9   3  268.68   19.76
   0  -9   3  254.65   18.16
   0  -9   3  235.20   20.78
  -1   9  -3   10.66    2.30
  -1   9  -3   11.26    0.85
   1  -9   3   10.28    2.17
   1  -9   3   11.62    3.14
  -2   9  -3  112.91    9.89
  -2   9  -3  117.18    8.15
   2  -9   3  121.30    9.65
   2  -9   3  110.49   10.99
  -3   9  -3  109.40    7.64
  -3   9  -3  111.69    7.62
  -3   9  -3   99.55    9.23
   3  -9   3  115.30    9.05
   3  -9   3   98.56   10.42
  -4   9  -3    7.88    0.71
  -4   9  -3    7.33    1.97
   4  -9   3    8.33    2.78
   4  -9   3    7.47    1.76
   5  -9   3  169.92   15.39
  -6   9  -3  225.83   18.28
   6  -9   3  224.33   20.26
   6  -9   3  267.50   18.20
   7  -9   3    1.03    0.80
   7  -9   3    0.68    1.64
  -8   9  -3   59.52    4.93
   8  -9   3   66.82    8.12
   8  -9   3   79.36    6.00
  -9   9  -3   51.43    4.42
   9  -9   3   65.56    5.18
   9  -9   3   69.93    8.52
 -10   9  -3   61.51    4.85
  10  -9   3   73.83    8.70
 -11   9  -3  110.05    8.55
  11  -9   3  132.59   12.85
 -12   9  -3   32.39    2.84
  12  -9   3   41.41    6.29
   9   8  -3  118.41    8.42
  -9  -8   3   99.70   10.66
  -9  -8   3  118.90    8.43
  -9  -8   3  119.92   10.59
   8   8  -3  117.64    9.10
  -8  -8   3  131.10    9.14
  -8  -8   3  128.90   11.11
   7   8  -3    2.31    0.53
  -7  -8   3    0.76    1.57
   6   8  -3  196.07   15.75
  -6  -8   3  188.80   14.94
  -6  -8   3  169.58   15.61
   5   8  -3   44.52    5.18
   5   8  -3   35.38    2.74
  -5  -8   3   31.76    5.50
  -5  -8   3   33.45    4.15
   4   8  -3   74.87    5.32
   4   8  -3   78.10    7.49
  -4  -8   3   67.15    7.48
  -4  -8   3   72.74    6.86
   3   8  -3  259.71   18.49
  -3  -8   3  204.27   18.30
  -3  -8   3  223.92   17.58
   2   8  -3   12.66    2.67
   2   8  -3   14.17    1.12
  -2  -8   3   11.12    2.23
  -2  -8   3   10.17    2.72
   1   8  -3  117.77    8.42
   1   8  -3  135.54   10.54
  -1  -8   3  102.30   10.49
  -1  -8   3  124.94    9.90
   0   8  -3  333.71   23.01
   0   8  -3  343.80   24.94
   0  -8   3  346.08   24.48
   0  -8   3  290.49   25.32
  -1   8  -3   17.60    1.38
  -1   8  -3   18.32    2.84
   1  -8   3   17.14    3.36
   1  -8   3   19.69    1.41
   1  -8   3   18.35    2.46
  -2   8  -3  161.38   12.17
   2  -8   3  165.97   14.77
   2  -8   3  190.44   12.23
  -3   8  -3   47.62    4.89
  -3   8  -3   52.19    3.59
   3  -8   3   52.62    4.75
   3  -8   3   42.04    5.95
  -4   8  -3   30.87    2.28
  -4   8  -3   31.53    3.54
   4  -8   3   31.36    3.32
   4  -8   3   26.38    4.47
  -5   8  -3  238.19   18.33
  -5   8  -3  243.48   17.04
   5  -8   3  265.00   18.18
   5  -8   3  217.83   19.77
  -6   8  -3   78.90    5.56
  -6   8  -3   66.15    6.51
   6  -8   3   70.43    8.24
   6  -8   3   88.43    6.59
  -7   8  -3    0.34    0.31
  -7   8  -3    0.59    0.85
   7  -8   3    1.29    1.74
   7  -8   3    0.52    0.77
  -8   8  -3  108.80    8.60
   8  -8   3  120.32   11.76
   8  -8   3  131.72    9.35
  -9   8  -3    3.60    0.57
   9  -8   3    3.71    2.08
   9  -8   3    2.81    0.95
 -10   8  -3   48.06    3.90
  10  -8   3   62.52    8.92
 -11   8  -3   67.73    5.39
  11  -8   3   80.46    8.94
 -12   8  -3    0.21    0.43
  12  -8   3    0.04    1.76
 -13   8  -3   24.05    2.36
  13  -8   3   30.48    5.19
  10   7  -3   -0.33    0.41
 -10  -7   3   -0.14    0.49
 -10  -7   3    0.31    1.31
 -10  -7   3    0.67    1.16
   9   7  -3   51.04    4.14
  -9  -7   3   48.92    6.14
  -9  -7   3   54.00    5.88
  -9  -7   3   59.30    4.21
   8   7  -3   27.32    2.21
  -8  -7   3   22.34    3.96
  -8  -7   3   25.89    3.66
   7   7  -3   21.72    3.59
   7   7  -3   21.28    1.82
  -7  -7   3   24.34    3.27
  -7  -7   3   16.32    3.52
   6   7  -3  266.71   19.04
   6   7  -3  280.06   21.37
  -6  -7   3  257.64   20.56
  -6  -7   3  272.26   21.42
   5   7  -3    5.78    0.70
   5   7  -3    7.75    2.31
  -5  -7   3    6.12    1.76
  -5  -7   3    4.10    1.80
   4   7  -3   92.46    8.34
   4   7  -3   91.34    6.39
  -4  -7   3   86.00    8.40
  -4  -7   3   83.00    7.68
   3   7  -3   91.56    6.31
   3   7  -3  102.52    8.38
  -3  -7   3   83.00    7.56
  -3  -7   3   76.37    8.03
   2   7  -3   61.07    5.72
   2   7  -3   55.87    3.93
  -2  -7   3   45.79    5.53
  -2  -7   3   54.62    5.17
   1   7  -3  112.20    7.98
   1   7  -3  120.95    9.85
  -1  -7   3  106.63    9.19
   0   7  -3   97.64    8.22
   0   7  -3   97.17    6.63
   0  -7   3   96.80    7.81
   0  -7   3   80.26    8.45
  -1   7  -3   88.05    5.94
  -1   7  -3   77.28    7.30
   1  -7   3   75.36    7.90
   1  -7   3   89.66    7.09
  -2   7  -3  309.92   20.35
  -2   7  -3  274.08   21.68
   2  -7   3  274.32   22.63
   2  -7   3  296.42   21.44
  -3   7  -3   16.88    2.40
  -3   7  -3   20.28    1.50
   3  -7   3   17.68    3.28
   3  -7   3   20.36    2.41
  -4   7  -3  102.03    7.01
  -4   7  -3   93.03    8.10
   4  -7   3  113.53    8.07
   4  -7   3   80.78    9.03
  -5   7  -3  310.39   22.30
  -5   7  -3  305.12   23.34
   5  -7   3  350.65   23.26
   5  -7   3  300.04   25.95
  -6   7  -3    8.22    0.83
  -6   7  -3    8.80    1.68
   6  -7   3    8.75    1.53
   6  -7   3    8.15    2.66
  -7   7  -3  112.97    8.08
  -7   7  -3   99.38    8.73
   7  -7   3  129.03    8.78
   7  -7   3  105.18   10.60
  -8   7  -3  189.74   13.99
   8  -7   3  206.08   16.98
  -9   7  -3   10.62    1.11
   9  -7   3   11.57    1.34
   9  -7   3   13.68    3.53
 -10   7  -3   99.34    7.66
  10  -7   3  114.56   10.87
 -11   7  -3   93.84    7.27
  11  -7   3  106.40   10.47
 -12   7  -3   14.54    1.57
  12  -7   3   16.48    4.00
 -13   7  -3   82.57    6.75
  13  -7   3  101.25   10.35
  11   6  -3    2.87    0.66
 -11  -6   3    3.76    1.71
 -11  -6   3    3.46    0.74
 -11  -6   3    0.84    1.42
  10   6  -3   35.93    3.50
 -10  -6   3   45.78    3.43
 -10  -6   3   37.86    5.08
 -10  -6   3   48.85    5.75
   9   6  -3  228.45   16.30
  -9  -6   3  233.61   18.05
  -9  -6   3  220.88   18.33
   8   6  -3    8.76    1.14
  -8  -6   3   15.74    2.51
  -8  -6   3    9.20    2.61
   7   6  -3   93.37    8.90
   7   6  -3   93.23    7.12
  -7  -6   3  107.14    9.24
  -7  -6   3   97.18    8.56
   6   6  -3  147.43   10.90
   6   6  -3  161.10   12.93
  -6  -6   3  151.46   12.28
  -6  -6   3  151.72   12.84
   5   6  -3    5.85    2.05
   5   6  -3    5.21    0.66
  -5  -6   3    5.81    1.94
  -5  -6   3    6.11    1.54
   4   6  -3  108.76    9.26
   4   6  -3  101.73    7.41
  -4  -6   3  101.69    8.61
  -4  -6   3  102.43    9.16
   3   6  -3  155.83   10.69
  -3  -6   3  144.05   12.35
   2   6  -3  139.04   10.73
   2   6  -3  130.55    9.03
  -2  -6   3  130.46   10.16
  -2  -6   3  110.45   10.52
   1   6  -3  397.58   26.67
   1   6  -3  418.58   28.35
  -1  -6   3  321.31   28.19
  -1  -6   3  386.01   27.76
   0   6  -3  380.79   24.88
   0   6  -3  364.24   26.32
   0  -6   3  298.08   26.45
   0  -6   3  374.24   25.96
  -1   6  -3    0.77    0.70
  -1   6  -3    1.53    0.24
   1  -6   3    0.63    1.01
   1  -6   3    1.49    0.73
  -2   6  -3  164.24   10.49
  -2   6  -3  135.91   11.54
   2  -6   3  132.23   12.24
   2  -6   3  155.76   11.41
  -3   6  -3   14.68    1.09
  -3   6  -3   11.59    1.86
   3  -6   3   10.09    2.52
   3  -6   3   13.83    1.81
  -4   6  -3  137.82    9.94
  -4   6  -3  134.04   10.85
   4  -6   3  156.80   10.79
   4  -6   3  131.91   11.89
  -5   6  -3  256.20   20.63
  -5   6  -3  299.21   19.88
   5  -6   3  306.52   20.61
   5  -6   3  263.26   21.95
  -6   6  -3    0.20    0.53
  -6   6  -3    0.73    0.29
   6  -6   3    0.12    0.88
   6  -6   3    0.04    0.45
  -7   6  -3  233.84   17.05
   7  -6   3  218.99   19.28
   7  -6   3  267.66   17.79
  -8   6  -3  208.44   15.45
   8  -6   3  232.98   15.71
   8  -6   3  208.75   17.92
  -9   6  -3    8.91    1.12
   9  -6   3    9.37    0.97
   9  -6   3    9.86    2.79
   9  -6   3   13.00    1.43
 -10   6  -3  128.72    9.55
  10  -6   3  136.03   12.30
 -11   6  -3   58.87    4.63
  11  -6   3   62.70    7.32
 -12   6  -3    9.59    1.26
  12  -6   3   12.58    3.68
 -13   6  -3   99.27    7.69
  13  -6   3  105.74   10.81
 -14   6  -3    3.60    0.92
  14  -6   3    4.15    2.45
  11   5  -3    2.35    1.26
  11   5  -3    2.10    0.68
 -11  -5   3    1.82    0.66
 -11  -5   3    2.81    1.57
 -11  -5   3    1.54    1.29
  10   5  -3   66.70    6.12
  10   5  -3   62.79    5.05
 -10  -5   3   59.22    6.31
 -10  -5   3   68.61    6.84
 -10  -5   3   69.02    5.27
   9   5  -3  133.56    9.72
   9   5  -3  142.49   10.84
  -9  -5   3  118.35   10.94
  -9  -5   3  135.36   11.47
   8   5  -3    8.86    1.86
   8   5  -3    8.21    1.02
  -8  -5   3    8.48    2.27
  -8  -5   3    7.12    1.90
   7   5  -3  161.21   12.28
  -7  -5   3  196.36   14.19
  -7  -5   3  158.84   13.45
   6   5  -3   66.29    6.75
   6   5  -3   71.43    5.38
  -6  -5   3   83.72    7.12
  -6  -5   3   70.12    6.49
   5   5  -3   62.65    4.89
  -5  -5   3   72.28    6.45
   4   5  -3  115.59    9.86
   4   5  -3  119.18    8.43
  -4  -5   3  126.29    9.97
  -4  -5   3  108.88    9.39
   3   5  -3  109.12    8.67
   3   5  -3   98.46    7.18
  -3  -5   3   91.66    8.05
  -3  -5   3  104.36    8.60
   2   5  -3  159.82   12.32
   2   5  -3  159.88   10.96
  -2  -5   3  151.28   11.86
  -2  -5   3  147.28   12.26
   1   5  -3  481.86   33.33
  -1  -5   3  461.63   32.90
  -1  -5   3  427.15   33.35
   0   5  -3    1.41    0.88
   0  -5   3    2.86    0.86
   0  -5   3    0.55    0.68
  -1   5  -3  234.66   14.85
  -1   5  -3  204.98   15.89
   1  -5   3  211.62   15.65
   1  -5   3  188.30   16.27
  -2   5  -3  265.74   16.99
  -2   5  -3  238.98   17.94
   2  -5   3  252.58   17.76
   2  -5   3  205.08   18.38
  -3   5  -3    0.67    0.56
  -3   5  -3    0.85    0.22
   3  -5   3    1.39    1.02
   3  -5   3    1.37    0.65
  -4   5  -3  299.86   19.46
  -4   5  -3  250.75   20.12
   4  -5   3  299.27   20.10
   4  -5   3  252.62   21.09
  -5   5  -3  218.81   14.19
   5  -5   3  178.49   15.83
  -6   5  -3   97.02    6.69
   6  -5   3   82.15    8.36
   6  -5   3   95.15    7.04
  -7   5  -3  554.77   38.74
   7  -5   3  575.66   38.98
   7  -5   3  521.89   40.81
  -8   5  -3   55.29    4.32
   8  -5   3   62.59    4.37
   8  -5   3   52.37    6.12
   9  -5   3   17.28    3.32
 -10   5  -3  187.65   13.90
  10  -5   3  202.14   16.55
 -11   5  -3   33.98    2.96
  11  -5   3   41.19    5.27
 -12   5  -3   90.19    6.80
 -13   5  -3  191.60   14.19
  13  -5   3  199.44   17.27
 -14   5  -3    0.41    0.56
  14  -5   3    1.50    2.02
  12   4  -3   32.54    3.86
  12   4  -3   36.00    3.04
 -12  -4   3   35.87    3.01
 -12  -4   3   31.44    3.84
 -12  -4   3   34.54    4.69
  11   4  -3    5.04    1.54
  11   4  -3    3.69    0.80
 -11  -4   3    3.05    1.46
 -11  -4   3    5.10    1.91
 -11  -4   3    5.17    0.95
  10   4  -3  164.40   11.96
  10   4  -3  168.21   12.93
 -10  -4   3  147.89   12.98
 -10  -4   3  175.73   13.68
   9   4  -3   93.30    7.54
   9   4  -3   86.94    6.61
  -9  -4   3   76.30    7.55
  -9  -4   3   96.34    8.13
   8   4  -3   31.24    2.90
   8   4  -3   40.19    3.75
  -8  -4   3   34.45    3.86
  -8  -4   3   39.97    4.19
   7   4  -3  224.39   16.89
   7   4  -3  254.02   17.75
  -7  -4   3  207.10   17.87
  -7  -4   3  263.04   18.38
   6   4  -3    9.80    1.49
   6   4  -3    8.90    0.99
  -6  -4   3    7.98    1.75
  -6  -4   3   10.36    1.95
   5   4  -3   28.08    3.38
   5   4  -3   27.79    2.16
  -5  -4   3   25.43    2.90
   4   4  -3  564.68   40.48
  -4  -4   3  492.91   39.95
  -4  -4   3  618.11   40.54
   3   4  -3    0.99    0.26
   3   4  -3   -0.24    0.52
  -3  -4   3    0.18    0.53
  -3  -4   3    0.57    0.72
   2   4  -3  186.13   12.76
   2   4  -3  186.23   13.86
  -2  -4   3  181.83   13.80
  -2  -4   3  164.92   13.41
   1   4  -3  296.06   21.89
   1   4  -3  328.82   20.83
  -1  -4   3  262.01   21.83
  -1  -4   3  297.10   21.59
   0   4  -3   39.10    3.73
   0   4  -3   45.32    2.89
   0  -4   3   32.26    3.78
   0  -4   3   38.50    3.51
  -1   4  -3  260.70   19.86
  -1   4  -3  306.78   19.04
   1  -4   3  278.33   19.02
   1  -4   3  231.30   20.09
   1  -4   3  273.57   19.69
  -2   4  -3  221.91   16.63
   2  -4   3  253.12   16.55
   2  -4   3  200.17   17.64
  -3   4  -3   17.23    2.23
  -3   4  -3   21.41    1.55
   3  -4   3   17.43    2.53
   3  -4   3   22.08    2.26
  -4   4  -3  367.17   27.84
   4  -4   3  431.94   27.82
   4  -4   3  367.89   28.73
  -5   4  -3  328.86   21.08
   5  -4   3  304.10   21.38
   5  -4   3  260.99   22.43
  -6   4  -3   12.69    1.12
   6  -4   3   15.96    1.43
   6  -4   3   11.24    2.12
   6  -4   3   10.68    1.24
  -7   4  -3  193.14   13.04
   7  -4   3  170.56   14.74
   7  -4   3  183.52   13.08
  -8   4  -3   19.51    1.66
   9  -4   3  160.38   13.71
 -10   4  -3  134.56   10.21
  10  -4   3  149.57   12.62
 -11   4  -3    7.84    1.04
  11  -4   3    8.59    2.56
 -12   4  -3   96.54    7.44
  12  -4   3  102.99    9.96
 -13   4  -3  109.68    8.39
  13  -4   3  113.55   11.02
 -14   4  -3   20.91    2.26
  14  -4   3   26.67    4.40
 -15   4  -3   34.49    3.35
  15  -4   3   40.40    5.72
  12   3  -3   58.76    5.67
  12   3  -3   65.87    4.88
 -12  -3   3   51.90    5.45
 -12  -3   3   64.90    4.85
  11   3  -3   29.62    2.48
 -11  -3   3   28.01    2.46
 -11  -3   3   22.47    2.98
  10   3  -3  132.79    9.37
  10   3  -3  134.21   10.25
 -10  -3   3  111.93   10.13
   9   3  -3   59.23    5.19
   9   3  -3   57.08    4.41
  -9  -3   3   52.93    5.20
   8   3  -3  156.96   11.14
   8   3  -3  141.78   10.33
  -8  -3   3  126.93   11.11
   7   3  -3  258.86   18.13
   7   3  -3  229.67   17.43
  -7  -3   3  202.80   18.12
  -7  -3   3  287.81   18.69
   6   3  -3    1.57    0.38
   6   3  -3    1.18    0.69
  -6  -3   3    1.20    0.84
  -6  -3   3    2.74    1.02
   5   3  -3  357.02   25.25
   5   3  -3  400.46   25.84
  -5  -3   3  315.24   25.93
   4   3  -3  386.90   31.21
   4   3  -3  440.49   30.30
   4   3  -3  477.79   30.80
  -4  -3   3  415.06   31.01
   3   3  -3   13.56    1.21
   3   3  -3   16.06    2.11
  -3  -3   3   14.75    1.89
  -3  -3   3   15.54    1.78
   2   3  -3  360.25   27.76
  -2  -3   3  389.69   27.70
  -2  -3   3  408.63   27.23
  -2  -3   3  372.06   27.54
   1   3  -3   99.88    6.52
   1   3  -3   82.63    7.24
  -1  -3   3  102.54    6.85
  -1  -3   3   82.12    7.22
  -1  -3   3   85.23    7.08
   0   3  -3  205.99   13.51
   0   3  -3  160.94   14.13
   0   3  -3  216.33   14.40
   0  -3   3  197.46   13.51
   0  -3   3  175.20   14.01
  -1   3  -3  126.41   10.07
  -1   3  -3  123.51   10.53
   1  -3   3  148.02    9.44
   1  -3   3  150.82   10.03
   1  -3   3  117.19   10.22
  -2   3  -3  315.93   24.68
   2  -3   3  372.42   24.65
  -3   3  -3   95.00    7.74
   3  -3   3  116.52    7.74
   3  -3   3   95.60    8.26
  -4   3  -3  245.54   15.13
   4  -3   3  214.13   15.39
   4  -3   3  186.75   16.14
   4  -3   3  207.91   15.41
   5  -3   3    0.69    0.36
   5  -3   3    0.40    0.32
   5  -3   3    0.31    0.73
  -6   3  -3  421.98   28.25
   6  -3   3  364.54   29.64
   6  -3   3  415.47   28.31
  -7   3  -3  187.82   13.06
   7  -3   3  178.23   14.66
  -8   3  -3   11.22    1.10
   8  -3   3   11.82    2.29
  -9   3  -3  209.95   14.93
   9  -3   3  207.51   16.92
 -10   3  -3  249.64   18.63
  10  -3   3  275.86   21.00
 -11   3  -3    1.60    0.53
  11  -3   3   -0.43    1.11
 -12   3  -3  184.67   14.03
  12  -3   3  205.01   16.71
 -13   3  -3    9.13    1.57
  13  -3   3   12.76    3.35
 -14   3  -3   16.78    1.96
  14  -3   3   22.72    4.01
 -15   3  -3  208.81   15.72
  15  -3   3  220.55   18.79
  13   2  -3   97.92    7.28
  13   2  -3   92.69    8.24
 -13  -2   3   90.87    7.18
  12   2  -3   36.21    3.24
  12   2  -3   37.15    4.11
 -12  -2   3   40.55    3.27
  11   2  -3   53.18    4.85
  11   2  -3   49.05    4.01
 -11  -2   3   42.84    4.50
 -11  -2   3   51.36    4.01
  10   2  -3  140.19   10.82
  10   2  -3  141.15    9.89
 -10  -2   3  121.10   10.47
   9   2  -3    1.81    0.77
   9   2  -3    1.51    0.56
  -9  -2   3    0.45    0.81
   8   2  -3  153.76   10.80
   8   2  -3  153.75   11.45
  -8  -2   3  138.59   11.45
   7   2  -3  205.27   14.13
   7   2  -3  192.96   13.62
  -7  -2   3  165.50   14.09
   6   2  -3    5.70    1.07
   6   2  -3    5.17    0.74
  -6  -2   3    7.01    1.36
   5   2  -3  517.06   36.50
   5   2  -3  559.47   36.96
  -5  -2   3  480.82   37.11
   4   2  -3  263.54   18.67
   4   2  -3  286.82   19.04
  -4  -2   3  241.87   19.23
   3   2  -3  226.95   15.19
   3   2  -3  209.84   14.90
  -3  -2   3  188.82   15.41
  -3  -2   3  216.71   15.28
   2   2  -3  406.80   32.01
  -2  -2   3  444.71   31.88
  -2  -2   3  487.69   31.90
   1   2  -3  506.75   36.17
   0   2  -3  174.36   11.83
   0   2  -3  180.63   11.27
   0   2  -3  128.24   11.73
   0  -2   3  151.62   11.69
   0  -2   3  160.79   11.26
  -1   2  -3  229.56   16.17
   1  -2   3  186.89   16.10
   1  -2   3  251.97   16.09
  -2   2  -3   14.69    1.08
   2  -2   3   13.13    1.37
   2  -2   3   12.01    1.60
   2  -2   3   15.38    1.08
   2  -2   3   10.90    1.35
   3  -2   3  339.82   24.24
   3  -2   3  342.41   24.82
   4  -2   3  661.11   46.49
  -5   2  -3   30.22    2.25
   5  -2   3   28.71    2.33
   5  -2   3   30.23    2.32
   5  -2   3   26.58    3.19
  -6   2  -3   72.96    5.39
   6  -2   3   80.89    5.34
   6  -2   3   65.14    6.48
  -7   2  -3  295.22   20.38
   7  -2   3  280.83   21.86
  -8   2  -3   65.94    5.05
   8  -2   3   71.56    6.69
  -9   2  -3  176.90   13.39
   9  -2   3  200.36   15.63
 -10   2  -3   86.62    6.86
  10  -2   3  102.15    8.97
 -11   2  -3   80.45    6.47
  11  -2   3   95.23    8.67
 -12   2  -3  208.91   15.82
  12  -2   3  231.68   18.31
  13  -2   3   55.12    9.09
 -14   2  -3   38.11    3.60
  14  -2   3   48.10    6.06
 -15   2  -3   66.87    5.74
  15  -2   3   78.64    8.38
  13   1  -3   71.72    6.82
  13   1  -3   73.33    5.88
 -13  -1   3   77.29    5.86
  12   1  -3   -0.71    0.57
  12   1  -3   -0.21    0.83
 -12  -1   3   -1.40    0.66
 -12  -1   3   -0.92    0.51
  11   1  -3  205.78   14.63
 -11  -1   3  167.74   14.00
  10   1  -3  337.67   23.06
  10   1  -3  318.43   24.39
 -10  -1   3  313.42   23.59
   9   1  -3    6.98    0.97
   9   1  -3    7.28    1.53
  -9  -1   3    6.50    1.41
   8   1  -3   94.28    6.63
   8   1  -3   89.97    7.20
  -8  -1   3   82.63    7.11
   7   1  -3  189.62   13.93
   7   1  -3  187.91   13.38
  -7  -1   3  183.04   13.95
   6   1  -3   83.05    6.11
   6   1  -3   87.11    6.58
  -6  -1   3   79.47    6.64
   5   1  -3  128.69    9.33
   5   1  -3  125.49    8.94
  -5  -1   3  118.96    9.45
   4   1  -3   46.81    3.55
   4   1  -3   53.69    3.86
  -4  -1   3   43.85    3.96
  -4  -1   3   46.10    4.02
  -1  -1   3  401.10   28.14
  -1  -1   3  390.04   27.92
   0   1  -3  102.02    6.67
   0   1  -3   87.82    6.90
   0  -1   3   86.04    7.00
   0  -1   3   99.22    6.67
  -1   1  -3   49.22    3.80
   1  -1   3   44.59    3.85
   1  -1   3   52.65    3.87
   1  -1   3   41.49    3.81
   1  -1   3   57.13    3.55
  -2   1  -3  131.24    9.77
   2  -1   3  126.07   10.06
   2  -1   3  149.09    9.86
  -4   1  -3  353.76   25.34
   4  -1   3  366.44   26.17
  -5   1  -3  178.54   13.72
  -5   1  -3  217.97   13.78
   5  -1   3  187.58   14.73
  -6   1  -3  153.22   10.41
   6  -1   3  137.50   11.48
   6  -1   3  145.65   10.26
  -7   1  -3  121.65    8.70
   7  -1   3  120.21    9.99
  -8   1  -3   78.55    5.88
   8  -1   3   81.76    7.29
  -9   1  -3  246.53   17.86
   9  -1   3  256.36   19.58
 -10   1  -3   84.51    6.41
  10  -1   3   88.42    8.18
 -11   1  -3  303.53   22.35
  11  -1   3  325.41   24.45
 -12   1  -3   39.48    3.41
  12  -1   3   42.78    5.27
  13  -1   3   16.75    3.21
 -14   1  -3  167.08   12.79
  14  -1   3  181.32   15.39
 -15   1  -3  128.10    9.73
  15  -1   3  127.94   12.24
  13   0  -3   70.09    6.91
  13   0  -3   80.90    5.94
 -13   0   3   72.40    5.81
  12   0  -3    4.13    0.91
  12   0  -3    2.62    1.32
 -12   0   3    3.62    0.87
  11   0  -3   59.59    5.50
  11   0  -3   65.52    4.61
 -11   0   3   48.28    4.74
  10   0  -3   13.44    2.36
  10   0  -3   12.27    1.33
 -10   0   3    8.49    1.51
   9   0  -3   61.77    4.28
   9   0  -3   52.46    4.93
  -9   0   3   49.82    4.60
   8   0  -3  312.82   21.21
   8   0  -3  292.22   21.85
  -8   0   3  290.32   21.64
   7   0  -3   49.40    3.74
   7   0  -3   45.99    4.22
  -7   0   3   51.09    4.21
   6   0  -3  276.55   20.30
   6   0  -3  284.98   19.84
  -6   0   3  279.09   20.29
   5   0  -3  299.73   21.89
   5   0  -3  319.81   21.53
  -5   0   3  295.61   21.95
   4   0  -3   26.85    1.99
   4   0  -3   25.77    2.23
  -4   0   3   23.57    2.41
  -4   0   3   24.69    2.35
   1   0  -3  151.52    9.93
   1   0  -3  127.37   10.17
  -1   0   3  129.02   10.22
  -1   0   3  153.68    9.94
  -1   0  -3   99.96    8.50
   1   0   3  136.32    8.37
   1   0   3  117.84    8.55
   1   0   3  119.08    8.60
  -2   0  -3  199.00   12.59
   2   0   3  157.62   12.89
   2   0   3  159.66   12.72
   2   0   3  197.98   12.58
  -4   0  -3  199.35   13.26
   4   0   3  197.95   13.31
   4   0   3  163.92   13.84
  -5   0  -3  306.89   20.55
   5   0   3  275.78   21.34
  -6   0  -3  413.64   33.52
   6   0   3  550.39   34.84
  -7   0  -3    1.72    0.20
  -7   0  -3    1.70    0.36
   7   0   3    1.24    0.84
  -8   0  -3  150.27   11.01
   8   0   3  157.20   12.32
  -9   0  -3  419.01   30.39
   9   0   3  442.94   31.95
 -10   0  -3   14.51    1.42
  10   0   3   15.33    2.70
 -11   0  -3   86.68    6.70
  11   0   3   92.51    8.39
 -12   0  -3  162.22   12.45
  12   0   3  180.94   14.51
  13   0   3    3.56    1.84
 -14   0  -3   74.68    6.34
  14   0   3   89.91    8.74
 -15   0  -3   37.02    3.42
  15   0   3   40.84    5.55
  13  -1  -3   65.60    6.52
  13  -1  -3   66.38    5.18
 -13   1   3   59.64    5.07
  12  -1  -3   28.65    3.78
  12  -1  -3   33.42    2.81
 -12   1   3   29.04    2.69
  11  -1  -3  130.96    9.52
  11  -1  -3  125.85   10.61
  10  -1  -3   39.41    2.89
  10  -1  -3   30.68    5.04
 -10   1   3   30.64    3.04
   9  -1  -3  129.25    8.91
   9  -1  -3  125.71    9.84
  -9   1   3  109.69    9.14
   8  -1  -3  229.45   17.31
   8  -1  -3  245.16   16.52
  -8   1   3  219.34   16.81
   7  -1  -3    9.61    1.51
   7  -1  -3   10.54    1.08
  -7   1   3   10.97    1.36
   6  -1  -3  166.77   13.00
   6  -1  -3  182.46   12.46
   5  -1  -3  398.61   26.36
   5  -1  -3  351.00   26.79
  -5   1   3  373.66   26.67
   4  -1  -3   13.47    1.47
   4  -1  -3   15.70    1.19
  -4   1   3   13.67    1.44
  -4   1   3   12.03    1.60
   1  -1  -3  153.78   12.30
   1  -1  -3  184.47   12.11
  -1   1   3  187.54   12.12
  -1   1   3  157.22   12.32
  -1   1   3  176.07   12.26
  -2  -1  -3    7.19    0.61
  -2  -1  -3    6.38    0.85
  -2  -1  -3    4.86    0.71
   2   1   3    6.82    0.57
   2   1   3    8.11    0.93
  -3  -1  -3  156.16   13.16
  -3  -1  -3  199.09   12.76
   3   1   3  188.38   12.74
   3   1   3  187.71   12.87
   3   1   3  171.81   13.20
  -4  -1  -3   55.97    3.86
   4   1   3   49.17    4.37
  -5  -1  -3  315.24   25.01
   5   1   3  399.02   25.88
  -6  -1  -3  174.80   12.02
   6   1   3  162.66   12.85
  -7  -1  -3   40.07    3.18
   7   1   3   45.38    3.31
   7   1   3   39.24    4.05
  -8  -1  -3  236.13   16.29
   8   1   3  208.53   16.26
   8   1   3  245.33   17.54
  -9  -1  -3  239.38   19.02
  -9  -1  -3  288.34   19.21
   9   1   3  287.42   20.60
 -10  -1  -3   76.87    5.77
  10   1   3   76.46    7.12
 -11  -1  -3  105.08    7.94
  11   1   3  109.47    9.54
 -12  -1  -3   79.54    6.00
  12   1   3   76.14    7.56
 -13  -1  -3   74.63    5.98
  13   1   3   79.30    7.80
 -14  -1  -3  111.78    8.79
  14   1   3  121.05   10.84
 -15  -1  -3   10.02    1.51
  15   1   3    9.42    2.90
  13  -2  -3   36.10    3.20
  13  -2  -3   39.74    4.65
 -13   2   3   31.44    3.10
  12  -2  -3   64.36    6.40
  12  -2  -3   62.71    5.01
 -12   2   3   62.84    4.98
  11  -2  -3  110.08    9.48
  11  -2  -3  103.62    8.08
 -11   2   3  111.66    8.11
  10  -2  -3    5.09    0.83
  10  -2  -3    3.83    1.44
 -10   2   3    2.12    0.67
   9  -2  -3  265.89   17.70
   9  -2  -3  260.95   18.92
  -9   2   3  217.68   17.79
   8  -2  -3  179.20   13.91
   8  -2  -3  178.95   12.86
   7  -2  -3   32.62    3.31
   7  -2  -3   33.00    2.47
  -7   2   3   27.12    2.63
   6  -2  -3  171.16   12.89
   6  -2  -3  191.68   12.08
  -6   2   3  145.24   12.21
   5  -2  -3  266.76   19.41
   5  -2  -3  282.23   18.68
  -5   2   3  244.22   18.86
   4  -2  -3  169.79   10.93
   4  -2  -3  154.51   11.56
  -4   2   3  137.27   11.10
   2  -2  -3  278.00   20.39
  -2   2   3  267.15   20.44
  -2   2   3  306.98   20.19
   1  -2  -3  199.93   16.58
   1  -2  -3  242.52   16.48
  -1   2   3  252.93   16.72
  -1   2   3  229.41   16.44
   0  -2  -3  180.30   13.45
   0  -2  -3  206.92   13.69
   0  -2  -3  181.14   13.84
   0   2   3  198.06   13.47
  -1  -2  -3  211.53   14.02
  -1  -2  -3  166.83   13.93
   1   2   3  177.06   13.94
   1   2   3  203.04   13.80
   1   2   3  220.87   14.06
  -4  -2  -3   50.99    4.53
  -4  -2  -3   65.04    4.44
   4   2   3   56.73    4.99
   4   2   3   72.01    4.67
  -5  -2  -3  556.60   39.19
  -6  -2  -3  223.98   14.60
  -6  -2  -3  184.80   14.70
   6   2   3  209.14   15.45
  -7  -2  -3    1.76    0.45
  -7  -2  -3    1.29    0.36
   7   2   3    1.05    0.77
   7   2   3    1.32    0.52
  -8  -2  -3  144.85   11.57
  -8  -2  -3  157.98   11.26
   8   2   3  162.94   12.38
   8   2   3  162.22   11.56
  -9  -2  -3   41.36    3.20
   9   2   3   37.84    3.36
   9   2   3   42.74    4.32
 -10  -2  -3   45.44    3.64
 -10  -2  -3   53.07    3.69
  10   2   3   51.39    4.88
  10   2   3   38.39    3.62
 -11  -2  -3  306.47   21.60
  11   2   3  298.60   23.06
 -12  -2  -3   27.27    2.47
  12   2   3   27.72    3.77
 -13  -2  -3   89.12    6.88
  13   2   3   90.68    8.56
 -14  -2  -3   75.64    6.22
  14   2   3   83.47    8.10
 -15  -2  -3    4.91    1.05
  15   2   3    5.91    2.15
  13  -3  -3    4.08    0.85
  13  -3  -3    2.20    1.77
 -13   3   3    4.48    0.88
  12  -3  -3   82.46    7.96
  12  -3  -3   81.77    6.26
 -12   3   3   78.63    6.21
  11  -3  -3  158.03   12.26
  11  -3  -3  182.71   14.11
 -11   3   3  165.81   12.26
  10  -3  -3    3.08    0.62
  10  -3  -3    2.11    1.24
 -10   3   3    1.49    0.47
   9  -3  -3  159.30   11.92
   9  -3  -3  151.37   10.33
  -9   3   3  120.64   10.28
   8  -3  -3   28.37    3.39
   8  -3  -3   29.46    2.23
  -8   3   3   23.08    2.25
   7  -3  -3    8.27    1.81
   7  -3  -3    8.14    0.84
  -7   3   3    6.32    0.88
   6  -3  -3  347.43   24.88
   6  -3  -3  367.90   23.70
  -6   3   3  293.52   23.78
   5  -3  -3  289.32   18.82
   5  -3  -3  282.29   19.89
  -5   3   3  229.59   18.93
   4  -3  -3  209.81   12.98
   4  -3  -3  175.37   13.81
  -4   3   3  164.25   13.11
   3  -3  -3  385.40   28.10
  -3   3   3  393.04   27.52
   2  -3  -3  110.10    8.58
   2  -3  -3  131.32    7.88
  -2   3   3  106.08    8.06
  -2   3   3   95.07    8.48
   1  -3  -3   59.93    5.61
   1  -3  -3   71.71    5.30
   1  -3  -3   73.16    5.00
  -1   3   3   82.30    5.02
  -1   3   3   71.13    5.72
  -1   3   3   62.20    5.20
   0  -3  -3   65.85    4.66
   0  -3  -3   66.25    4.96
   0  -3  -3   66.87    5.34
   0   3   3   63.64    4.90
  -1  -3  -3   10.57    1.13
  -1  -3  -3   11.80    1.43
  -1  -3  -3   11.28    0.81
  -1  -3  -3    8.66    1.01
   1   3   3   10.11    0.80
   1   3   3    8.25    1.01
   1   3   3   13.49    1.47
   1   3   3    8.95    1.09
  -2  -3  -3  390.81   27.67
  -3  -3  -3  151.03   11.59
  -3  -3  -3  159.37   11.16
   3   3   3  165.91   11.75
   3   3   3  142.93   11.12
   3   3   3  171.40   11.49
   4   3   3  488.99   34.61
  -6  -3  -3  150.53   11.04
   6   3   3  147.37   11.87
   6   3   3  167.23   11.52
  -7  -3  -3  149.13   10.56
   7   3   3  151.81   11.04
   7   3   3  140.70   11.46
  -8  -3  -3  141.99   10.66
   8   3   3  153.44   11.20
   8   3   3  150.14   11.75
   9   3   3   14.93    3.71
 -10  -3  -3  263.51   19.27
 -10  -3  -3  284.62   19.01
  10   3   3  225.88   19.45
  10   3   3  291.48   20.42
 -11  -3  -3  296.02   18.89
 -11  -3  -3  226.03   19.06
  11   3   3  296.76   20.46
  11   3   3  237.45   19.54
 -12  -3  -3    0.51    0.49
  12   3   3    1.37    0.97
 -13  -3  -3  127.54    9.48
  13   3   3  126.74   11.93
 -14  -3  -3   77.78    6.08
  14   3   3   76.12    7.79
 -15  -3  -3    9.46    1.47
  15   3   3    9.66    2.70
  13  -4  -3   -0.48    0.53
  13  -4  -3   -0.40    1.67
 -13   4   3    0.56    0.49
  12  -4  -3  101.01    9.23
  12  -4  -3   88.04    7.17
 -12   4   3   96.93    7.19
  11  -4  -3   82.53    6.28
  11  -4  -3   80.24    8.03
 -11   4   3   83.83    6.27
  10  -4  -3   31.54    2.41
  10  -4  -3   34.06    4.11
 -10   4   3   22.49    2.18
   9  -4  -3  159.34   10.73
  -9   4   3  137.81   10.67
   8  -4  -3   14.04    2.52
   8  -4  -3   13.10    1.33
  -8   4   3   13.40    1.37
   7  -4  -3   42.91    4.53
   7  -4  -3   46.55    3.23
  -7   4   3   36.52    3.26
   6  -4  -3  105.09    6.89
   6  -4  -3   89.56    8.09
  -6   4   3   89.15    6.99
   5  -4  -3    3.51    1.25
   5  -4  -3    3.55    0.52
  -5   4   3    3.81    0.67
   3  -4  -3  340.37   27.10
  -3   4   3  402.57   26.37
   2  -4  -3   66.50    4.54
   2  -4  -3   52.20    5.39
  -2   4   3   61.49    4.78
  -2   4   3   70.85    4.56
   1  -4  -3   80.59    7.36
   1  -4  -3   92.25    6.46
  -1   4   3  101.12    6.48
  -1   4   3   89.13    6.75
  -1  -4  -3   10.07    1.47
  -1  -4  -3    9.87    0.76
   1   4   3    9.64    0.76
   1   4   3    9.30    1.05
  -3  -4  -3   38.12    3.42
  -3  -4  -3   35.77    2.43
   3   4   3   28.23    2.36
   3   4   3   33.85    2.84
   3   4   3   29.42    2.97
  -4  -4  -3  360.45   25.89
   4   4   3  374.90   26.39
   4   4   3  371.38   26.67
  -6  -4  -3   68.70    5.11
   6   4   3   73.93    6.07
   6   4   3   66.66    5.65
  -7  -4  -3  401.83   29.47
   7   4   3  428.68   30.18
   7   4   3  425.95   30.56
  -8  -4  -3  579.17   41.97
   8   4   3  611.90   43.16
   8   4   3  600.89   42.72
  -9  -4  -3   34.09    2.88
   9   4   3   32.23    3.72
   9   4   3   34.74    3.41
 -10  -4  -3  190.42   13.50
  10   4   3  187.20   14.77
  10   4   3  184.25   14.20
 -11  -4  -3   61.00    5.53
 -11  -4  -3   72.26    5.23
  11   4   3   62.74    5.77
  11   4   3   76.46    6.65
 -12  -4  -3   27.47    2.41
 -12  -4  -3   22.66    2.54
  12   4   3   31.25    3.72
 -13  -4  -3  213.69   15.88
  13   4   3  224.85   17.80
 -14  -4  -3   79.19    6.08
  14   4   3   75.08    7.61
  13  -5  -3   28.18    4.41
  13  -5  -3   26.40    2.62
 -13   5   3   29.45    2.60
  12  -5  -3  164.63   13.83
  12  -5  -3  148.67   11.43
 -12   5   3  155.47   11.41
  11  -5  -3   31.24    4.43
  11  -5  -3   30.44    2.69
 -11   5   3   30.21    2.65
  10  -5  -3  170.16   14.23
  10  -5  -3  182.06   12.21
 -10   5   3  144.83   11.99
 -10   5   3  180.00   12.18
   9  -5  -3  103.20    7.02
   9  -5  -3   91.91    8.78
  -9   5   3   88.57    6.97
   8  -5  -3    1.90    0.53
   8  -5  -3    1.17    1.25
  -8   5   3    2.15    0.59
   7  -5  -3  330.75   26.28
   7  -5  -3  371.19   24.66
  -7   5   3  343.36   24.80
   6  -5  -3  235.27   16.15
   6  -5  -3  227.76   17.74
  -6   5   3  220.04   16.33
   5  -5  -3   36.00    4.06
   5  -5  -3   38.67    2.80
  -5   5   3   35.21    2.99
   4  -5  -3  418.75   26.37
   4  -5  -3  325.55   27.61
  -4   5   3  378.26   26.63
   3  -5  -3  211.07   17.94
   3  -5  -3  260.15   16.69
  -3   5   3  237.05   16.99
   2  -5  -3  205.20   14.73
  -2   5   3  204.78   15.08
  -2   5   3  218.46   14.73
   1  -5  -3  568.54   41.14
   0  -5  -3  396.81   29.04
  -1  -5  -3  161.83   11.33
   1   5   3  160.99   11.32
  -2  -5  -3  763.30   54.60
  -3  -5  -3  189.61   12.05
  -3  -5  -3  190.75   13.36
   3   5   3  141.70   11.97
   3   5   3  177.84   12.63
   3   5   3  157.67   12.71
  -4  -5  -3   39.12    3.74
  -4  -5  -3   34.45    2.59
   4   5   3   32.17    3.30
   4   5   3   33.60    3.18
  -5  -5  -3  210.93   15.12
   5   5   3  218.49   15.85
   5   5   3  212.28   16.04
  -6  -5  -3   10.27    0.95
   6   5   3   10.17    1.64
   6   5   3    8.99    1.55
  -7  -5  -3  425.36   31.76
   7   5   3  482.47   33.01
   7   5   3  447.48   32.63
  -8  -5  -3  208.69   15.11
   8   5   3  208.67   16.02
   8   5   3  218.38   16.35
  -9  -5  -3    0.35    0.34
   9   5   3    0.18    0.90
   9   5   3    1.03    1.02
 -10  -5  -3  149.65   11.15
  10   5   3  155.95   12.18
  10   5   3  156.72   12.48
 -11  -5  -3   15.51    2.16
 -11  -5  -3   15.78    1.59
  11   5   3   14.70    2.56
  11   5   3   17.48    2.56
 -12  -5  -3   30.59    3.37
 -12  -5  -3   37.09    2.97
  12   5   3   37.61    4.30
  12   5   3   34.66    3.81
 -13  -5  -3  173.65   12.75
  13   5   3  174.41   14.30
 -14  -5  -3   19.10    1.99
  14   5   3   16.94    3.18
  13  -6  -3   27.11    2.52
  13  -6  -3   25.50    4.41
 -13   6   3   25.94    2.44
  12  -6  -3   70.96    8.78
  12  -6  -3   77.03    5.78
 -12   6   3   72.63    5.70
  11  -6  -3    4.91    2.12
  11  -6  -3    6.03    0.96
 -11   6   3    5.09    0.86
  10  -6  -3  203.53   17.46
  10  -6  -3  209.34   15.26
 -10   6   3  221.98   15.25
   9  -6  -3  141.35   12.76
   9  -6  -3  144.44   10.74
  -9   6   3  157.14   10.75
   8  -6  -3    5.88    0.81
   8  -6  -3    2.71    1.67
  -8   6   3    4.70    0.88
   7  -6  -3   77.20    8.04
   7  -6  -3   94.99    6.41
  -7   6   3   86.41    6.66
   6  -6  -3   14.49    1.22
   6  -6  -3   10.13    2.48
   5  -6  -3   92.73    9.05
   5  -6  -3  110.15    7.49
  -5   6   3  106.73    8.06
   4  -6  -3  593.09   43.40
   3  -6  -3   89.55    6.08
   3  -6  -3   75.97    7.58
  -3   6   3   86.64    6.49
   2  -6  -3    1.62    0.24
   2  -6  -3    0.77    0.78
  -2   6   3    1.74    0.52
   1  -6  -3  211.45   18.03
   1  -6  -3  228.39   16.53
  -1   6   3  241.13   17.08
  -1   6   3  259.69   16.55
   0  -6  -3  111.95    8.17
   0  -6  -3  102.65    9.57
   0   6   3  120.49    8.78
   0   6   3  127.94    8.19
  -1  -6  -3  545.70   39.70
  -2  -6  -3   41.16    4.29
  -2  -6  -3   37.48    2.97
  -2  -6  -3   47.41    3.00
   2   6   3   41.76    3.66
   2   6   3   39.92    2.96
  -3  -6  -3    2.38    1.01
  -3  -6  -3    2.48    0.33
  -3  -6  -3    2.05    0.28
   3   6   3    1.36    0.67
   3   6   3    3.53    0.90
  -4  -6  -3  468.57   31.75
  -4  -6  -3  485.82   33.34
   4   6   3  438.52   32.53
   4   6   3  418.51   32.62
  -5  -6  -3  250.26   18.28
  -5  -6  -3  238.83   16.78
   5   6   3  238.51   17.68
   5   6   3  223.84   17.74
  -6  -6  -3    1.94    0.38
  -6  -6  -3    1.21    0.84
   6   6   3    1.23    0.86
   6   6   3    2.45    1.08
  -7  -6  -3  335.72   25.42
  -7  -6  -3  370.89   26.98
   7   6   3  371.20   26.71
   7   6   3  366.27   26.52
  -8  -6  -3   51.45    4.08
   8   6   3   57.47    5.35
   8   6   3   53.17    5.15
  -9  -6  -3  226.54   16.20
   9   6   3  230.91   17.56
   9   6   3  222.94   17.38
 -10  -6  -3  107.31    7.87
  10   6   3  107.40    9.23
  10   6   3  104.62    9.11
 -11  -6  -3   12.73    1.41
 -11  -6  -3   12.82    2.53
  11   6   3   13.35    2.79
  11   6   3   13.76    2.43
 -12  -6  -3   69.08    6.52
 -12  -6  -3   78.74    5.84
  12   6   3   74.25    7.02
  12   6   3   81.87    8.15
 -13  -6  -3   80.99    7.73
 -13  -6  -3  108.46    7.31
  13   6   3  104.74    8.97
  13   6   3   88.42    8.26
 -14  -6  -3   -0.49    0.67
  14   6   3   -0.50    1.06
  13  -7  -3   91.33    9.06
  13  -7  -3   73.74    6.10
 -13   7   3   74.88    6.04
  12  -7  -3   42.33    5.73
  12  -7  -3   38.24    3.34
 -12   7   3   38.86    3.30
  11  -7  -3   19.39    4.19
  11  -7  -3   19.12    1.86
 -11   7   3   17.96    1.80
  10  -7  -3  149.41   10.38
  10  -7  -3  123.04   12.45
 -10   7   3  148.96   10.33
   9  -7  -3   96.58    6.92
   9  -7  -3   95.32    9.25
  -9   7   3   80.11    6.97
  -9   7   3  102.09    6.89
   8  -7  -3  111.17    7.77
   8  -7  -3   91.43    9.72
  -8   7   3  111.25    7.75
   7  -7  -3  467.28   31.14
   7  -7  -3  413.00   33.30
  -7   7   3  441.70   31.51
   6  -7  -3    1.98    0.43
   6  -7  -3   -0.09    1.23
  -6   7   3    3.04    0.83
   5  -7  -3  190.68   12.57
   5  -7  -3  156.29   14.48
  -5   7   3  179.37   13.05
   4  -7  -3  256.07   16.19
   4  -7  -3  204.00   18.07
  -4   7   3  222.71   16.67
   3  -7  -3  204.82   13.66
   3  -7  -3  177.04   15.60
  -3   7   3  195.97   14.23
   2  -7  -3  159.96   15.31
   2  -7  -3  192.43   13.61
  -2   7   3  200.51   14.26
  -2   7   3  215.98   13.62
   1  -7  -3  167.48   12.24
   1  -7  -3  147.77   13.92
  -1   7   3  178.17   12.94
  -1   7   3  199.42   12.25
   0  -7  -3   36.86    4.59
   0   7   3   48.49    3.94
   0   7   3   47.34    3.18
  -1  -7  -3  409.22   29.36
  -1  -7  -3  403.46   31.20
   1   7   3  449.46   30.25
  -2  -7  -3  226.37   15.33
  -2  -7  -3  210.83   17.09
   2   7   3  217.17   16.20
  -3  -7  -3   11.95    1.10
  -3  -7  -3   15.63    2.58
  -3  -7  -3   17.05    1.16
   3   7   3   16.00    1.98
  -4  -7  -3  113.60    9.44
  -4  -7  -3  106.94    7.67
   4   7   3  102.84    8.61
  -5  -7  -3   74.31    6.53
  -5  -7  -3   66.83    4.84
   5   7   3   63.19    5.84
   5   7   3   62.11    5.82
  -6  -7  -3  109.48    7.83
  -6  -7  -3  113.60    9.48
   6   7   3  104.77    8.95
   6   7   3  106.81    8.98
  -7  -7  -3  287.71   21.42
  -7  -7  -3  311.69   23.19
   7   7   3  294.00   22.67
   7   7   3  320.37   22.85
  -8  -7  -3   28.39    2.28
  -8  -7  -3   30.13    3.79
   8   7   3   20.96    3.61
   8   7   3   28.42    3.49
  -9  -7  -3  153.83   11.67
  -9  -7  -3  170.81   13.57
   9   7   3  152.57   13.03
   9   7   3  171.49   13.22
 -10  -7  -3   93.62    7.30
 -10  -7  -3  104.21    9.20
  10   7   3  101.00    8.75
  10   7   3   97.02    8.81
 -11  -7  -3    0.52    0.42
 -11  -7  -3    0.70    0.88
 -11  -7  -3    0.75    1.28
  11   7   3    0.57    1.29
  11   7   3    0.69    1.14
 -12  -7  -3  125.93   11.41
 -12  -7  -3  163.31   13.08
  12   7   3  137.93   12.03
  12   7   3  148.13   12.12
 -13  -7  -3   54.59    6.02
 -13  -7  -3   70.42    5.39
 -13  -7  -3   85.17    8.18
  13   7   3   65.67    6.80
  13   7   3   72.41    6.98
  12  -8  -3   43.67    6.08
  12  -8  -3   44.11    3.52
 -12   8   3   36.55    3.34
  11  -8  -3   11.66    3.43
  11  -8  -3   11.79    1.34
 -11   8   3   10.21    1.25
  10  -8  -3  122.47   12.22
  10  -8  -3  141.67    9.71
 -10   8   3  128.86    9.60
   9  -8  -3   53.88    6.93
   9  -8  -3   65.26    4.78
  -9   8   3   63.87    4.71
   8  -8  -3   27.67    4.69
   8  -8  -3   37.63    2.84
  -8   8   3   38.42    2.91
  -8   8   3   32.57    3.16
   7  -8  -3  146.97   10.29
   7  -8  -3  140.88   12.83
  -7   8   3  149.70   10.25
  -7   8   3  132.44   10.76
   6  -8  -3    0.85    1.62
   6  -8  -3    0.48    0.30
  -6   8   3    1.33    0.75
  -6   8   3    0.88    0.34
   5  -8  -3  273.44   24.26
   5  -8  -3  318.07   21.99
  -5   8   3  305.55   22.62
  -5   8   3  344.01   21.96
   4  -8  -3   58.59    7.14
   4  -8  -3   85.03    5.37
  -4   8   3   70.88    5.92
   3  -8  -3    1.77    0.28
   3  -8  -3    1.96    1.32
  -3   8   3    1.27    0.68
   2  -8  -3  249.29   18.15
  -2   8   3  242.90   18.89
  -2   8   3  285.83   18.25
  -2   8   3  257.42   18.13
   1  -8  -3  151.26   13.77
  -1   8   3  180.85   12.60
   0  -8  -3  147.24   12.79
   0   8   3  157.12   11.59
  -1  -8  -3  305.61   23.52
   1   8   3  304.02   22.28
  -2  -8  -3    2.38    0.22
  -2  -8  -3    2.04    1.27
  -2  -8  -3    2.58    0.27
   2   8   3    1.72    0.81
  -3  -8  -3  189.29   12.71
  -3  -8  -3  176.02   14.75
   3   8   3  173.80   13.77
  -4  -8  -3  338.51   26.33
  -4  -8  -3  362.61   24.28
   4   8   3  333.71   25.44
  -5  -8  -3   19.59    1.58
  -5  -8  -3   20.04    3.20
   5   8   3   19.67    2.72
  -6  -8  -3  108.39    9.55
  -6  -8  -3  107.73    7.62
   6   8   3  107.98    8.97
   6   8   3   97.57    8.87
  -7  -8  -3  289.42   20.85
  -7  -8  -3  261.99   18.69
   7   8   3  245.95   20.07
   7   8   3  258.78   20.09
  -8  -8  -3   51.55    3.79
  -8  -8  -3   49.32    5.49
   8   8   3   50.39    5.24
   8   8   3   45.95    5.08
  -9  -8  -3  162.42   13.76
  -9  -8  -3  158.64   11.81
   9   8   3  169.60   13.52
   9   8   3  166.81   13.40
 -10  -8  -3   83.21    8.14
 -10  -8  -3   80.28    6.18
  10   8   3   82.27    7.69
  10   8   3   85.70    7.92
 -11  -8  -3    2.50    1.44
 -11  -8  -3    2.58    0.61
 -11  -8  -3    3.55    1.42
  11   8   3    3.37    1.60
  11   8   3    2.07    1.74
 -12  -8  -3  137.85   12.58
 -12  -8  -3  129.57   11.44
 -12  -8  -3  140.81   10.26
  12   8   3  144.44   12.23
  12   8   3  144.29   11.98
  12  -9  -3    6.98    2.96
  12  -9  -3    5.56    0.99
 -12   9   3    7.65    1.11
  11  -9  -3   44.40    3.71
  11  -9  -3   48.49    6.41
 -11   9   3   45.00    3.66
  10  -9  -3   76.50    6.08
 -10   9   3   84.19    6.05
   9  -9  -3   12.46    3.62
   9  -9  -3   13.22    1.35
  -9   9   3   10.62    1.58
  -9   9   3   12.63    1.24
   8  -9  -3  149.38   10.16
   8  -9  -3  138.99   13.00
  -8   9   3  125.88   10.46
   7  -9  -3  108.12    7.56
   7  -9  -3  104.91   10.36
  -7   9   3   92.47    8.15
  -7   9   3  108.24    7.50
   6  -9  -3   32.66    2.56
   6  -9  -3   27.72    4.78
  -6   9   3   35.44    2.52
  -6   9   3   31.84    3.24
   5  -9  -3  181.13   12.48
   5  -9  -3  156.51   15.13
  -5   9   3  181.83   13.36
  -5   9   3  178.97   12.42
   4  -9  -3  133.81   13.10
   4  -9  -3  156.50   10.52
  -4   9   3  153.14   11.42
  -4   9   3  146.13   10.46
   3  -9  -3   21.99    4.31
  -3   9   3   20.18    2.52
  -3   9   3   23.64    1.74
  -3   9   3   25.89    1.76
   2  -9  -3  271.15   23.10
  -2   9   3  314.67   21.60
   1  -9  -3   60.22    7.00
  -1   9   3   76.66    5.95
   0  -9  -3   48.06    5.84
   0   9   3   56.26    4.81
  -1  -9  -3  172.42   14.94
   1   9   3  185.01   13.69
  -2  -9  -3   10.60    2.70
   2   9   3    9.32    1.78
  -3  -9  -3  240.48   18.98
  -3  -9  -3  293.47   18.99
  -3  -9  -3  283.57   21.84
  -4  -9  -3  249.70   17.36
  -4  -9  -3  238.91   19.71
   4   9   3  251.56   18.80
  -5  -9  -3    2.85    1.67
   5   9   3    0.08    1.06
  -6  -9  -3  194.73   15.91
  -6  -9  -3  191.95   13.61
   6   9   3  188.63   15.19
  -7  -9  -3  143.70    9.95
  -7  -9  -3  131.10   11.95
   7   9   3  139.60   11.64
  -8  -9  -3    0.02    1.06
  -8  -9  -3    1.15    0.37
   8   9   3    0.97    0.92
   8   9   3   -0.18    1.10
  -9  -9  -3   69.78    7.32
  -9  -9  -3   73.62    5.45
   9   9   3   72.59    6.99
   9   9   3   73.72    7.14
 -10  -9  -3    4.88    0.83
  10   9   3    4.84    2.10
 -11  -9  -3  106.02    7.86
 -11  -9  -3  108.79    9.41
 -11  -9  -3  106.19   10.13
  11   9   3  106.16    9.57
  11   9   3  101.34    9.74
 -12  -9  -3   70.80    5.40
 -12  -9  -3   62.86    6.67
 -12  -9  -3   67.74    7.65
  12   9   3   68.17    6.99
  12   9   3   82.90    7.75
  11 -10  -3   95.09   10.57
 -11  10   3   94.59    7.06
  10 -10  -3   40.36    6.03
 -10  10   3   38.59    3.12
   9 -10  -3    0.41    2.26
  -9  10   3    0.56    0.60
  -9  10   3   -0.22    0.32
   8 -10  -3  115.51   11.54
  -8  10   3  115.73    8.09
  -8  10   3  100.71    8.70
   7 -10  -3   50.21    6.54
  -7  10   3   48.06    3.66
  -7  10   3   50.64    4.64
   6 -10  -3   46.61    6.31
  -6  10   3   51.25    3.66
  -6  10   3   49.70    4.64
   5 -10  -3  245.45   20.57
  -5  10   3  233.59   17.12
  -5  10   3  254.12   18.30
   4 -10  -3   12.91    3.50
  -4  10   3   11.05    1.99
  -4  10   3   10.26    0.84
   3 -10  -3   77.64    8.49
  -3  10   3   80.96    5.74
  -3  10   3   74.67    6.81
  -3  10   3   88.12    5.76
   2 -10  -3  166.91   15.32
  -2  10   3  187.28   13.69
   1 -10  -3   18.79    3.63
   0 -10  -3  162.84   13.96
   0  10   3  154.76   12.30
  -1 -10  -3  106.18   10.22
   1  10   3  110.59    8.91
  -2 -10  -3    3.47    1.74
   2  10   3    6.99    1.67
  -3 -10  -3  280.47   23.07
   3  10   3  299.65   21.89
  -4 -10  -3   63.14    7.08
  -4 -10  -3   61.77    4.55
   4  10   3   70.64    6.20
  -5 -10  -3    7.05    2.43
  -5 -10  -3    4.95    0.54
   5  10   3    5.19    1.79
  -6 -10  -3  210.91   17.72
  -6 -10  -3  212.36   15.15
   6  10   3  220.82   17.04
  -7 -10  -3    9.76    0.99
  -7 -10  -3    8.63    2.57
   7  10   3   10.83    2.65
  -8 -10  -3   39.85    5.55
  -8 -10  -3   53.87    3.81
   8  10   3   55.03    5.75
  -9 -10  -3  156.56   11.14
   9  10   3  150.91   13.20
 -10 -10  -3   18.31    1.71
 -10 -10  -3   16.93    3.76
  10  10   3   18.07    3.59
 -11 -10  -3   50.42    3.80
 -11 -10  -3   45.81    5.24
 -11 -10  -3   41.53    5.72
  11  10   3   49.97    5.85
  11 -11  -3   82.49    9.70
 -11  11   3   69.71    5.52
  10 -11  -3   43.94    6.43
 -10  11   3   35.30    2.96
   9 -11  -3   12.18    4.00
  -9  11   3   10.70    2.44
  -9  11   3   12.86    1.21
   8 -11  -3   79.99    9.10
  -8  11   3   71.01    5.19
  -8  11   3   65.68    6.14
   7 -11  -3   13.02    3.79
  -7  11   3   12.72    1.08
  -7  11   3   10.99    1.90
   6 -11  -3   41.94    6.03
  -6  11   3   35.26    2.70
  -6  11   3   36.71    4.44
   5 -11  -3  188.44   17.11
  -5  11   3  190.85   13.45
  -5  11   3  194.12   14.83
   4 -11  -3    0.04    1.58
  -4  11   3   -0.95    0.58
  -4  11   3    0.23    0.10
   3 -11  -3  156.82   14.28
  -3  11   3  151.31   12.11
   2 -11  -3  155.38   14.19
  -2  11   3  154.77   12.23
   1 -11  -3    5.95    2.62
  -1  11   3    7.82    1.74
   0 -11  -3  108.09   10.66
   0  11   3  109.48    9.07
  -1 -11  -3  118.93   11.44
   1  11   3  120.43    9.86
  -2 -11  -3   40.69    5.39
   2  11   3   38.14    4.15
  -3 -11  -3  195.55   16.81
   3  11   3  194.09   15.35
  -4 -11  -3   33.16    4.92
   4  11   3   30.48    3.89
  -5 -11  -3   74.87    5.56
  -5 -11  -3   78.59    8.36
   5  11   3   87.10    7.64
  -6 -11  -3  110.24   10.93
   6  11   3  122.18   10.33
  -7 -11  -3    9.14    2.82
  -7 -11  -3   10.07    0.94
   7  11   3    7.80    2.42
  -8 -11  -3   43.91    5.94
  -8 -11  -3   51.37    3.79
   8  11   3   54.64    6.01
  -9 -11  -3   81.62    5.64
  -9 -11  -3   66.65    7.87
   9  11   3   74.30    7.78
 -10 -11  -3   17.49    1.59
 -10 -11  -3   12.16    3.27
  10  11   3   17.17    3.54
  10 -12  -3    8.27    3.81
 -10  12   3    4.45    0.70
   9 -12  -3   64.62    8.78
   8 -12  -3  126.61   13.18
   7 -12  -3   15.36    4.45
  -7  12   3   15.37    2.48
   6 -12  -3   33.06    9.69
  -6  12   3   41.35    4.33
   5 -12  -3   89.94   10.07
  -5  12   3   88.29    7.86
   4 -12  -3   -1.60    1.23
  -4  12   3   -0.26    0.72
   3 -12  -3   39.89    5.86
  -3  12   3   42.97    4.45
   2 -12  -3   26.35    4.77
  -2  12   3   29.61    3.50
   1 -12  -3   27.65    4.70
  -1  12   3   24.91    3.25
   0 -12  -3  189.19   17.58
   0  12   3  218.49   16.05
  -1 -12  -3   68.61    7.93
   1  12   3   65.63    6.25
  -2 -12  -3    9.11    2.92
   2  12   3    9.14    2.06
  -3 -12  -3   68.79    7.89
   3  12   3   70.27    6.68
  -4 -12  -3    2.02    1.67
   4  12   3    1.67    1.41
  -5 -12  -3   97.91   10.56
   5  12   3  119.79   10.79
   6  12   3  124.81   11.13
  -7 -12  -3   -0.09    1.33
   7  12   3    0.94    1.62
  -8 -12  -3   37.69    5.56
   8  12   3   52.29    5.87
  -9 -12  -3   28.88    4.72
   9  12   3   34.43    4.95
   9 -13  -3   34.57    6.53
   8 -13  -3   14.85    4.55
  -8  13   3   11.21    2.29
   7 -13  -3   11.36    3.94
  -7  13   3    7.45    1.95
   6 -13  -3  136.41   13.72
  -6  13   3  127.14   10.94
   5 -13  -3   39.47    6.36
  -5  13   3   47.53    4.86
   4 -13  -3    3.43    2.46
  -4  13   3    3.47    1.49
   3 -13  -3   57.70    8.79
  -3  13   3   57.76    5.77
   2 -13  -3    8.27    3.02
  -2  13   3    7.14    1.99
   1 -13  -3   52.43    7.03
  -1  13   3   50.41    5.28
   0 -13  -3   68.33    8.26
   0  13   3   66.16    6.47
  -1 -13  -3    2.41    1.90
   1  13   3    3.58    1.39
  -2 -13  -3   95.65   10.49
   2  13   3  109.24    9.93
  -3 -13  -3   99.11   11.87
   3  13   3  109.57    9.50
  -4 -13  -3    1.27    1.88
   4  13   3    2.73    1.41
  -5 -13  -3  102.49   11.16
   5  13   3  121.80   10.35
  -6 -13  -3   58.87    7.39
   6  13   3   57.21    6.52
  -7 -13  -3    7.82    2.73
   7  13   3   12.91    3.11
  -8 -13  -3   61.86    7.92
   8  13   3   73.44    7.73
   7 -14  -3   22.09    5.66
   6 -14  -3   81.43   10.24
  -6  14   3   82.83    7.76
   5 -14  -3    6.84    3.32
  -5  14   3   11.20    2.50
   4 -14  -3   18.74    4.74
  -4  14   3   18.89    3.08
   3 -14  -3   98.20   10.94
  -3  14   3   94.38    9.27
   2 -14  -3    5.10    2.57
   1 -14  -3   38.98    6.40
  -1  14   3   49.68    5.14
   0 -14  -3   40.86    6.41
   0  14   3   43.03    4.91
  -1 -14  -3    3.36    2.43
   1  14   3    4.47    1.76
  -2 -14  -3   85.89   10.11
   2  14   3   95.92    8.64
  -3 -14  -3   56.25    7.56
   3  14   3   58.59    6.23
  -4 -14  -3    3.74    2.50
   4  14   3    2.55    1.71
  -5 -14  -3  109.15   11.98
   5  14   3  129.74   11.10
  -6 -14  -3   11.53    3.58
   6  14   3   18.18    3.72
   5 -15  -3    1.54    1.96
  -5  15   3   -0.49    0.88
   4 -15  -3   28.74    5.92
  -4  15   3   34.57    4.40
   3 -15  -3   67.98    9.14
  -3  15   3   73.02    7.18
   2 -15  -3    8.63    3.74
  -2  15   3   13.85    2.88
   1 -15  -3   69.45    8.99
  -1  15   3   74.05    7.24
   0 -15  -3   48.36    6.94
   0  15   3   40.47    4.92
  -1 -15  -3    1.13    1.97
   1  15   3    1.16    1.43
  -2 -15  -3   36.27    6.41
   2  15   3   45.96    5.15
  -3 -15  -3    6.49    2.94
   3  15   3    5.06    1.87
  -4 -15  -3   30.03    5.64
   4  15   3   35.61    4.60
  -1  13  -4   66.13    7.56
   1 -13   4   65.78    8.74
   1 -13   4   74.27    7.41
  -2  13  -4    4.30    2.12
   2 -13   4    3.58    1.79
   2 -13   4    3.26    2.27
  -3  13  -4   28.56    4.46
   3 -13   4   37.49    4.47
   3 -13   4   33.85    5.94
  -4  13  -4   98.57   10.14
   4 -13   4  124.39   10.09
   4 -13   4  100.01   11.72
   2  12  -4  126.12   12.13
  -2 -12   4  133.29   11.67
   1  12  -4   19.41    4.11
  -1 -12   4   18.34    3.55
   0  12  -4   21.69    3.69
   0 -12   4   23.72    3.52
  -1  12  -4   75.57    8.18
   1 -12   4   85.33    7.91
  -2  12  -4    7.81    2.55
   2 -12   4    7.24    2.06
   2 -12   4    4.02    2.55
  -3  12  -4   34.79    4.66
   3 -12   4   39.14    6.06
   3 -12   4   36.78    4.51
  -4  12  -4   55.18    6.17
   4 -12   4   55.24    5.79
   4 -12   4   52.13    7.42
  -5  12  -4    2.13    1.48
   5 -12   4   -1.50    0.92
   5 -12   4    0.44    2.00
   6 -12   4   60.62    6.74
   6 -12   4   62.37    8.50
   7 -12   4   41.78    7.01
   7 -12   4   41.17    4.80
   8 -12   4   -1.22    1.98
   8 -12   4    1.19    1.52
   5  11  -4   39.35    5.92
  -5 -11   4   37.69    4.95
   4  11  -4   11.13    3.31
  -4 -11   4    8.05    2.72
  -4 -11   4   11.44    2.75
   3  11  -4   58.49    6.73
  -3 -11   4   65.05    6.40
  -3 -11   4   47.74    6.85
   2  11  -4   75.59    7.92
  -2 -11   4   66.10    7.93
  -2 -11   4   71.31    7.21
   1  11  -4    3.04    1.92
  -1 -11   4    6.22    2.42
  -1 -11   4    6.49    2.23
   0  11  -4   69.91    7.34
   0 -11   4   67.17    6.79
   0 -11   4   66.77    8.03
  -1  11  -4   73.35    7.70
   1 -11   4   81.56    7.52
   1 -11   4   77.29    8.90
   2 -11   4    4.14    2.30
   2 -11   4    2.61    1.60
  -3  11  -4  113.92   10.60
   3 -11   4  133.67   10.39
   3 -11   4  105.72   11.71
  -4  11  -4   68.42    7.10
   4 -11   4   77.46    6.90
   4 -11   4   65.67    8.33
  -5  11  -4   23.67    3.74
   5 -11   4   30.86    3.71
  -6  11  -4  125.70   11.69
   6 -11   4  138.58   13.97
   6 -11   4  148.46   11.54
   7 -11   4   61.44    5.67
   7 -11   4   48.41    7.62
   8 -11   4    9.70    3.83
   9 -11   4   76.34    9.86
  -6 -10   4    7.03    2.44
  -6 -10   4    4.62    1.90
   5  10  -4   78.42    8.32
  -5 -10   4   59.10    7.68
  -5 -10   4   81.17    7.62
   4  10  -4    1.00    1.83
  -4 -10   4    1.10    1.81
  -4 -10   4    4.22    1.79
   3  10  -4  111.68    9.94
  -3 -10   4  100.77    9.02
  -3 -10   4   82.74    9.58
   2  10  -4   93.79    8.70
  -2 -10   4   69.45    8.44
  -2 -10   4   86.39    7.83
   1  10  -4    3.24    1.92
  -1 -10   4    0.55    1.18
  -1 -10   4    1.04    1.59
   0  10  -4  105.67    9.80
   0 -10   4  110.05    9.28
   0 -10   4   98.76   10.38
  -1  10  -4   96.93    8.88
   1 -10   4   84.90    9.53
   1 -10   4   95.71    8.34
  -2  10  -4    4.26    1.88
   2 -10   4    5.02    1.67
   2 -10   4    5.71    2.59
  -3  10  -4  149.19   12.74
   3 -10   4  136.64   13.82
   3 -10   4  165.58   12.41
  -4  10  -4   32.54    4.09
  -4  10  -4   31.43    2.37
   4 -10   4   36.05    3.96
   4 -10   4   31.03    5.26
  -5  10  -4   39.83    4.85
   5 -10   4   46.47    4.70
   5 -10   4   44.94    6.27
  -6  10  -4   89.76    8.49
  -6  10  -4   92.62    6.83
   6 -10   4   97.39   10.55
   6 -10   4  103.08    8.34
   7 -10   4    3.12    1.26
  -8  10  -4   42.81    3.58
   8 -10   4   52.28    4.89
   8 -10   4   57.12    7.60
   9 -10   4  121.12    9.51
   9 -10   4  109.75   12.36
 -10  10  -4    0.47    0.44
  10 -10   4    1.81    2.42
 -11  10  -4   70.66    5.30
   7   9  -4    3.35    0.64
  -7  -9   4    1.44    1.69
  -7  -9   4    4.45    0.67
   6   9  -4   25.38    2.05
  -6  -9   4   25.73    3.90
  -6  -9   4   21.14    4.08
   5   9  -4  109.67   10.41
   5   9  -4  111.14    7.81
  -5  -9   4  112.75    9.82
  -5  -9   4   92.95   10.12
   4   9  -4    7.26    2.33
   4   9  -4    4.16    0.58
  -4  -9   4    4.90    2.18
  -4  -9   4    4.78    1.73
   3   9  -4   75.15    7.50
   3   9  -4   71.73    5.04
  -3  -9   4   68.13    6.77
  -3  -9   4   61.80    7.37
   2   9  -4   24.86    1.85
   2   9  -4   27.76    4.13
  -2  -9   4   24.16    3.39
  -2  -9   4   19.37    3.69
   1   9  -4   24.22    3.73
  -1  -9   4   25.57    3.25
  -1  -9   4   22.47    3.85
   0   9  -4  165.17   11.42
   0   9  -4  167.73   13.71
   0  -9   4  150.71   14.14
   0  -9   4  163.13   13.08
  -1   9  -4   16.21    3.04
  -1   9  -4   14.46    1.17
   1  -9   4   16.05    3.25
   1  -9   4   15.63    2.50
  -2   9  -4   77.85    7.59
  -2   9  -4   81.23    5.70
   2  -9   4   73.90    8.36
   2  -9   4   86.04    7.31
  -3   9  -4  384.36   29.15
  -3   9  -4  394.80   27.20
   3  -9   4  351.97   30.24
   3  -9   4  419.00   28.83
  -4   9  -4   13.86    2.70
   4  -9   4   13.46    2.25
   4  -9   4   10.50    3.37
  -5   9  -4   48.99    5.50
  -5   9  -4   56.56    4.11
   5  -9   4   62.38    5.47
   5  -9   4   56.69    7.08
  -6   9  -4   60.61    4.59
  -6   9  -4   55.72    5.90
   6  -9   4   70.44    5.91
   6  -9   4   67.15    7.83
  -7   9  -4   12.08    1.10
   7  -9   4    8.41    3.14
   7  -9   4   11.17    2.05
  -8   9  -4  110.58    8.97
   8  -9   4  142.90   10.13
   8  -9   4  126.93   12.57
  -9   9  -4   45.99    3.78
   9  -9   4   50.55    6.90
   9  -9   4   55.33    4.70
 -10   9  -4   16.10    1.52
  10  -9   4   17.33    4.58
  11  -9   4  142.42   14.34
  12  -9   4    4.83    2.95
   8   8  -4   22.82    1.98
  -8  -8   4   21.65    4.08
  -8  -8   4   22.11    3.70
   7   8  -4    1.66    0.43
  -7  -8   4    1.03    1.55
  -7  -8   4    2.18    1.33
   6   8  -4   80.07    5.62
  -6  -8   4   68.60    7.88
  -6  -8   4   76.21    7.44
   5   8  -4   15.96    3.44
   5   8  -4   15.99    1.40
  -5  -8   4    9.72    4.64
  -5  -8   4   17.00    3.11
   4   8  -4  108.35    7.26
   4   8  -4  112.57    9.79
  -4  -8   4   89.00    9.39
  -4  -8   4   91.46    8.74
   3   8  -4  185.40   14.02
   3   8  -4  216.51   16.57
  -3  -8   4  201.55   15.73
   2   8  -4   31.72    4.15
   2   8  -4   29.64    2.23
  -2  -8   4   24.20    3.93
  -2  -8   4   33.07    3.72
   1   8  -4   77.88    5.32
   1   8  -4   74.05    7.34
  -1  -8   4   66.26    7.37
  -1  -8   4   74.93    6.75
   0   8  -4  213.02   17.19
   0  -8   4  207.43   17.68
   0  -8   4  227.15   16.76
  -1   8  -4   23.23    1.77
  -1   8  -4   22.94    3.24
   1  -8   4   22.18    3.70
   1  -8   4   25.01    3.09
  -2   8  -4  180.28   15.21
  -2   8  -4  206.90   13.54
   2  -8   4  198.66   14.94
   2  -8   4  176.35   16.05
  -3   8  -4  392.19   25.18
  -3   8  -4  330.21   26.69
   3  -8   4  378.68   26.50
   3  -8   4  323.40   27.79
  -4   8  -4    2.20    0.39
   4  -8   4    3.00    1.76
  -5   8  -4  186.78   15.61
  -5   8  -4  198.61   14.29
   5  -8   4  222.58   15.55
   5  -8   4  200.99   17.32
  -6   8  -4  191.33   15.99
  -6   8  -4  203.99   14.78
   6  -8   4  205.77   17.84
   6  -8   4  234.44   15.98
  -7   8  -4    1.91    0.41
   7  -8   4    0.95    1.65
   7  -8   4    2.39    1.03
  -8   8  -4   74.49    5.71
   8  -8   4   74.50    8.62
   8  -8   4   84.14    6.54
  -9   8  -4   64.06    5.29
   9  -8   4   74.76    8.41
   9  -8   4   78.33    5.93
 -10   8  -4   52.93    4.28
  10  -8   4   64.56    7.56
 -11   8  -4   69.60    5.67
  11  -8   4   91.03    9.59
 -12   8  -4    0.16    0.35
  12  -8   4    0.36    2.11
 -13   8  -4   63.19    5.29
  13  -8   4   82.36    9.32
   9   7  -4  121.76    8.86
  -9  -7   4  116.86   10.63
  -9  -7   4  113.95    8.63
   8   7  -4   77.17    5.58
  -8  -7   4   80.12    7.56
  -8  -7   4   65.14    7.72
   7   7  -4    1.51    0.46
  -7  -7   4   -0.77    1.49
  -7  -7   4    1.60    1.32
   6   7  -4   55.41    4.16
  -6  -7   4   55.22    5.75
  -6  -7   4   53.84    6.19
   5   7  -4    6.73    0.81
   5   7  -4    6.84    2.49
  -5  -7   4    5.41    1.73
  -5  -7   4    7.23    2.25
   4   7  -4  110.03    8.07
   4   7  -4  126.50   10.40
  -4  -7   4  117.74    9.66
  -4  -7   4  100.90    9.92
   3   7  -4  322.58   22.24
   3   7  -4  337.68   24.51
  -3  -7   4  316.83   23.74
  -3  -7   4  288.53   24.19
   2   7  -4   21.76    3.33
   2   7  -4   19.67    1.50
  -2  -7   4   18.24    2.67
  -2  -7   4   14.66    2.92
   1   7  -4   43.13    4.93
   1   7  -4   46.96    3.22
  -1  -7   4   43.13    4.39
  -1  -7   4   38.51    4.85
   0   7  -4   95.82    8.19
   0  -7   4   78.72    8.26
   0  -7   4   93.52    7.68
  -1   7  -4    5.57    0.56
  -1   7  -4    5.11    1.55
   1  -7   4    5.63    1.94
   1  -7   4    5.36    1.78
  -2   7  -4  200.06   13.06
  -2   7  -4  177.29   14.54
   2  -7   4  157.71   15.09
   2  -7   4  199.87   14.32
  -3   7  -4  124.94   10.20
   3  -7   4  132.07    9.94
   3  -7   4  112.55   10.96
  -4   7  -4   20.31    1.68
  -4   7  -4   19.68    2.73
   4  -7   4   22.99    3.79
   4  -7   4   24.54    2.71
  -5   7  -4  207.85   17.02
  -5   7  -4  226.12   15.92
   5  -7   4  214.37   18.46
   5  -7   4  251.85   17.01
  -6   7  -4   74.45    5.38
   6  -7   4   79.24    6.28
   6  -7   4   65.32    7.67
  -7   7  -4   30.82    2.50
   7  -7   4   30.89    4.78
   7  -7   4   33.68    3.20
  -8   7  -4   87.86    6.80
   8  -7   4   97.72    7.38
   8  -7   4   95.67    9.62
  -9   7  -4    0.56    0.37
   9  -7   4    0.70    1.15
 -10   7  -4   89.88    6.88
  10  -7   4   99.83   10.04
 -11   7  -4   80.79    6.41
  11  -7   4   96.72    9.83
 -12   7  -4    4.26    0.80
  12  -7   4    5.62    2.66
 -13   7  -4  131.82   10.38
  13  -7   4  157.38   14.31
 -10  -6   4   22.18    2.07
 -10  -6   4   22.27    3.53
   9   6  -4   74.65    5.46
  -9  -6   4   68.04    7.43
  -9  -6   4   71.03    7.20
   8   6  -4   34.13    2.87
  -8  -6   4   38.17    4.48
   7   6  -4   32.50    2.72
  -7  -6   4   34.46    4.60
  -7  -6   4   36.13    4.21
   6   6  -4   68.06    5.09
  -6  -6   4   69.18    6.53
  -6  -6   4   68.08    6.96
   5   6  -4    0.23    1.32
   5   6  -4    1.12    0.36
  -5  -6   4    1.63    0.95
  -5  -6   4    0.68    1.11
   4   6  -4  116.55    9.87
   4   6  -4  107.79    7.83
  -4  -6   4  101.10    9.47
  -4  -6   4  112.70    9.21
   3   6  -4  145.13   10.28
   3   6  -4  156.34   12.27
  -3  -6   4  154.14   11.65
  -3  -6   4  125.61   11.78
   2   6  -4   11.63    2.44
   2   6  -4   12.05    1.02
  -2  -6   4   12.49    1.93
  -2  -6   4    9.66    2.06
   1   6  -4  339.37   25.61
   1   6  -4  357.91   23.14
  -1  -6   4  283.03   24.68
  -1  -6   4  336.38   24.88
   0   6  -4  225.70   16.57
   0  -6   4  190.52   16.60
   0  -6   4  220.78   16.08
  -1   6  -4   63.51    4.32
  -1   6  -4   55.01    5.58
   1  -6   4   55.07    5.95
   1  -6   4   62.11    5.38
  -2   6  -4  211.41   17.20
  -2   6  -4  254.90   15.99
   2  -6   4  235.39   17.01
   2  -6   4  199.10   17.74
  -3   6  -4  135.97   10.93
   3  -6   4  124.74   11.61
   3  -6   4  150.98   10.78
  -4   6  -4   34.88    2.52
  -4   6  -4   28.21    3.36
   4  -6   4   30.88    4.23
   4  -6   4   37.59    3.42
  -5   6  -4  256.64   17.57
  -5   6  -4  222.35   18.42
   5  -6   4  272.84   18.42
   5  -6   4  241.59   19.78
  -6   6  -4   23.71    1.94
   6  -6   4   22.91    5.80
   6  -6   4   24.45    2.50
  -7   6  -4  214.68   14.54
   7  -6   4  209.51   15.04
   7  -6   4  184.90   16.77
  -8   6  -4  127.31    9.50
   8  -6   4  138.34   12.08
  -9   6  -4   12.75    1.32
   9  -6   4   11.09    3.17
   9  -6   4   14.72    1.44
 -10   6  -4   68.80    5.48
  10  -6   4   81.69    8.30
 -11   6  -4   52.89    4.25
  11  -6   4   58.63    7.00
 -12   6  -4   17.37    1.80
  12  -6   4   23.47    4.28
 -13   6  -4  176.57   13.07
  13  -6   4  183.26   16.46
 -14   6  -4   13.66    1.59
  14  -6   4   11.60    3.73
  11   5  -4    9.68    1.34
 -11  -5   4    9.85    1.35
 -11  -5   4   14.86    2.86
  10   5  -4   47.63    3.82
 -10  -5   4   49.07    5.27
 -10  -5   4   45.49    5.60
   9   5  -4  236.97   17.06
  -9  -5   4  241.71   19.24
  -9  -5   4  235.66   18.67
   8   5  -4    3.76    0.68
  -8  -5   4    2.54    1.46
  -8  -5   4    1.80    1.30
   7   5  -4   30.37    2.57
  -7  -5   4   33.01    4.11
  -7  -5   4   30.93    3.79
   6   5  -4    8.52    0.98
  -6  -5   4    9.64    2.05
  -6  -5   4    9.61    2.25
   5   5  -4    4.91    0.69
  -5  -5   4    4.72    1.49
  -5  -5   4    5.73    1.72
   4   5  -4  236.01   16.55
   4   5  -4  242.73   18.30
  -4  -5   4  229.76   17.71
  -4  -5   4  227.23   18.01
   3   5  -4   44.79    3.17
   3   5  -4   45.45    4.82
  -3  -5   4   42.30    4.25
  -3  -5   4   36.63    4.28
   2   5  -4  110.86    8.92
   2   5  -4  104.34    7.32
  -2  -5   4   89.95    8.50
  -2  -5   4  106.41    8.41
   1   5  -4  318.41   21.07
   1   5  -4  305.99   22.52
  -1  -5   4  259.60   22.33
  -1  -5   4  314.22   22.13
   0   5  -4   15.25    2.34
   0  -5   4   16.98    2.13
   0  -5   4   14.61    2.36
  -1   5  -4  198.59   12.34
  -1   5  -4  159.82   13.42
   1  -5   4  184.25   13.28
   1  -5   4  150.44   13.67
  -2   5  -4  299.80   23.63
  -2   5  -4  372.18   22.63
   2  -5   4  339.68   23.50
   2  -5   4  270.29   23.99
  -3   5  -4    0.69    0.60
   3  -5   4    0.60    0.87
   3  -5   4    0.59    0.63
  -4   5  -4  132.99    8.81
  -4   5  -4  110.10    9.54
   4  -5   4  131.28    9.52
   4  -5   4  116.49   10.42
  -5   5  -4  310.41   21.04
   5  -5   4  273.77   22.77
   5  -5   4  308.46   21.64
  -6   5  -4   -0.06    0.22
   6  -5   4    0.16    0.48
   6  -5   4    0.22    0.89
  -7   5  -4  328.76   23.42
   7  -5   4  334.42   23.74
  -8   5  -4   98.45    7.23
   8  -5   4   95.86    9.35
   8  -5   4  101.93    7.40
  -9   5  -4   91.43    6.73
   9  -5   4   91.59    8.98
 -10   5  -4  152.08   11.22
  10  -5   4  159.98   13.87
 -11   5  -4   62.62    4.89
  11  -5   4   65.98    7.44
 -12   5  -4   50.79    4.27
  12  -5   4   60.76    7.04
 -13   5  -4  158.50   12.37
  13  -5   4  184.60   15.74
 -14   5  -4   -0.99    0.41
  14  -5   4    0.54    1.78
  11   4  -4   -0.73    1.04
  11   4  -4    0.25    0.52
 -11  -4   4   -0.24    1.24
 -11  -4   4   -2.02    0.90
 -11  -4   4    0.01    0.46
  10   4  -4   53.69    4.20
  10   4  -4   52.80    5.07
 -10  -4   4   51.38    5.35
 -10  -4   4   51.63    5.72
   9   4  -4  106.55    8.18
  -9  -4   4  110.16    9.47
  -9  -4   4  116.04    9.83
   8   4  -4   12.88    2.00
   8   4  -4    9.25    1.14
  -8  -4   4    9.53    2.26
  -8  -4   4    9.03    2.09
   7   4  -4  155.56   11.40
  -7  -4   4  141.09   12.44
  -7  -4   4  177.97   13.04
  -6  -4   4   88.75    7.82
  -6  -4   4   87.50    7.57
   5   4  -4  189.32   13.92
  -5  -4   4  202.68   15.31
   4   4  -4  143.07    9.98
  -4  -4   4  135.02   10.95
   3   4  -4  111.80    9.71
   3   4  -4  124.64    8.45
  -3  -4   4  112.47    9.46
  -3  -4   4  120.61    9.41
   2   4  -4  384.69   24.65
   2   4  -4  345.76   25.91
  -2  -4   4  341.50   25.52
  -2  -4   4  327.70   25.65
   1   4  -4  452.92   32.17
  -1  -4   4  465.01   31.86
  -1  -4   4  407.04   31.99
   0   4  -4    2.54    1.00
   0   4  -4    3.93    0.43
   0  -4   4    2.82    0.89
   0  -4   4    3.19    1.12
  -1   4  -4  455.29   34.38
   1  -4   4  532.76   34.29
   1  -4   4  443.39   34.57
  -2   4  -4  424.68   31.47
   2  -4   4  495.14   31.41
   2  -4   4  390.09   31.76
  -3   4  -4   21.49    1.53
  -3   4  -4   15.77    2.06
   3  -4   4   20.41    2.08
   3  -4   4   17.34    2.51
  -4   4  -4  313.25   20.17
   4  -4   4  288.82   20.69
   4  -4   4  253.75   21.47
   5  -4   4  615.67   41.29
   5  -4   4  546.21   42.33
  -6   4  -4   11.92    1.02
   6  -4   4    8.68    2.15
   6  -4   4    9.93    1.24
  -7   4  -4  156.24   11.12
   7  -4   4  158.22   11.29
   7  -4   4  150.00   12.92
  -8   4  -4   15.83    1.46
   8  -4   4   17.79    1.48
   8  -4   4   13.03    2.63
  -9   4  -4  115.41    8.08
   9  -4   4  100.49    9.86
 -10   4  -4  110.20    8.14
  10  -4   4  112.16   10.47
 -11   4  -4   23.69    2.14
  11  -4   4   25.65    4.17
 -12   4  -4  116.54    9.37
  12  -4   4  143.15   12.29
 -13   4  -4  105.58    8.38
  13  -4   4  121.21   11.28
 -14   4  -4    3.24    0.89
  14  -4   4    6.41    2.54
 -15   4  -4   22.46    2.45
  15  -4   4   26.83    4.93
  12   3  -4   47.09    3.85
 -12  -3   4   37.16    4.50
 -12  -3   4   52.27    3.86
  11   3  -4    4.23    0.89
  11   3  -4    4.51    1.43
 -11  -3   4    2.54    1.70
 -11  -3   4    3.68    1.44
 -10  -3   4  169.15   13.42
   9   3  -4   93.76    7.68
   9   3  -4   93.78    6.95
  -9  -3   4  100.76    8.32
  -9  -3   4   81.76    7.84
   8   3  -4   31.94    2.81
   8   3  -4   35.56    3.50
  -8  -3   4   40.53    4.04
  -8  -3   4   29.55    3.60
   7   3  -4  138.83    9.84
   7   3  -4  115.07    9.10
  -7  -3   4  141.13   10.41
  -7  -3   4  105.45    9.98
   6   3  -4  104.51    7.81
   6   3  -4   88.16    7.19
  -6  -3   4   87.54    8.04
  -6  -3   4  114.94    8.46
   5   3  -4  248.39   17.02
  -5  -3   4  230.28   17.89
   4   3  -4  247.23   17.52
  -4  -3   4  227.78   18.31
  -4  -3   4  266.93   18.53
   3   3  -4    4.17    0.52
  -3  -3   4    2.52    0.94
  -3  -3   4    3.16    0.99
  -2  -3   4  460.25   34.52
  -2  -3   4  523.31   34.08
  -2  -3   4  459.10   34.52
   1   3  -4  533.71   37.66
  -1  -3   4  561.43   37.44
  -1  -3   4  475.20   37.37
   0   3  -4  188.56   14.59
   0  -3   4  182.04   14.49
   0  -3   4  213.90   14.48
  -1   3  -4  506.03   35.11
   1  -3   4  533.88   34.96
   1  -3   4  429.06   35.03
   2  -3   4  140.34   10.50
  -3   3  -4  102.47    6.86
   3  -3   4   96.86    7.36
   3  -3   4   85.08    8.27
  -4   3  -4  376.33   23.82
   4  -3   4  330.30   24.18
   4  -3   4  306.61   24.91
  -5   3  -4  252.53   16.12
   5  -3   4  206.09   17.34
   5  -3   4  222.21   16.37
  -6   3  -4   38.76    2.80
   6  -3   4   30.80    3.87
   6  -3   4   35.30    2.97
   6  -3   4   38.09    2.98
  -7   3  -4  209.47   14.60
   7  -3   4  189.38   16.16
   7  -3   4  213.79   14.65
  -8   3  -4    6.28    0.76
   8  -3   4    4.95    1.81
   9  -3   4  243.55   19.43
 -10   3  -4   60.66    4.61
  10  -3   4   59.70    6.60
 -11   3  -4   20.64    1.98
  11  -3   4   25.14    3.94
 -12   3  -4  161.97   12.37
  12  -3   4  180.71   15.10
 -13   3  -4  109.36    8.39
  13  -3   4  106.83   10.60
 -14   3  -4   17.23    1.87
  14  -3   4   16.12    4.07
 -15   3  -4   85.37    6.75
  12   2  -4   52.86    4.09
  12   2  -4   50.92    4.86
 -12  -2   4   47.68    3.97
 -12  -2   4   41.57    4.63
  11   2  -4   18.31    1.80
  11   2  -4   16.03    2.40
 -11  -2   4   13.50    2.32
  10   2  -4   97.21    7.88
  10   2  -4   99.78    7.05
 -10  -2   4   80.79    7.72
   9   2  -4   46.96    3.54
   9   2  -4   44.23    4.11
  -9  -2   4   37.79    4.22
   8   2  -4   16.85    2.07
   8   2  -4   16.70    1.59
  -8  -2   4   13.75    2.22
   7   2  -4  323.92   21.26
   7   2  -4  290.69   20.64
  -7  -2   4  254.22   21.37
   6   2  -4   43.74    3.47
   6   2  -4   52.54    3.98
  -6  -2   4   36.45    4.07
   5   2  -4  171.67   12.63
   5   2  -4  196.59   13.06
  -5  -2   4  160.82   13.33
   4   2  -4  308.60   21.62
   4   2  -4  342.18   21.96
  -4  -2   4  281.99   22.29
  -4  -2   4  290.62   22.06
   3   2  -4   16.81    1.46
  -3  -2   4   21.70    2.03
  -3  -2   4   17.31    1.73
  -3  -2   4   16.10    1.97
   2   2  -4  173.23   12.02
  -2  -2   4  162.90   12.65
  -2  -2   4  158.17   12.45
  -2  -2   4  182.74   12.24
   1   2  -4  126.73    7.82
  -1  -2   4   93.07    8.17
  -1  -2   4  117.89    7.92
  -1  -2   4   97.99    8.32
   0  -2   4  552.32   39.26
  -1   2  -4  466.24   34.70
   1  -2   4  508.11   34.75
   2  -2   4  164.95   13.45
   2  -2   4  198.13   13.30
  -3   2  -4  250.48   15.92
   3  -2   4  196.35   16.66
   3  -2   4  228.92   16.29
  -4   2  -4  319.71   20.79
   4  -2   4  274.57   21.74
   4  -2   4  289.54   21.05
  -5   2  -4    2.52    0.42
   5  -2   4    2.21    1.02
   5  -2   4    3.03    0.60
   5  -2   4    1.95    0.51
  -6   2  -4  308.35   19.82
   6  -2   4  306.24   19.91
   6  -2   4  241.84   19.84
   6  -2   4  263.78   21.09
  -7   2  -4  109.11    8.35
   7  -2   4  121.05    8.29
   7  -2   4  108.31    9.76
   7  -2   4  121.69    8.34
  -8   2  -4    4.14    0.61
   8  -2   4    4.61    1.71
  -9   2  -4  208.34   15.81
   9  -2   4  232.40   17.72
 -10   2  -4   91.43    6.99
  10  -2   4   98.81    8.99
 -11   2  -4  178.14   13.86
  11  -2   4  210.35   16.32
 -12   2  -4  139.71   11.10
  12  -2   4  168.19   13.76
  13  -2   4   42.27    5.94
 -14   2  -4   47.15    4.24
  14  -2   4   57.79    6.69
 -15   2  -4  162.02   12.09
  12   1  -4    8.34    1.26
  12   1  -4    8.10    1.89
 -12  -1   4    8.19    1.23
 -12  -1   4    6.53    1.62
  11   1  -4  110.64    8.17
  11   1  -4  115.49    9.00
 -11  -1   4   98.45    8.70
  10   1  -4  172.05   13.75
  10   1  -4  189.67   13.14
   9   1  -4   24.12    2.24
   9   1  -4   26.96    2.76
  -9  -1   4   23.17    2.82
   8   1  -4   33.14    3.19
   8   1  -4   35.95    2.71
  -8  -1   4   27.50    3.24
   7   1  -4  179.54   12.91
   7   1  -4  190.72   13.41
  -7  -1   4  167.39   13.56
   6   1  -4   53.68    4.15
  -6  -1   4   56.03    4.84
   5   1  -4  498.63   32.43
   5   1  -4  463.05   32.09
  -5  -1   4  403.62   32.67
   4   1  -4  240.55   16.71
   4   1  -4  271.58   16.97
  -4  -1   4  219.60   17.30
  -4  -1   4  210.62   17.08
   3   1  -4  151.60    9.96
   3   1  -4  139.30    9.83
  -3  -1   4  126.29   10.37
  -3  -1   4  132.12   10.06
  -2  -1   4  385.01   30.22
  -2  -1   4  422.98   29.92
  -2  -1   4  459.39   29.83
   0   1  -4  572.57   39.03
   0  -1   4  534.36   39.25
  -1   1  -4  322.29   23.02
  -2   1  -4    1.00    0.44
  -2   1  -4    0.76    0.20
   2  -1   4    0.66    0.40
   2  -1   4    0.51    0.42
  -3   1  -4  461.84   30.05
   3  -1   4  387.26   30.03
  -4   1  -4  394.71   27.89
  -5   1  -4   80.55    6.74
   5  -1   4  105.14    6.87
   5  -1   4   93.46    7.70
  -6   1  -4  376.83   30.58
  -6   1  -4  496.38   30.66
   6  -1   4  436.03   31.86
  -7   1  -4  385.80   26.38
   7  -1   4  361.34   27.72
  -8   1  -4   99.10    7.45
   8  -1   4  106.22    8.98
  -9   1  -4  203.14   14.56
 -10   1  -4    2.70    0.61
  10  -1   4    2.37    1.36
 -11   1  -4  111.43    8.57
  11  -1   4  123.08   10.72
 -12   1  -4  227.63   17.60
  12  -1   4  265.35   20.07
  13  -1   4    2.72    1.78
 -14   1  -4   69.60    5.89
  14  -1   4   83.57    8.55
 -15   1  -4   53.45    4.73
  15  -1   4   61.03    7.28
  13   0  -4   48.63    4.06
  13   0  -4   45.93    4.96
 -13   0   4   46.61    3.93
  12   0  -4   -0.46    0.52
  12   0  -4   -0.48    0.81
 -12   0   4   -0.38    0.76
  11   0  -4   94.70    7.81
  11   0  -4  102.00    7.04
 -11   0   4   79.19    7.34
  10   0  -4   83.98    6.12
  10   0  -4   79.21    6.79
 -10   0   4   75.95    6.59
   9   0  -4    3.68    0.73
   9   0  -4    3.10    1.07
  -9   0   4    3.06    1.07
   8   0  -4  186.79   14.09
   8   0  -4  194.82   13.55
  -8   0   4  182.73   14.12
   7   0  -4    7.94    0.95
   7   0  -4    7.35    1.20
  -7   0   4    6.74    1.33
   6   0  -4  112.78    8.74
   6   0  -4  115.97    8.10
  -6   0   4  104.76    8.62
   5   0  -4  198.36   13.79
   5   0  -4  195.25   14.07
  -5   0   4  187.16   14.33
   4   0  -4   58.78    4.32
   4   0  -4   59.28    4.50
  -4   0   4   57.08    4.83
   3   0  -4  221.54   15.05
   3   0  -4  237.69   15.15
  -3   0   4  180.51   15.24
  -3   0   4  210.88   15.56
   1   0  -4    8.98    0.77
  -1   0   4    8.79    1.19
  -2   0  -4   22.28    2.16
   2   0   4   29.79    2.44
   2   0   4   29.62    2.33
  -3   0  -4  373.25   27.61
  -3   0  -4  398.62   27.26
  -4   0  -4  412.96   27.17
   4   0   4  359.33   27.82
  -5   0  -4  526.73   36.74
   5   0   4  520.03   36.81
  -6   0  -4  515.15   36.17
  -7   0  -4   94.29    7.90
  -7   0  -4  128.89    8.08
   7   0   4  114.86    9.25
  -8   0  -4  149.86   10.01
  -8   0  -4  120.19    9.71
   8   0   4  152.66   11.47
  -9   0  -4  390.17   28.51
   9   0   4  417.05   30.15
 -10   0  -4    5.03    0.82
  10   0   4    6.82    2.02
 -11   0  -4  237.71   17.99
  11   0   4  266.81   20.07
 -12   0  -4  126.57    9.91
  12   0   4  144.35   12.04
  13   0   4    1.63    1.56
 -14   0  -4  117.47    9.26
  14   0   4  129.74   11.74
 -15   0  -4   49.28    4.65
  15   0   4   68.86    7.36
  13  -1  -4   18.55    2.90
  13  -1  -4   17.07    2.01
 -13   1   4   17.37    1.84
  12  -1  -4   11.22    2.08
  12  -1  -4    9.65    1.41
 -12   1   4    8.66    1.30
  11  -1  -4  172.24   12.34
  11  -1  -4  164.63   13.29
  10  -1  -4   83.57    6.15
  10  -1  -4   81.83    7.00
 -10   1   4   75.82    6.51
   9  -1  -4   21.70    1.85
   9  -1  -4   18.10    2.35
  -9   1   4   17.86    2.18
   8  -1  -4  245.20   18.70
   8  -1  -4  266.70   18.08
  -8   1   4  248.03   18.54
   7  -1  -4   10.07    1.23
   7  -1  -4    9.07    1.39
  -7   1   4   10.25    1.43
   6  -1  -4  220.14   16.54
   6  -1  -4  237.24   15.80
  -6   1   4  207.75   16.21
   5  -1  -4  221.54   16.88
   5  -1  -4  249.81   16.58
  -5   1   4  230.07   17.02
   4  -1  -4   46.33    3.38
   4  -1  -4   45.29    3.62
  -4   1   4   43.35    3.77
   3  -1  -4  292.85   19.49
   3  -1  -4  254.56   19.60
  -3   1   4  283.38   19.91
   1  -1  -4   61.00    4.81
   1  -1  -4   72.19    4.78
  -1  -1  -4  139.34   11.00
  -1  -1  -4  166.77   10.87
   1   1   4  175.15   10.93
   1   1   4  135.23   11.09
  -2  -1  -4   21.84    1.49
  -2  -1  -4   17.34    1.71
   2   1   4   17.53    1.66
  -4  -1  -4  412.70   27.48
   4   1   4  368.98   28.07
  -5  -1  -4   45.41    3.53
   5   1   4   41.59    4.18
   5   1   4   54.02    3.68
  -6  -1  -4  192.87   13.42
   6   1   4  184.06   14.32
  -7  -1  -4   89.62    6.53
   7   1   4   89.20    7.56
  -8  -1  -4  544.94   40.21
   8   1   4  535.18   41.39
   8   1   4  633.15   40.30
  -9  -1  -4   59.79    5.14
  -9  -1  -4   80.32    5.42
   9   1   4   84.84    6.92
   9   1   4   70.44    5.24
 -10  -1  -4    7.19    0.99
  10   1   4    8.55    2.09
 -11  -1  -4  285.41   21.17
  11   1   4  309.13   23.02
 -12  -1  -4   66.00    5.35
  12   1   4   73.38    7.16
  13   1   4   38.84    4.88
 -14  -1  -4  101.17    7.87
  14   1   4  105.38   10.04
 -15  -1  -4    3.04    0.94
  15   1   4    2.94    2.00
  13  -2  -4    5.00    1.10
  13  -2  -4    4.37    1.53
 -13   2   4    5.55    1.05
  12  -2  -4   37.78    3.16
  12  -2  -4   34.25    4.16
 -12   2   4   34.40    3.05
  11  -2  -4  107.67    8.70
  11  -2  -4   86.39    7.61
  10  -2  -4   48.24    5.45
  10  -2  -4   47.94    3.87
   9  -2  -4  188.58   13.73
   9  -2  -4  181.59   12.66
  -9   2   4  155.74   12.91
   8  -2  -4  121.74    9.35
   8  -2  -4  120.37    8.46
  -8   2   4  104.28    8.74
   7  -2  -4    2.60    0.99
  -7   2   4    2.65    0.74
   6  -2  -4  241.83   15.76
   6  -2  -4  222.60   16.42
  -6   2   4  199.94   16.05
   5  -2  -4  143.47    9.79
   5  -2  -4  145.19   10.40
  -5   2   4  120.92   10.07
   4  -2  -4    2.89    0.75
   4  -2  -4    2.54    0.42
  -4   2   4    3.19    0.71
  -4   2   4    2.21    0.84
  -3   2   4  665.79   47.18
   2  -2  -4  410.78   28.72
  -2   2   4  395.87   28.79
  -2   2   4  405.47   28.66
   1  -2  -4   48.36    3.47
  -1   2   4   42.07    3.72
  -1   2   4   52.51    3.85
   0   2   4  328.26   23.32
  -1  -2  -4  137.99   10.24
  -1  -2  -4  143.51   10.04
   1   2   4  123.08   10.26
   1   2   4  150.76   10.04
   1   2   4  154.26   10.29
  -2  -2  -4  362.60   25.65
  -4  -2  -4  104.47    7.63
   4   2   4  103.39    8.24
   4   2   4  111.60    7.84
  -5  -2  -4  571.96   40.27
  -6  -2  -4  514.80   34.61
   6   2   4  469.43   35.45
  -7  -2  -4    5.16    0.77
  -7  -2  -4    7.38    0.78
   7   2   4    8.20    0.99
   7   2   4    7.20    1.37
  -8  -2  -4  299.71   22.49
   8   2   4  304.39   23.60
   8   2   4  348.61   22.79
  -9  -2  -4  124.71    9.17
   9   2   4  121.64   10.49
   9   2   4  129.77    9.35
 -10  -2  -4  146.00    9.86
  10   2   4  144.87   11.33
  10   2   4  118.07    9.81
 -11  -2  -4  250.26   18.31
  11   2   4  261.06   19.92
 -12  -2  -4   35.99    3.13
  12   2   4   37.80    4.50
 -13  -2  -4   78.78    6.75
  13   2   4   90.37    8.33
 -14  -2  -4  163.24   12.47
  14   2   4  174.99   14.57
 -15  -2  -4   -0.76    0.56
  15   2   4    0.05    1.52
  13  -3  -4    4.66    1.99
  13  -3  -4    2.00    0.80
 -13   3   4    2.77    0.81
  12  -3  -4   99.86    8.94
  12  -3  -4   96.57    7.35
 -12   3   4   92.56    7.27
  11  -3  -4  115.69   10.06
  10  -3  -4   18.93    1.72
  10  -3  -4   22.46    2.99
 -10   3   4   14.34    1.74
   9  -3  -4  223.34   15.33
   9  -3  -4  234.99   16.74
  -9   3   4  185.16   15.44
   8  -3  -4   60.01    4.38
   8  -3  -4   59.78    5.52
  -8   3   4   52.16    4.57
   7  -3  -4  102.66    7.12
   7  -3  -4   98.67    8.15
  -7   3   4   89.48    7.31
   6  -3  -4  416.92   30.97
   6  -3  -4  470.88   30.02
  -6   3   4  390.46   30.24
   5  -3  -4  296.57   21.33
   5  -3  -4  278.01   20.27
   4  -3  -4   19.64    2.40
   4  -3  -4   27.27    1.86
  -4   3   4   22.08    2.07
   3  -3  -4  436.82   29.33
  -3   3   4  375.51   29.67
   2  -3  -4   85.41    7.36
   2  -3  -4  109.13    6.82
  -2   3   4   95.82    7.51
  -2   3   4   90.32    7.07
   1  -3  -4   43.42    3.83
  -1   3   4   44.46    3.49
   0  -3  -4  176.27   13.53
   0  -3  -4  205.93   13.91
   0  -3  -4  183.11   14.14
   0   3   4  204.18   13.56
  -1  -3  -4    3.35    0.58
  -1  -3  -4    3.59    0.38
   1   3   4    4.13    0.64
   1   3   4    2.71    0.56
  -4  -3  -4   15.94    1.32
   4   3   4   16.34    1.58
   4   3   4   15.48    1.89
  -5  -3  -4  316.50   22.55
   5   3   4  348.20   22.89
   5   3   4  295.08   23.30
  -6  -3  -4   22.38    1.86
   6   3   4   23.63    2.17
   6   3   4   22.84    2.63
  -7  -3  -4  320.27   23.10
   7   3   4  318.15   24.11
   7   3   4  342.38   23.51
  -8  -3  -4  428.59   31.29
   8   3   4  473.15   31.76
   8   3   4  429.59   32.40
   9   3   4  125.08    9.50
   9   3   4  124.02   10.44
 -10  -3  -4  147.66   10.31
  10   3   4  140.23   11.60
  10   3   4  135.58   10.88
 -11  -3  -4  333.19   22.58
  11   3   4  294.29   22.88
  11   3   4  322.84   24.10
 -12  -3  -4    1.25    0.45
 -12  -3  -4    0.26    0.51
  12   3   4    1.49    1.14
 -13  -3  -4  118.13    9.10
  13   3   4  128.09   13.73
 -14  -3  -4   73.54    6.13
  14   3   4   83.56    8.05
 -15  -3  -4    5.06    1.07
  15   3   4    6.08    2.32
  13  -4  -4   -0.57    0.58
 -13   4   4   -0.57    0.49
  12  -4  -4  105.37    7.60
  12  -4  -4   98.12    9.27
 -12   4   4   95.11    7.48
  11  -4  -4  162.65   13.66
  10  -4  -4    3.16    0.71
  10  -4  -4    3.16    1.57
 -10   4   4    2.55    0.74
   9  -4  -4  147.78    9.58
   9  -4  -4  135.71   11.12
  -9   4   4  112.01    9.56
   8  -4  -4  106.98    7.63
   8  -4  -4  114.63    9.17
  -8   4   4   92.76    7.73
   7  -4  -4   30.13    3.54
   7  -4  -4   30.21    2.40
  -7   4   4   28.08    2.57
   6  -4  -4  218.93   16.27
   6  -4  -4  230.94   14.98
  -6   4   4  183.19   15.14
   5  -4  -4   22.30    1.79
   5  -4  -4   22.21    2.74
   3  -4  -4  429.64   31.16
   2  -4  -4  226.26   14.68
   2  -4  -4  185.61   15.57
  -2   4   4  211.16   14.98
   1  -4  -4   55.83    5.17
   1  -4  -4   64.03    4.29
  -1   4   4   58.09    4.58
   0  -4  -4  245.56   19.72
   0   4   4  302.83   18.90
   0   4   4  257.12   19.20
  -1  -4  -4    0.32    0.13
  -1  -4  -4    0.98    0.64
   1   4   4    0.47    0.35
   1   4   4    0.31    0.14
  -3  -4  -4   10.24    0.88
   3   4   4    9.35    1.13
   4   4   4  575.59   40.42
   4   4   4  566.25   40.80
   5   4   4  677.16   48.37
  -6  -4  -4  113.25    8.53
   6   4   4  116.28    9.49
   6   4   4  126.90    9.06
  -7  -4  -4   66.02    4.99
   7   4   4   70.46    5.56
   7   4   4   65.61    5.95
  -8  -4  -4  250.40   18.14
   8   4   4  267.71   18.79
   8   4   4  247.80   19.28
   9   4   4   13.72    2.31
   9   4   4   12.95    1.93
 -10  -4  -4  396.93   28.09
  10   4   4  405.53   29.50
  10   4   4  386.66   28.71
 -11  -4  -4  178.78   12.87
  11   4   4  175.00   13.43
  11   4   4  178.17   14.31
 -12  -4  -4    1.70    0.68
 -12  -4  -4    0.83    0.45
  12   4   4    2.05    1.36
  12   4   4    1.98    0.90
 -13  -4  -4   85.22    6.63
  13   4   4   87.04    8.22
 -14  -4  -4   18.10    1.99
  14   4   4   21.90    3.56
  13  -5  -4   10.13    2.87
  13  -5  -4   10.20    1.40
 -13   5   4    5.83    1.12
  12  -5  -4   80.58    6.04
  12  -5  -4   76.78    7.91
 -12   5   4   74.76    5.93
  11  -5  -4    5.90    2.07
  10  -5  -4   78.17    5.85
  10  -5  -4   75.00    7.63
   9  -5  -4  243.08   18.50
   9  -5  -4  240.41   16.56
  -9   5   4  212.79   16.59
   8  -5  -4   11.41    1.14
   8  -5  -4   10.55    2.43
  -8   5   4    8.57    1.18
   7  -5  -4   87.26    5.88
   7  -5  -4   79.55    7.36
  -7   5   4   71.68    6.00
   6  -5  -4  184.88   12.63
   6  -5  -4  178.90   14.13
  -6   5   4  167.12   12.83
   5  -5  -4    0.26    0.80
   5  -5  -4    1.02    0.32
  -5   5   4    0.62    0.36
   4  -5  -4  774.66   55.64
   3  -5  -4   21.69    2.90
   3  -5  -4   24.64    1.89
  -3   5   4   26.61    2.23
   2  -5  -4    0.47    0.17
  -2   5   4    0.46    0.35
   1  -5  -4  530.25   38.43
   0  -5  -4  196.14   16.66
   0  -5  -4  230.27   15.59
   0   5   4  251.74   15.61
   0   5   4  206.31   15.98
  -1  -5  -4    0.85    0.94
  -1  -5  -4    1.36    0.22
   1   5   4    1.47    0.23
   1   5   4    0.79    0.47
  -3  -5  -4   29.13    3.03
  -3  -5  -4   26.49    2.00
   3   5   4   24.60    2.39
   3   5   4   24.74    2.59
  -5  -5  -4  436.17   30.95
   5   5   4  449.70   31.96
   5   5   4  435.52   31.53
  -6  -5  -4   11.37    1.10
   6   5   4   12.18    1.84
   6   5   4   12.71    1.70
  -7  -5  -4  312.55   22.65
   7   5   4  334.61   23.90
   7   5   4  314.76   23.36
  -8  -5  -4  391.45   27.89
   8   5   4  415.64   29.40
   8   5   4  377.80   28.64
  -9  -5  -4    0.99    0.37
   9   5   4    0.57    0.93
   9   5   4   -0.13    0.65
 -10  -5  -4  397.96   28.50
  10   5   4  392.91   29.87
  10   5   4  416.75   29.46
 -11  -5  -4   50.85    3.94
  11   5   4   47.60    5.11
  11   5   4   49.74    4.82
 -12  -5  -4   30.28    3.18
 -12  -5  -4   33.75    2.80
  12   5   4   31.31    3.56
  12   5   4   31.58    4.03
 -13  -5  -4  121.41    8.47
  13   5   4   92.03    8.84
  13   5   4  125.57   10.25
 -14  -5  -4   49.54    4.17
  14   5   4   50.66    5.74
  13  -6  -4   45.87    5.79
  13  -6  -4   43.85    3.78
 -13   6   4   44.23    3.70
  12  -6  -4  207.91   14.88
 -12   6   4  201.16   14.79
  11  -6  -4    9.06    2.67
  10  -6  -4   50.16    5.81
  10  -6  -4   54.08    3.98
 -10   6   4   45.72    4.01
   9  -6  -4   98.40    9.21
   9  -6  -4  107.92    7.30
  -9   6   4   89.34    7.33
   8  -6  -4    1.83    0.52
   8  -6  -4    1.93    1.44
  -8   6   4    1.48    0.58
   7  -6  -4  476.29   32.14
   7  -6  -4  450.29   34.03
  -7   6   4  440.94   32.38
   6  -6  -4  552.43   36.40
   6  -6  -4  510.07   38.20
  -6   6   4  489.67   36.65
   5  -6  -4   56.98    3.94
   5  -6  -4   46.27    5.32
  -5   6   4   53.17    4.25
   4  -6  -4  236.19   19.91
   4  -6  -4  291.69   18.38
  -4   6   4  250.04   18.70
   3  -6  -4  224.16   17.43
  -3   6   4  221.61   16.10
   2  -6  -4  250.24   21.12
   2  -6  -4  299.82   19.62
  -2   6   4  284.39   20.06
  -1   6   4  441.62   33.78
  -1   6   4  510.13   33.36
   0  -6  -4  226.20   16.56
   0  -6  -4  221.90   17.99
   0   6   4  253.88   16.59
   0   6   4  241.61   17.11
  -1  -6  -4  147.03   10.43
  -1  -6  -4  154.65   11.97
   1   6   4  150.82   11.01
   1   6   4  142.70   10.43
  -2  -6  -4  375.13   26.15
  -2  -6  -4  359.04   24.54
   2   6   4  351.56   25.14
   2   6   4  318.32   24.51
  -3  -6  -4   35.56    2.42
  -3  -6  -4   32.86    3.62
   3   6   4   30.45    2.97
   3   6   4   29.25    3.11
  -4  -6  -4  427.76   30.37
  -4  -6  -4  423.50   28.88
   4   6   4  395.89   29.81
   4   6   4  397.80   29.54
  -5  -6  -4   86.05    7.27
  -5  -6  -4   77.17    5.91
   5   6   4   84.04    6.96
   5   6   4   80.73    6.66
  -6  -6  -4   35.71    2.84
  -6  -6  -4   37.97    4.03
   6   6   4   37.58    3.85
   6   6   4   37.20    3.62
  -7  -6  -4  300.92   21.73
   7   6   4  300.22   22.62
   7   6   4  320.83   23.08
  -8  -6  -4  133.36   10.16
   8   6   4  145.16   11.53
   8   6   4  145.21   11.19
  -9  -6  -4   56.55    4.25
   9   6   4   55.78    5.53
   9   6   4   52.27    5.15
 -10  -6  -4  217.08   15.88
  10   6   4  241.03   17.50
  10   6   4  205.80   16.90
 -11  -6  -4   44.27    3.78
  11   6   4   50.25    5.23
  11   6   4   48.62    4.93
 -12  -6  -4   26.71    2.48
  12   6   4   29.31    4.39
 -13  -6  -4   46.77    3.64
 -13  -6  -4   35.59    4.04
  13   6   4   39.71    4.92
  13   6   4   50.62    5.30
 -14  -6  -4    2.47    0.77
  14   6   4    3.45    1.79
  12  -7  -4   88.62    8.86
  12  -7  -4   81.14    6.26
 -12   7   4   76.07    6.15
  11  -7  -4    1.15    1.40
  10  -7  -4  158.16   11.54
  10  -7  -4  169.02   14.09
 -10   7   4  150.23   11.45
   9  -7  -4   43.19    3.32
   9  -7  -4   39.58    5.18
  -9   7   4   39.66    3.47
   8  -7  -4   11.16    2.90
   8  -7  -4   11.40    1.15
  -8   7   4    8.63    1.31
   7  -7  -4  304.23   19.41
   7  -7  -4  243.39   21.53
  -7   7   4  267.48   19.72
   6  -7  -4  212.85   18.06
   6  -7  -4  241.11   16.07
  -6   7   4  221.88   16.44
   5  -7  -4  103.75   10.16
   5  -7  -4  127.28    8.36
  -5   7   4  114.18    8.76
   4  -7  -4  458.82   37.17
   4  -7  -4  556.43   35.23
  -4   7   4  486.45   35.66
   3  -7  -4  189.61   16.67
   3  -7  -4  230.84   14.82
  -3   7   4  205.32   15.30
   2  -7  -4  137.04   12.72
   2  -7  -4  166.76   11.01
  -2   7   4  160.07   11.56
   1  -7  -4  132.04   12.01
   1  -7  -4  144.29   10.31
  -1   7   4  146.38   10.92
  -1   7   4  159.81   10.33
   0  -7  -4   56.02    5.87
   0  -7  -4   59.18    4.28
   0   7   4   65.51    4.98
  -1  -7  -4  359.17   29.25
  -1  -7  -4  402.06   27.56
   1   7   4  416.09   27.59
   1   7   4  395.23   28.28
  -2  -7  -4  190.53   13.21
  -2  -7  -4  190.07   15.00
   2   7   4  177.29   13.19
   2   7   4  196.31   14.01
  -3  -7  -4   17.37    1.36
  -3  -7  -4   21.82    2.95
   3   7   4   19.56    2.15
   3   7   4   16.41    1.33
  -4  -7  -4  607.35   41.71
  -4  -7  -4  598.24   39.85
   4   7   4  532.76   40.64
   4   7   4  536.22   40.89
  -5  -7  -4   18.95    1.51
  -5  -7  -4   19.69    2.89
   5   7   4   17.61    2.33
   5   7   4   17.24    2.44
  -6  -7  -4  103.82    7.18
  -6  -7  -4   99.48    8.74
   6   7   4   93.40    8.10
   6   7   4   98.21    8.40
  -7  -7  -4  248.90   18.62
  -7  -7  -4  229.34   16.88
   7   7   4  251.62   18.36
   7   7   4  222.04   17.92
  -8  -7  -4    5.72    0.78
  -8  -7  -4    5.31    1.69
   8   7   4    4.70    1.51
   8   7   4    6.07    1.64
  -9  -7  -4  271.74   21.28
  -9  -7  -4  267.34   19.44
   9   7   4  281.00   21.03
 -10  -7  -4  160.11   12.08
 -10  -7  -4  176.80   14.15
  10   7   4  169.38   13.66
  10   7   4  162.88   13.40
 -11  -7  -4    6.94    2.25
 -11  -7  -4    5.09    0.86
  11   7   4    4.09    1.74
  11   7   4    6.04    1.92
 -12  -7  -4   68.46    5.43
 -12  -7  -4   62.12    6.26
 -12  -7  -4   85.76    7.98
  12   7   4   69.64    6.96
  12   7   4   68.70    6.84
 -13  -7  -4   83.92    6.52
 -13  -7  -4  105.02    9.52
 -13  -7  -4   71.79    7.18
  13   7   4   80.28    7.87
  13   7   4   90.29    8.29
  12  -8  -4   44.94    3.61
  12  -8  -4   45.60    6.07
 -12   8   4   39.10    3.48
  11  -8  -4    8.67    1.57
  11  -8  -4    9.98    3.92
  10  -8  -4  114.07    7.97
  10  -8  -4  102.96   10.44
 -10   8   4  102.12    7.84
   9  -8  -4   25.40    2.20
   9  -8  -4   25.05    4.25
  -9   8   4   22.55    2.41
  -9   8   4   27.04    2.16
   8  -8  -4   36.21    5.33
   8  -8  -4   43.85    3.36
  -8   8   4   44.29    3.31
   7  -8  -4  376.26   25.09
   7  -8  -4  341.60   27.60
  -7   8   4  344.15   25.55
   6  -8  -4    1.44    0.43
   6  -8  -4    1.94    1.45
  -6   8   4    2.34    0.83
   5  -8  -4    2.93    1.75
   5  -8  -4    3.27    0.51
  -5   8   4    3.29    0.88
   4  -8  -4  309.22   26.16
   4  -8  -4  365.95   23.91
  -4   8   4  339.59   24.51
   3  -8  -4    6.05    2.15
   3  -8  -4    7.42    0.69
  -3   8   4    6.78    1.16
   2  -8  -4  309.07   22.29
  -2   8   4  299.19   22.94
  -2   8   4  343.77   22.29
   1  -8  -4   74.99    8.00
   1  -8  -4   94.10    6.23
  -1   8   4   90.34    6.96
   0  -8  -4   37.00    4.80
   0  -8  -4   42.12    3.11
   0   8   4   46.38    3.93
   0   8   4   46.72    3.11
  -1  -8  -4  152.24   11.00
  -1  -8  -4  152.41   13.05
   1   8   4  156.94   11.00
   1   8   4  167.42   11.92
  -2  -8  -4   46.14    3.83
  -2  -8  -4   57.09    5.80
  -2  -8  -4   57.26    3.82
   2   8   4   58.29    4.79
  -3  -8  -4  146.48    9.84
  -3  -8  -4  119.62    9.82
  -3  -8  -4  157.81   12.12
   3   8   4  140.72   10.83
  -4  -8  -4  537.24   36.86
  -4  -8  -4  541.04   38.99
   4   8   4  499.38   37.86
  -5  -8  -4    0.40    0.81
  -5  -8  -4    1.54    0.31
   5   8   4   -0.59    0.67
   5   8   4    0.00    0.56
  -6  -8  -4  274.16   21.62
  -6  -8  -4  277.99   19.75
   6   8   4  271.13   21.02
   6   8   4  294.54   21.26
  -7  -8  -4  224.37   17.84
  -7  -8  -4  221.31   15.94
   7   8   4  219.71   17.23
   7   8   4  231.75   17.49
  -8  -8  -4    3.26    0.60
  -8  -8  -4    3.32    1.69
   8   8   4    3.35    1.62
   8   8   4    3.70    1.55
  -9  -8  -4  204.35   17.00
  -9  -8  -4  198.52   15.05
   9   8   4  229.17   16.86
   9   8   4  211.42   16.55
 -10  -8  -4  157.81   11.60
 -10  -8  -4  165.57   13.70
  10   8   4  157.11   13.12
  10   8   4  159.87   13.21
 -11  -8  -4    3.37    1.93
 -11  -8  -4    4.23    0.79
  11   8   4    4.07    1.93
 -12  -8  -4  146.69   12.49
 -12  -8  -4  124.29   10.95
  12   8   4  132.88   11.57
  12   8   4  132.70   11.59
 -13  -8  -4   80.55    8.52
 -13  -8  -4   74.16    5.88
  13   8   4   76.73    7.61
  13   8   4   73.52    7.37
  12  -9  -4   37.42    5.72
 -12   9   4   35.49    3.03
  11  -9  -4   44.33    3.67
  11  -9  -4   44.48    6.32
  10  -9  -4  115.64    8.57
  10  -9  -4  120.14   12.91
 -10   9   4  113.34    8.48
   9  -9  -4    1.93    0.53
   9  -9  -4    2.03    1.96
  -9   9   4    1.64    0.81
  -9   9   4    1.26    0.49
   8  -9  -4   52.02    6.74
   8  -9  -4   60.15    4.31
  -8   9   4   59.33    4.25
  -8   9   4   49.80    4.73
   7  -9  -4  125.96    8.80
   7  -9  -4  117.20   11.55
  -7   9   4  111.34    9.36
  -7   9   4  127.83    8.75
   6  -9  -4    1.62    1.52
   6  -9  -4    2.13    0.47
  -6   9   4    2.82    0.45
  -6   9   4    1.63    0.86
   5  -9  -4  430.25   28.45
   5  -9  -4  375.79   31.20
  -5   9   4  402.27   29.19
   4  -9  -4  404.54   27.09
   4  -9  -4  366.09   29.84
  -4   9   4  382.63   27.87
   3  -9  -4    0.66    0.21
   3  -9  -4    1.12    1.60
  -3   9   4    1.22    0.75
   2  -9  -4  145.69   10.74
   2  -9  -4  130.57   13.00
  -2   9   4  152.44   11.61
  -2   9   4  174.91   10.75
   1  -9  -4   75.51    8.02
   1  -9  -4   78.28    5.77
  -1   9   4   86.13    5.77
  -1   9   4   86.70    6.74
   0  -9  -4   97.71    9.73
   0   9   4  117.22    8.63
  -1  -9  -4  128.28   11.98
   1   9   4  148.37   10.82
  -2  -9  -4    2.55    1.50
  -2  -9  -4    1.99    0.19
   2   9   4    1.63    0.95
  -3  -9  -4  303.62   22.39
  -3  -9  -4  318.54   24.86
   3   9   4  341.07   23.75
  -4  -9  -4  379.19   27.77
  -4  -9  -4  354.48   25.24
   4   9   4  347.97   26.47
  -5  -9  -4    0.64    0.99
   5   9   4    0.73    1.04
  -6  -9  -4  270.33   21.96
  -6  -9  -4  289.06   19.82
   6   9   4  281.29   21.27
  -7  -9  -4  185.18   15.54
  -7  -9  -4  193.27   13.42
   7   9   4  195.85   15.11
   7   9   4  176.55   14.80
  -8  -9  -4   22.81    3.66
  -8  -9  -4   23.74    1.98
   8   9   4   22.30    3.34
   8   9   4   24.98    3.41
  -9  -9  -4  110.05    7.94
  -9  -9  -4  110.49   10.04
   9   9   4  100.94    9.48
   9   9   4  109.33    9.63
 -10  -9  -4   26.77    2.24
 -10  -9  -4   24.03    4.35
  10   9   4   25.67    3.67
  10   9   4   24.88    4.20
 -11  -9  -4    9.89    1.15
 -11  -9  -4    6.77    2.52
  11   9   4    9.78    2.53
  11   9   4    8.10    2.40
 -12  -9  -4  178.67   14.91
 -12  -9  -4  190.79   13.59
 -12  -9  -4  193.50   16.24
  12   9   4  185.24   15.43
  12   9   4  186.18   15.55
  11 -10  -4   52.67    7.35
  11 -10  -4   55.99    4.28
 -11  10   4   51.20    4.17
  10 -10  -4   69.09    5.19
  10 -10  -4   70.95    8.40
 -10  10   4   64.26    5.10
   9 -10  -4    6.66    3.24
   9 -10  -4    6.19    0.82
  -9  10   4    4.41    1.14
  -9  10   4    4.41    0.71
   8 -10  -4  157.70   11.11
   8 -10  -4  160.81   14.62
  -8  10   4  131.07   11.67
  -8  10   4  167.38   11.07
   7 -10  -4   26.23    4.76
   7 -10  -4   24.24    2.06
  -7  10   4   23.84    2.74
  -7  10   4   25.56    2.02
   6 -10  -4   12.19    1.15
   6 -10  -4   10.92    3.25
  -6  10   4   10.37    1.82
  -6  10   4   13.91    1.11
   5 -10  -4  268.30   23.51
   5 -10  -4  287.79   20.44
  -5  10   4  298.72   20.39
  -5  10   4  300.85   21.44
   4 -10  -4   93.75    9.98
   4 -10  -4  108.27    7.20
  -4  10   4   98.42    7.07
  -4  10   4   94.97    8.04
   3 -10  -4   50.59    3.60
   3 -10  -4   49.28    6.28
  -3  10   4   48.96    4.56
  -3  10   4   49.75    3.56
   2 -10  -4  244.49   22.08
  -2  10   4  283.73   20.47
  -2  10   4  316.75   19.34
  -2  10   4  254.17   19.36
   1 -10  -4   10.52    2.99
   0 -10  -4   59.43    7.33
   0  10   4   83.69    6.36
  -1 -10  -4  291.99   23.63
   1  10   4  304.03   22.09
  -2 -10  -4    2.69    1.66
   2  10   4    1.97    1.04
  -3 -10  -4  116.05    8.96
  -3 -10  -4  136.60   11.85
   3  10   4  141.13   10.48
  -4 -10  -4  153.79   10.67
  -4 -10  -4  148.59   13.24
   4  10   4  151.10   12.15
  -5 -10  -4   42.10    3.11
  -5 -10  -4   41.16    5.18
   5  10   4   44.48    4.63
  -6 -10  -4  262.44   20.89
  -6 -10  -4  254.39   18.29
   6  10   4  262.69   20.00
  -7 -10  -4   92.65    9.28
  -7 -10  -4  100.14    7.06
   7  10   4   97.89    8.75
  -8 -10  -4   43.69    5.63
  -8 -10  -4   48.40    3.66
   8  10   4   51.29    5.40
  -9 -10  -4  175.49   17.26
  -9 -10  -4  201.51   14.01
   9  10   4  206.77   16.06
 -10 -10  -4   37.97    3.01
  10  10   4   33.55    4.60
 -11 -10  -4   23.77    4.12
 -11 -10  -4   21.83    2.10
  11  10   4   21.03    3.54
  11  10   4   27.60    3.93
  10 -11  -4   45.42    6.93
 -10  11   4   44.14    3.48
   9 -11  -4   12.26    3.99
  -9  11   4   12.76    1.26
   8 -11  -4  103.67    8.03
  -8  11   4  121.82    8.02
  -8  11   4  105.37    8.90
   7 -11  -4   58.13    4.48
   7 -11  -4   67.65    8.10
  -7  11   4   59.68    4.43
   6 -11  -4   54.32    7.01
   6 -11  -4   45.20    3.65
  -6  11   4   53.48    4.80
  -6  11   4   49.04    3.61
   5 -11  -4  177.46   16.53
  -5  11   4  194.24   14.36
  -5  11   4  183.40   13.05
   4 -11  -4    5.69    2.62
  -4  11   4    4.84    0.46
  -4  11   4    5.67    1.50
   3 -11  -4   26.92    4.61
  -3  11   4   26.81    3.35
  -3  11   4   35.35    2.29
   2 -11  -4  130.76   12.78
  -2  11   4  146.53   11.09
   1 -11  -4    2.88    1.91
  -1  11   4    2.75    1.01
   0 -11  -4  108.02   10.63
   0  11   4  108.97    8.90
  -1 -11  -4   62.43    7.23
   1  11   4   66.71    5.94
  -2 -11  -4   14.41    3.45
   2  11   4   17.82    2.41
  -3 -11  -4   60.69    7.04
   3  11   4   58.65    5.65
  -4 -11  -4   16.90    3.75
   4  11   4   14.29    2.70
  -5 -11  -4   33.08    2.48
  -5 -11  -4   33.46    4.92
   5  11   4   38.24    4.14
  -6 -11  -4  160.57   14.68
   6  11   4  180.18   13.99
  -7 -11  -4    0.96    1.61
  -7 -11  -4    1.50    0.36
   7  11   4    0.11    1.24
  -8 -11  -4   86.95    9.29
  -8 -11  -4   91.97    6.61
   8  11   4   91.70    8.77
  -9 -11  -4   41.96    5.69
   9  11   4   51.38    5.68
 -10 -11  -4    2.06    1.86
 -10 -11  -4    2.31    0.61
  10  11   4    1.24    1.43
  10 -12  -4   14.05    4.36
   9 -12  -4   41.29    6.78
   8 -12  -4  114.54   11.48
  -8  12   4   89.47    8.15
   7 -12  -4   11.02    3.73
  -7  12   4    7.73    1.82
  -7  12   4    8.57    0.83
   6 -12  -4   54.34    7.88
  -6  12   4   58.15    5.60
  -6  12   4   59.72    4.22
   5 -12  -4  103.18   11.20
  -5  12   4  105.69    8.93
  -5  12   4  107.46    7.50
   4 -12  -4    0.20    1.60
  -4  12   4    1.18    0.96
   3 -12  -4  112.74   11.32
  -3  12   4  107.29    9.09
   2 -12  -4   68.21    8.02
  -2  12   4   66.86    6.15
   1 -12  -4    0.33    1.48
  -1  12   4   -0.52    0.80
   0 -12  -4  114.50   11.87
   0  12   4  136.26   10.41
  -1 -12  -4    2.88    2.02
   1  12   4    2.36    1.08
  -2 -12  -4  105.92   10.85
   2  12   4  114.65    9.39
  -3 -12  -4  202.46   17.66
   3  12   4  204.17   15.99
  -4 -12  -4   11.01    3.22
   4  12   4   11.66    2.55
  -5 -12  -4   49.33    6.19
   5  12   4   45.82    5.26
  -6 -12  -4  120.89   12.85
  -7 -12  -4    3.31    2.06
   7  12   4    2.17    1.43
  -8 -12  -4   99.93   10.40
   8  12   4  114.59   10.11
  -9 -12  -4   82.37    9.20
   9  12   4  102.15    9.23
   9 -13  -4   55.19    8.19
   8 -13  -4   86.26    9.98
  -8  13   4   65.38    6.42
   7 -13  -4    7.49    2.99
  -7  13   4    5.70    1.71
   6 -13  -4  112.01   12.45
  -6  13   4  123.99   10.08
   5 -13  -4   54.66    7.55
  -5  13   4   50.15    5.26
   4 -13  -4    7.18    3.00
  -4  13   4   10.46    2.19
   3 -13  -4   82.31    9.37
  -3  13   4   75.76    7.09
   2 -13  -4   34.05    5.58
  -2  13   4   35.50    4.01
   1 -13  -4   19.59    4.09
  -1  13   4   26.11    3.22
   0 -13  -4   91.74   10.32
   0  13   4  104.32    8.66
  -1 -13  -4    0.03    1.11
   1  13   4    0.15    0.83
  -2 -13  -4   37.66    5.76
   2  13   4   45.45    4.67
  -3 -13  -4   57.27    7.43
   3  13   4   66.78    8.36
  -4 -13  -4   -0.04    1.00
   4  13   4    0.25    0.82
  -5 -13  -4   86.20    9.65
   5  13   4   94.23    8.61
  -6 -13  -4   68.39    8.02
   6  13   4   72.46    7.34
  -7 -13  -4   13.60    3.63
   7  13   4   20.63    3.71
  -8 -13  -4   60.79    7.79
   8  13   4   80.76    7.82
   7 -14  -4   16.69    4.91
  -7  14   4   16.10    2.63
   6 -14  -4   96.47   10.82
  -6  14   4   77.83    7.67
   5 -14  -4   30.54    5.46
  -5  14   4   28.77    3.77
   4 -14  -4   38.79    6.56
  -4  14   4   39.31    4.53
   3 -14  -4   80.35    9.41
  -3  14   4   76.33    7.29
   2 -14  -4   10.64    3.74
  -2  14   4    5.92    2.06
   1 -14  -4   61.42    7.97
  -1  14   4   64.85    6.96
   0 -14  -4   34.83    5.81
   0  14   4   32.81    4.11
  -1 -14  -4    4.47    2.68
   1  14   4    7.71    2.06
  -2 -14  -4   91.94   10.52
   2  14   4  101.91    8.91
  -3 -14  -4   53.03    7.29
   3  14   4   54.89    5.87
  -4 -14  -4    3.09    2.14
   4  14   4    4.58    1.90
  -5 -14  -4   67.68    8.42
   5  14   4   73.49    7.28
  -6 -14  -4   10.49    3.58
   6  14   4   16.61    3.50
  -7 -14  -4   11.59    3.52
   7  14   4   15.57    3.44
  -6  15   4   62.88    6.34
   5 -15  -4    0.21    2.29
  -5  15   4    2.69    1.50
   4 -15  -4   50.83    7.54
  -4  15   4   55.58    5.80
   3 -15  -4   80.63    9.74
  -3  15   4   73.62    7.35
   2 -15  -4   -0.61    1.92
  -2  15   4   -0.42    1.04
   1 -15  -4  114.99   11.94
  -1  15   4   97.72    9.24
   0 -15  -4   32.41    6.31
   0  15   4   36.07    4.42
  -1 -15  -4   -0.33    1.83
   1  15   4   -0.14    0.81
  -2 -15  -4   57.46    8.12
   2  15   4   67.11    6.66
  -3 -15  -4    9.70    3.51
   3  15   4   15.78    3.24
  -4 -15  -4   17.96    4.60
   4  15   4   28.34    3.91
   5  15   4   91.00    8.95
   2 -16  -4    4.54    2.92
  -2  16   4    5.80    2.05
   1 -16  -4   12.62    4.05
  -1  16   4    9.01    2.34
   0 -16  -4    1.58    2.15
   0  16   4    3.34    1.87
  -1 -16  -4   21.64    5.65
   1  16   4   32.13    4.19
   0  12  -5    3.44    2.16
   0 -12   5    5.02    2.02
   0 -12   5    3.56    2.30
  -1  12  -5   60.92    7.58
   1 -12   5   69.90    8.52
   1 -12   5   85.23    7.69
  -2  12  -5    4.30    2.16
   2 -12   5    1.79    1.51
   2 -12   5    5.86    2.92
  -3  12  -5   18.71    3.95
   3 -12   5   28.86    3.86
   3 -12   5   24.51    4.92
   4 -12   5  103.56   11.51
   4 -12   5  110.76    9.78
   5 -12   5   -0.07    1.16
   5 -12   5   -1.30    1.53
   6 -12   5   50.52    5.40
   6 -12   5   43.89    7.22
  -3 -11   5    6.67    2.30
  -3 -11   5    7.27    2.55
   2  11  -5  124.96   11.51
  -2 -11   5  108.57   11.26
  -2 -11   5  120.07   10.67
   1  11  -5   11.08    3.21
  -1 -11   5    7.52    2.95
  -1 -11   5   12.53    2.82
   0  11  -5   11.18    2.99
   0 -11   5   12.69    3.28
   0 -11   5   14.52    2.88
  -1  11  -5   30.61    4.43
   1 -11   5   20.16    4.26
   1 -11   5   26.18    3.60
  -2  11  -5    6.48    3.14
   2 -11   5    9.39    3.11
   2 -11   5    8.09    2.06
  -3  11  -5   76.45    8.11
   3 -11   5   88.58    7.91
   3 -11   5   79.44    9.39
   4 -11   5  104.32   12.49
   5 -11   5    5.98    2.78
   5 -11   5    1.72    1.36
   6 -11   5   80.41    9.74
   6 -11   5   85.33    7.75
   7 -11   5    3.32    2.43
   7 -11   5    2.37    1.51
   8 -11   5   48.45    4.90
   8 -11   5   37.88    6.81
   9 -11   5   69.22    9.24
  -5 -10   5   44.57    5.40
  -4 -10   5    2.45    1.81
  -4 -10   5    3.14    1.62
   3  10  -5   63.78    7.11
  -3 -10   5   53.56    6.79
  -3 -10   5   67.56    6.69
   2  10  -5   88.67    8.89
  -2 -10   5   69.37    8.45
  -2 -10   5   96.73    8.35
   1  10  -5    0.72    1.33
  -1 -10   5    1.25    1.62
  -1 -10   5    0.75    0.94
   0  10  -5  108.08    9.70
   0 -10   5   97.42    8.88
   0 -10   5   90.10    9.74
   1 -10   5   47.51    5.58
   1 -10   5   39.11    5.70
  -2  10  -5    4.69    1.98
   2 -10   5    4.37    2.21
   2 -10   5    6.21    1.87
  -3  10  -5   93.85    9.43
   3 -10   5  114.29    9.30
   3 -10   5  103.00   10.66
  -4  10  -5   27.56    3.88
   4 -10   5   31.38    3.79
   4 -10   5   27.66    4.89
  -5  10  -5   45.19    3.75
   5 -10   5   46.73    6.64
   5 -10   5   52.46    5.13
   6 -10   5  162.33   15.87
   6 -10   5  180.13   13.84
  -7  10  -5    1.54    0.44
   7 -10   5    1.90    1.24
   7 -10   5    0.91    2.00
  -8  10  -5   78.75    6.35
   8 -10   5   94.09   10.46
   8 -10   5   97.04    7.85
   9 -10   5  129.82   13.57
 -10  10  -5    0.11    0.47
  10 -10   5    0.57    2.13
   6   9  -5   57.84    4.30
  -6  -9   5   54.31    6.22
   5   9  -5   83.24    5.56
  -5  -9   5   72.33    7.56
  -5  -9   5   64.65    7.73
   4   9  -5    0.37    0.51
  -4  -9   5    0.41    0.91
  -4  -9   5    1.00    1.33
   3   9  -5   81.72    5.49
   3   9  -5   79.00    8.19
  -3  -9   5   79.58    7.39
  -3  -9   5   59.40    7.47
   2   9  -5   56.27    7.11
   2   9  -5   55.46    3.88
  -2  -9   5   45.08    5.88
   1   9  -5   15.28    1.26
   1   9  -5   15.56    3.33
  -1  -9   5   14.75    2.79
  -1  -9   5   15.04    3.12
   0   9  -5  116.32    8.07
   0   9  -5  110.31   10.37
   0  -9   5  116.78    9.87
   0  -9   5  107.85   10.62
  -1   9  -5   39.02    4.73
  -1   9  -5   38.48    2.82
   1  -9   5   33.92    5.19
   1  -9   5   41.52    4.45
  -2   9  -5   40.65    3.05
  -2   9  -5   46.77    5.14
   2  -9   5   48.49    4.77
   2  -9   5   34.35    5.30
  -3   9  -5  104.92    9.63
  -3   9  -5  106.05    7.65
   3  -9   5  104.41   10.58
   3  -9   5  114.94    9.33
  -4   9  -5   27.64    3.89
  -4   9  -5   30.71    2.36
   4  -9   5   32.18    5.06
   4  -9   5   35.16    3.87
  -5   9  -5   82.65    6.18
   5  -9   5   91.83    7.69
   5  -9   5   84.74    9.27
  -6   9  -5   99.87    7.34
   6  -9   5  107.62    8.75
   6  -9   5   98.67   10.58
  -7   9  -5    3.01    0.55
   7  -9   5    5.56    1.53
   7  -9   5    2.01    1.68
  -8   9  -5   41.84    3.40
   8  -9   5   60.27    9.72
  -9   9  -5  111.35    8.51
   9  -9   5  129.22   12.48
 -10   9  -5   17.18    1.62
  10  -9   5   19.43    4.69
 -11   9  -5   60.96    4.94
  11  -9   5   77.48    8.93
   7   8  -5    1.89    0.48
  -7  -8   5    1.09    1.55
   6   8  -5  122.44    8.98
  -6  -8   5  126.20   11.01
   5   8  -5   69.34    5.18
  -5  -8   5   70.75    6.97
   4   8  -5   29.99    2.38
   3   8  -5  139.42   12.00
   3   8  -5  142.04    9.34
  -3  -8   5  132.41   11.07
  -3  -8   5  107.22   11.16
   2   8  -5   83.80    5.75
   2   8  -5   77.64    7.89
  -2  -8   5   67.77    7.58
  -2  -8   5   86.29    7.50
   1   8  -5   24.84    3.81
   1   8  -5   23.45    1.85
  -1  -8   5   26.44    3.36
  -1  -8   5   21.51    3.56
   0   8  -5  108.85    9.46
   0   8  -5  101.00    7.20
   0  -8   5  108.06    8.87
   0  -8   5   87.82    9.31
  -1   8  -5    1.12    0.99
  -1   8  -5    0.04    0.21
   1  -8   5   -0.29    0.78
   1  -8   5   -0.16    1.20
  -2   8  -5  208.46   14.25
  -2   8  -5  189.47   16.08
   2  -8   5  204.70   15.76
  -3   8  -5  157.56   13.76
  -3   8  -5  178.71   12.09
   3  -8   5  160.78   14.70
   3  -8   5  181.27   13.57
  -4   8  -5    1.26    1.15
  -4   8  -5    0.74    0.31
   4  -8   5    1.36    1.03
   4  -8   5    2.45    1.75
  -5   8  -5  116.87    8.72
   5  -8   5  124.58    9.99
   5  -8   5  127.46   11.79
  -6   8  -5   67.76    5.05
   6  -8   5   70.87    7.95
  -7   8  -5    0.07    0.31
   7  -8   5   -0.51    0.74
   7  -8   5   -1.11    1.18
  -8   8  -5  180.95   14.04
   8  -8   5  194.77   17.40
   8  -8   5  217.16   15.04
  -9   8  -5   14.98    1.41
   9  -8   5   13.20    3.83
 -10   8  -5   13.15    1.37
  10  -8   5   15.87    4.25
 -11   8  -5   98.95    7.31
  12  -8   5   11.25    3.82
   8   7  -5   40.38    3.33
  -8  -7   5   44.31    5.25
   7   7  -5   29.85    2.47
   6   7  -5  135.46    9.17
  -6  -7   5  108.15   10.97
  -6  -7   5  134.89   11.19
   5   7  -5   39.65    2.86
  -5  -7   5   28.74    4.31
  -5  -7   5   40.07    4.40
   4   7  -5   81.85    5.55
  -4  -7   5   80.42    7.17
  -4  -7   5   63.12    7.09
   3   7  -5  157.49   11.27
   3   7  -5  164.32   13.56
  -3  -7   5  153.83   12.78
   2   7  -5   35.86    2.65
   2   7  -5   39.81    4.73
  -2  -7   5   36.95    4.05
  -2  -7   5   28.36    4.10
   1   7  -5   46.41    3.29
   1   7  -5   45.20    5.19
  -1  -7   5   44.28    4.57
  -1  -7   5   39.45    4.93
   0   7  -5  142.95    9.94
   0   7  -5  145.82   11.95
   0  -7   5  145.23   11.40
   0  -7   5  126.27   11.83
  -1   7  -5    1.02    0.28
  -1   7  -5    0.20    0.99
   1  -7   5    0.25    1.10
   1  -7   5    0.86    0.97
  -2   7  -5   77.93    7.53
  -2   7  -5   85.20    5.98
   2  -7   5   91.29    7.35
   2  -7   5   76.20    7.99
  -3   7  -5   54.25    3.85
  -3   7  -5   46.80    5.15
   3  -7   5   47.57    5.87
   3  -7   5   58.37    5.17
  -4   7  -5  110.32    7.52
  -4   7  -5   91.10    8.73
   4  -7   5  104.68    9.94
   4  -7   5  109.75    8.70
  -5   7  -5  129.08    9.49
   5  -7   5  131.34   12.04
   5  -7   5  139.12   10.61
  -6   7  -5  112.55    8.10
   6  -7   5  104.72   10.58
   6  -7   5  118.78    9.13
  -7   7  -5   23.54    2.02
   7  -7   5   23.49    4.19
   7  -7   5   27.93    2.85
  -8   7  -5  120.18    9.05
   8  -7   5  123.35   11.91
   8  -7   5  132.45    9.77
  -9   7  -5    8.37    1.02
   9  -7   5    8.10    2.91
   9  -7   5    9.52    1.53
 -10   7  -5  120.45    9.20
  10  -7   5  136.15   12.52
 -11   7  -5   72.86    5.89
  11  -7   5   90.56    9.29
 -12   7  -5    0.19    0.38
  12  -7   5    1.10    1.87
 -13   7  -5   53.47    4.53
  13  -7   5   66.34    8.11
   9   6  -5  118.04    9.16
  -9  -6   5  135.84   11.31
   8   6  -5   41.51    3.32
  -8  -6   5   41.03    5.00
   7   6  -5   82.59    6.12
  -7  -6   5   74.29    7.89
  -7  -6   5   92.10    8.01
   6   6  -5  144.68    9.84
  -6  -6   5  120.17   11.46
  -6  -6   5  142.60   11.55
   5   6  -5   17.34    1.45
  -5  -6   5   12.35    2.55
  -5  -6   5   17.09    2.74
   4   6  -5  171.79   11.21
  -4  -6   5  166.52   12.78
  -4  -6   5  130.96   12.59
   3   6  -5  189.20   12.10
  -3  -6   5  141.93   13.46
  -3  -6   5  176.43   13.56
   2   6  -5    0.24    1.13
   2   6  -5    1.46    0.36
  -2  -6   5    0.83    0.95
  -2  -6   5    0.66    0.76
   1   6  -5  131.76    8.95
   1   6  -5  128.44   10.71
  -1  -6   5  133.56   10.31
  -1  -6   5  107.93   10.39
   0   6  -5  102.01    8.71
   0   6  -5  100.77    7.04
   0  -6   5   88.87    8.59
   0  -6   5  101.82    8.27
  -1   6  -5   77.71    5.33
  -1   6  -5   70.36    7.26
   1  -6   5   71.77    7.02
   1  -6   5   71.36    6.85
  -2   6  -5  330.94   21.08
  -2   6  -5  280.92   22.43
   2  -6   5  269.55   22.86
   2  -6   5  310.53   22.25
  -3   6  -5  111.71    9.79
  -3   6  -5  129.29    8.59
   3  -6   5  105.21   10.33
   3  -6   5  131.01    9.72
  -4   6  -5   82.77    5.81
   4  -6   5   72.44    7.64
   4  -6   5   83.31    6.80
  -5   6  -5   29.37    2.31
   5  -6   5   26.54    3.91
   5  -6   5   33.24    3.23
  -6   6  -5   31.46    2.50
   6  -6   5   33.95    3.22
   6  -6   5   29.78    4.39
  -7   6  -5  250.53   17.73
   7  -6   5  230.57   20.08
   7  -6   5  266.20   18.41
  -8   6  -5   86.74    6.65
   8  -6   5   88.50    8.99
   8  -6   5   96.68    7.17
  -9   6  -5   16.79    1.59
   9  -6   5   17.98    2.02
   9  -6   5   16.55    3.31
 -10   6  -5  111.66    8.63
  10  -6   5  128.61   11.70
 -11   6  -5   62.34    4.81
  11  -6   5   63.88    9.07
 -12   6  -5    7.29    1.05
  12  -6   5    6.51    2.58
 -13   6  -5   99.70    7.98
  13  -6   5  118.39   11.41
  14  -6   5   53.54    7.39
  10   5  -5   50.65    4.14
 -10  -5   5   53.78    5.79
   9   5  -5  120.14    8.95
  -9  -5   5  123.61   11.42
   8   5  -5   25.85    2.32
  -8  -5   5   29.15    4.02
  -8  -5   5   27.21    3.72
   7   5  -5   59.19    4.45
  -7  -5   5   59.34    5.92
  -7  -5   5   55.65    5.93
   6   5  -5  121.61    8.66
  -6  -5   5  123.31   10.16
  -6  -5   5  112.74   10.16
   5   5  -5    1.22    0.41
  -5  -5   5    1.15    1.08
  -5  -5   5    2.02    1.29
   4   5  -5  178.24   12.36
  -4  -5   5  179.24   13.71
  -4  -5   5  162.40   13.65
   3   5  -5  124.13    8.24
  -3  -5   5   98.75    9.34
  -3  -5   5  120.21    9.52
   2   5  -5   50.43    3.33
  -2  -5   5   35.35    4.28
  -2  -5   5   45.61    4.45
   1   5  -5  246.33   16.19
   1   5  -5  229.43   17.73
  -1  -5   5  205.85   17.42
  -1  -5   5  233.03   17.32
   0   5  -5  118.78   10.35
   0   5  -5  142.22    9.03
   0  -5   5  129.60   10.09
   0  -5   5  111.42   10.25
  -1   5  -5   54.40    3.73
  -1   5  -5   46.17    4.86
   1  -5   5   47.76    5.01
   1  -5   5   51.59    4.66
  -2   5  -5  248.99   17.13
   2  -5   5  235.34   18.05
  -3   5  -5   11.56    1.00
   3  -5   5    9.63    1.56
   3  -5   5   10.84    2.18
  -4   5  -5  293.58   20.15
   4  -5   5  295.00   20.98
   4  -5   5  266.95   21.83
  -5   5  -5  287.50   18.95
   5  -5   5  240.04   20.65
   5  -5   5  273.48   19.65
  -6   5  -5    5.50    0.70
   6  -5   5    4.21    1.03
   6  -5   5    3.72    1.73
  -7   5  -5  236.26   16.49
   7  -5   5  239.16   16.95
   7  -5   5  218.08   18.54
  -8   5  -5  150.74   11.01
   8  -5   5  163.65   11.37
   8  -5   5  141.88   13.15
  -9   5  -5    9.61    1.07
   9  -5   5   10.42    1.18
   9  -5   5    8.70    2.78
 -10   5  -5  109.18    8.06
  10  -5   5  110.54   10.59
 -11   5  -5   29.86    2.62
  11  -5   5   34.22    4.93
 -12   5  -5   44.95    3.79
  12  -5   5   51.98    6.57
 -13   5  -5  137.63   10.95
  13  -5   5  166.12   14.39
 -14   5  -5    7.62    1.27
  14  -5   5   11.63    3.62
 -11  -4   5   -0.04    1.26
  10   4  -5   79.32    5.99
 -10  -4   5   75.98    7.46
   9   4  -5   91.13    7.62
  -9  -4   5  104.18    9.04
  -9  -4   5  107.95    9.32
   8   4  -5    9.21    1.16
  -8  -4   5   10.43    2.18
  -8  -4   5   11.56    2.33
   7   4  -5   93.07    7.08
  -7  -4   5   94.01    8.40
  -7  -4   5  101.23    8.64
   6   4  -5   87.70    6.41
  -6  -4   5   80.65    7.51
  -6  -4   5   91.03    7.82
   5   4  -5   23.97    2.08
  -5  -4   5   23.81    3.03
  -5  -4   5   22.99    3.02
   4   4  -5  475.42   32.77
  -4  -4   5  444.59   33.84
  -4  -4   5  477.89   33.97
   3   4  -5   54.07    3.68
  -3  -4   5   48.50    4.71
  -3  -4   5   43.24    4.49
   2   4  -5   43.89    2.95
  -2  -4   5   40.36    3.86
  -2  -4   5   31.80    3.69
   1   4  -5   66.33    4.37
  -1  -4   5   61.73    5.32
  -1  -4   5   49.96    5.16
   0   4  -5    0.20    0.22
   0  -4   5    0.66    0.68
   0  -4   5    0.66    0.65
  -1   4  -5  419.53   27.85
   1  -4   5  371.21   28.65
   2  -4   5  476.40   37.34
   2  -4   5  555.78   37.05
  -3   4  -5   11.00    0.99
   3  -4   5   11.47    1.51
   3  -4   5    9.31    1.87
  -4   4  -5  122.94    8.40
   4  -4   5  121.97    9.06
   4  -4   5  105.29    9.68
  -5   4  -5   86.26    5.99
   5  -4   5   82.74    6.52
   5  -4   5   76.06    7.36
  -6   4  -5   79.52    5.69
   6  -4   5   79.30    6.11
   6  -4   5   71.89    7.23
  -7   4  -5  191.58   13.24
   7  -4   5  173.79   15.03
   7  -4   5  188.30   13.54
  -8   4  -5  106.45    7.89
   8  -4   5  102.39    9.81
   8  -4   5  113.84    8.07
  -9   4  -5   79.04    6.50
   9  -4   5   99.57    6.43
   9  -4   5   81.02    8.50
 -10   4  -5  142.63   10.89
  10  -4   5  161.07   13.47
 -11   4  -5   35.54    3.09
  11  -4   5   42.99    5.42
 -12   4  -5   93.45    6.98
  12  -4   5   90.49   12.48
 -13   4  -5   66.49    5.52
  13  -4   5   78.07    8.26
 -14   4  -5    0.14    0.55
  14  -4   5    1.20    1.49
  11   3  -5    6.55    1.05
 -11  -3   5    3.40    1.54
  10   3  -5   68.99    6.13
  10   3  -5   73.49    5.41
 -10  -3   5   72.24    6.90
 -10  -3   5   60.98    6.38
   9   3  -5   56.12    4.91
   9   3  -5   50.43    4.11
  -9  -3   5   47.95    5.36
  -9  -3   5   51.33    5.23
   8   3  -5   18.63    1.80
   8   3  -5   19.97    2.44
  -8  -3   5   21.69    2.91
  -8  -3   5   15.73    2.65
   7   3  -5  170.33   13.21
  -7  -3   5  176.61   14.35
  -7  -3   5  205.84   14.67
   6   3  -5   54.57    4.27
  -6  -3   5   60.30    5.42
  -6  -3   5   53.23    5.27
   5   3  -5  319.69   23.40
  -5  -3   5  342.80   24.47
   4   3  -5  410.77   28.29
  -4  -3   5  401.02   29.14
  -4  -3   5  391.98   29.27
   3   3  -5   95.63    6.55
  -3  -3   5   95.17    6.91
  -3  -3   5   82.43    7.17
  -3  -3   5   85.87    7.42
   2   3  -5  226.63   14.87
  -2  -3   5  226.48   15.11
  -2  -3   5  177.05   15.42
  -2  -3   5  208.11   15.75
   1   3  -5  121.90    8.20
  -1  -3   5  111.92    9.01
  -1  -3   5  125.17    8.42
  -1  -3   5   97.46    8.76
   0   3  -5   24.17    1.99
   0   3  -5   29.08    2.72
   0  -3   5   24.22    2.67
   1  -3   5  741.10   47.51
   1  -3   5  593.98   47.40
   2  -3   5  454.09   35.42
   2  -3   5  531.69   35.28
  -3   3  -5   38.34    2.63
   3  -3   5   32.89    3.14
   3  -3   5   30.92    3.47
  -4   3  -5  482.45   31.78
   4  -3   5  410.00   32.91
   4  -3   5  463.05   32.30
  -5   3  -5  154.69   10.09
   5  -3   5  125.20   11.27
  -6   3  -5   99.71    6.94
   6  -3   5   82.60    8.17
   6  -3   5  101.23    7.26
  -7   3  -5  139.80    9.81
   7  -3   5  124.65   11.34
   7  -3   5  141.25   10.01
  -8   3  -5    5.60    0.81
   8  -3   5    4.81    1.98
   8  -3   5    6.82    0.89
   8  -3   5    5.74    0.82
  -9   3  -5  230.69   16.27
   9  -3   5  224.39   18.32
 -10   3  -5  200.63   14.78
  10  -3   5  212.66   17.12
 -11   3  -5    5.37    0.89
  11  -3   5    8.34    2.55
 -12   3  -5  123.23    9.70
  12  -3   5  143.88   12.48
 -13   3  -5   74.48    6.35
  13  -3   5   96.56    9.21
 -14   3  -5   -0.36    0.48
  14  -3   5   -0.86    1.46
 -15   3  -5   42.99    3.95
  15  -3   5   49.56    6.67
  11   2  -5   49.14    4.53
  11   2  -5   46.17    3.71
 -11  -2   5   34.29    4.33
 -11  -2   5   43.77    5.52
  10   2  -5  203.69   14.87
  10   2  -5  212.84   15.59
 -10  -2   5  229.96   16.44
 -10  -2   5  173.13   15.71
   9   2  -5   25.79    2.49
   9   2  -5   30.40    3.11
  -9  -2   5   34.80    3.66
  -9  -2   5   22.48    3.19
   8   2  -5   44.17    3.87
   8   2  -5   38.08    3.29
  -8  -2   5   36.14    4.14
  -8  -2   5   43.34    4.33
   7   2  -5  154.88   11.33
   7   2  -5  130.03   10.77
  -7  -2   5  163.23   11.88
   6   2  -5  122.73    8.80
   6   2  -5  105.67    8.26
  -6  -2   5  125.74    9.70
  -6  -2   5   98.87    9.08
   5   2  -5  365.16   25.34
  -5  -2   5  351.76   26.26
   4   2  -5  161.90   11.14
  -4  -2   5  143.09   11.93
  -4  -2   5  167.42   11.80
  -4  -2   5  148.90   11.50
   3   2  -5    1.56    0.38
  -3  -2   5    2.29    0.65
  -3  -2   5    2.20    0.94
   2   2  -5  212.13   14.93
  -2  -2   5  224.73   15.08
  -2  -2   5  192.68   15.63
   1   2  -5  326.01   21.61
  -1  -2   5  310.74   21.66
  -1  -2   5  281.47   22.27
   0  -2   5   18.51    1.87
   0  -2   5   19.51    2.09
   1  -2   5  217.51   16.92
   1  -2   5  249.25   17.11
  -2   2  -5   83.86    5.26
   2  -2   5   62.15    5.81
   2  -2   5   70.33    5.76
  -3   2  -5  356.60   23.00
   3  -2   5  331.24   23.49
   3  -2   5  291.18   23.77
   4  -2   5  544.55   36.93
   4  -2   5  494.90   37.51
  -5   2  -5   77.77    5.42
   5  -2   5   74.78    5.72
   5  -2   5   68.28    6.46
  -6   2  -5   36.19    2.73
   6  -2   5   35.55    2.93
   6  -2   5   31.70    3.82
  -7   2  -5  303.89   21.05
   7  -2   5  270.38   22.47
   7  -2   5  313.99   21.15
  -8   2  -5   -0.07    0.29
   8  -2   5    0.10    0.23
   8  -2   5    0.55    0.33
   8  -2   5    0.78    0.92
  -9   2  -5  175.30   13.20
   9  -2   5  194.57   15.27
 -10   2  -5   27.49    2.42
  10  -2   5   32.46    4.35
 -11   2  -5   81.76    6.41
  11  -2   5   90.57    8.60
 -12   2  -5  170.23   13.24
  12  -2   5  198.59   15.96
 -13   2  -5   67.18    6.11
  13  -2   5   89.88    8.64
 -14   2  -5   51.51    4.38
  14  -2   5   55.63    6.86
 -15   2  -5   95.54    7.91
  15  -2   5  112.42   10.97
  12   1  -5   11.58    1.53
 -12  -1   5    6.95    1.66
  11   1  -5   76.28    5.48
 -11  -1   5   61.74    6.09
  10   1  -5  136.51   10.44
  10   1  -5  134.15    9.81
 -10  -1   5  125.82   10.59
   9   1  -5   18.33    2.25
   9   1  -5   16.09    1.71
  -9  -1   5   19.55    2.51
   8   1  -5   76.03    5.73
   8   1  -5   75.15    6.17
   7   1  -5  285.95   20.09
   7   1  -5  310.80   20.56
  -7  -1   5  246.82   20.83
   6   1  -5   59.02    4.47
   6   1  -5   49.99    4.10
  -6  -1   5   50.57    4.87
   5   1  -5  184.67   11.94
   5   1  -5  157.59   11.64
  -5  -1   5  147.65   12.37
  -5  -1   5  156.67   12.47
   4   1  -5  135.47    8.97
   4   1  -5  112.81    8.79
  -4  -1   5  116.00    9.53
   3   1  -5   28.20    2.11
  -3  -1   5   25.63    2.75
  -3  -1   5   22.92    2.18
  -3  -1   5   30.11    2.35
  -2  -1   5  394.98   28.71
  -2  -1   5  424.82   29.50
   1   1  -5   73.35    5.33
  -1  -1   5   78.33    5.25
  -1  -1   5   66.05    5.90
   0   1  -5   62.30    4.45
   0   1  -5   69.32    4.67
   0  -1   5   57.58    4.98
   0  -1   5   54.39    4.55
   1  -1   5  195.43   14.73
   1  -1   5  213.51   14.99
  -2   1  -5    0.91    0.52
   2  -1   5    1.41    0.70
   2  -1   5    1.41    0.59
  -3   1  -5  321.09   20.90
   3  -1   5  295.05   21.29
   3  -1   5  273.03   21.55
  -4   1  -5  373.36   25.38
   4  -1   5  347.63   25.69
  -5   1  -5    1.42    0.36
   5  -1   5    2.51    0.94
   5  -1   5    1.40    0.48
  -6   1  -5  373.32   25.18
   6  -1   5  361.79   25.32
   6  -1   5  333.73   26.34
  -7   1  -5  112.55    7.35
  -7   1  -5   86.34    7.26
   7  -1   5  106.06    8.73
  -8   1  -5   17.14    1.40
   8  -1   5   15.25    2.64
   8  -1   5   13.38    1.23
  -9   1  -5  331.97   25.78
   9  -1   5  394.65   27.68
 -10   1  -5   66.48    5.40
  10  -1   5   78.85    7.34
 -11   1  -5   78.53    6.40
  11  -1   5   94.93    8.62
 -12   1  -5  157.21   12.46
  12  -1   5  189.35   15.01
 -14   1  -5   70.99    5.99
  14  -1   5   83.82    8.55
 -15   1  -5  116.41    9.55
  15  -1   5  139.08   12.59
  12   0  -5    4.45    1.03
  12   0  -5    4.27    1.47
  11   0  -5  121.27    8.27
 -11   0   5   97.44    8.75
  10   0  -5   75.99    6.44
  10   0  -5   85.88    6.64
 -10   0   5   70.18    6.48
   9   0  -5    1.04    0.73
   9   0  -5    0.95    0.52
  -9   0   5    1.11    0.90
   8   0  -5   59.13    4.90
   8   0  -5   58.42    4.47
  -8   0   5   53.80    5.12
   7   0  -5   46.44    4.12
   7   0  -5   51.24    3.83
  -7   0   5   49.81    4.51
   6   0  -5  166.10   11.47
  -6   0   5  141.12   11.78
   5   0  -5  392.39   27.68
   5   0  -5  407.93   27.90
  -5   0   5  375.59   28.36
   4   0  -5    5.92    0.65
   4   0  -5    5.63    0.71
  -4   0   5    3.98    1.08
   3   0  -5  134.69    9.07
   3   0  -5  120.51    9.09
  -3   0   5  124.36    9.73
  -2   0   5  442.29   31.69
   1   0  -5   54.78    3.86
  -1   0   5   49.65    4.36
  -1   0  -5  292.89   19.67
   1   0   5  282.65   19.84
   1   0   5  261.31   20.08
  -2   0  -5   11.18    0.92
   2   0   5   10.01    1.26
   2   0   5    9.43    1.20
  -4   0  -5  211.45   14.04
   4   0   5  188.10   14.27
   4   0   5  193.73   14.76
  -5   0  -5   14.06    1.36
   5   0   5   16.66    2.13
   5   0   5   17.17    1.56
  -6   0  -5  619.09   43.53
  -7   0  -5   79.38    5.66
   7   0   5   72.98    6.74
  -8   0  -5  126.22    9.11
   8   0   5  124.79   10.48
   9   0   5  335.10   26.51
 -10   0  -5    1.41    0.43
  10   0   5    1.99    1.17
 -11   0  -5   56.65    4.70
  11   0   5   66.28    6.66
 -12   0  -5  282.92   21.84
  12   0   5  331.62   24.29
  13   0   5    0.39    1.15
 -14   0  -5  118.81    9.30
  14   0   5  129.47   11.82
 -15   0  -5   41.00    3.92
  15   0   5   52.10    6.44
  12  -1  -5    8.09    1.21
  12  -1  -5    5.73    1.63
  11  -1  -5  142.21   10.47
  11  -1  -5  140.68   11.27
  10  -1  -5   49.37    4.65
  10  -1  -5   50.46    4.00
 -10   1   5   48.43    4.53
   9  -1  -5   27.14    2.94
   9  -1  -5   30.93    2.50
  -9   1   5   26.13    2.98
   8  -1  -5  501.71   33.69
   8  -1  -5  473.20   34.19
  -8   1   5  454.46   34.28
   7  -1  -5   17.74    1.59
   7  -1  -5   17.25    1.90
  -7   1   5   13.61    1.94
   6  -1  -5   55.74    4.76
   6  -1  -5   64.17    4.51
  -6   1   5   59.62    5.09
   5  -1  -5  110.94    8.96
   5  -1  -5  125.03    8.78
  -5   1   5  130.90    9.43
   4  -1  -5   21.54    1.83
   4  -1  -5   20.99    1.69
  -4   1   5   22.41    2.21
  -4   1   5   17.83    1.99
   3  -1  -5  344.63   24.77
   3  -1  -5  363.17   24.75
  -3   1   5  346.90   25.29
   2  -1  -5  170.64   12.33
  -2   1   5  164.50   12.81
  -2   1   5  184.93   12.34
   1  -1  -5   73.42    5.38
  -1   1   5   75.80    5.85
  -1  -1  -5  204.12   13.39
   1   1   5  173.96   13.72
  -2  -1  -5   25.74    1.96
   2   1   5   27.20    2.30
   2   1   5   22.57    2.24
  -3  -1  -5  386.86   26.72
   3   1   5  373.03   27.00
  -5  -1  -5  111.47    7.84
   5   1   5  108.02    8.63
   5   1   5  106.32    8.00
  -6  -1  -5  185.60   13.39
   6   1   5  164.78   14.22
   6   1   5  211.52   13.55
  -7  -1  -5    9.41    1.01
   7   1   5   12.76    1.89
  -8  -1  -5  185.38   13.13
   8   1   5  180.59   14.40
   9   1   5  302.83   21.49
 -10  -1  -5    0.49    0.32
 -10  -1  -5    0.71    0.18
  10   1   5    0.84    1.13
 -11  -1  -5  164.06   12.88
  11   1   5  194.49   14.92
 -12  -1  -5  160.94   12.27
  12   1   5  176.47   14.34
  13   1   5    3.42    1.87
 -14  -1  -5  129.34   10.34
  14   1   5  150.13   12.87
 -15  -1  -5   15.71    1.88
  15   1   5   14.49    3.56
  12  -2  -5   25.84    2.62
  12  -2  -5   30.50    3.63
  11  -2  -5  174.32   13.57
  11  -2  -5  186.16   12.58
 -11   2   5  154.81   12.83
  10  -2  -5   53.20    4.88
  10  -2  -5   56.20    4.03
 -10   2   5   40.51    4.28
   9  -2  -5   92.22    6.68
   9  -2  -5   94.33    7.51
  -9   2   5   79.59    7.09
   8  -2  -5  175.89   12.86
   8  -2  -5  170.86   12.12
  -8   2   5  155.47   12.59
   7  -2  -5    3.26    0.95
   7  -2  -5    2.32    0.54
  -7   2   5    3.61    0.97
   6  -2  -5  446.35   30.00
   6  -2  -5  417.18   30.49
  -6   2   5  412.12   30.49
   5  -2  -5  188.19   15.10
   5  -2  -5  229.18   14.77
  -5   2   5  205.94   15.25
   4  -2  -5    1.96    0.56
   4  -2  -5    2.33    0.43
  -4   2   5    1.95    0.66
  -4   2   5    1.42    0.62
   3  -2  -5  395.18   25.52
   3  -2  -5  344.65   25.76
  -3   2   5  344.22   26.21
  -3   2   5  366.57   25.97
   2  -2  -5  202.14   15.33
   2  -2  -5  233.91   15.13
  -2   2   5  202.63   15.52
  -2   2   5  217.37   15.48
   1  -2  -5  244.63   15.93
   1  -2  -5  203.03   15.89
  -1  -2  -5   75.25    5.37
  -1  -2  -5   72.98    5.71
   1   2   5   66.17    5.66
   1   2   5   83.08    5.60
  -2  -2  -5   82.34    5.45
  -2  -2  -5   65.95    5.71
   2   2   5   66.39    5.70
   2   2   5   87.00    5.86
  -3  -2  -5  126.72    8.77
   3   2   5  111.93    9.01
   3   2   5  129.29    9.31
  -4  -2  -5  307.72   21.11
   4   2   5  296.95   21.77
   4   2   5  292.80   21.33
  -6  -2  -5  552.98   39.71
   6   2   5  614.10   39.92
   6   2   5  527.36   40.59
  -7  -2  -5   53.57    4.21
   7   2   5   48.06    5.05
   7   2   5   64.73    4.44
  -8  -2  -5   91.36    6.67
   8   2   5   89.36    7.78
   9   2   5   13.93    1.59
   9   2   5   14.31    2.93
 -10  -2  -5    8.89    1.11
  10   2   5   10.21    2.30
  10   2   5    8.92    1.19
 -11  -2  -5  508.68   29.99
 -11  -2  -5  385.78   29.64
  11   2   5  379.88   29.68
 -12  -2  -5   55.90    4.58
  12   2   5   60.26    6.28
  13   2   5   24.11    6.39
 -14  -2  -5   63.00    5.29
  14   2   5   70.28    7.42
 -15  -2  -5    1.33    0.73
  15   2   5    2.90    2.08
  12  -3  -5   32.55    3.15
  12  -3  -5   40.25    4.48
  11  -3  -5  195.11   15.35
  11  -3  -5  191.20   14.06
  10  -3  -5   32.36    2.72
  10  -3  -5   32.97    3.78
 -10   3   5   28.86    2.94
   9  -3  -5  121.96    9.81
   9  -3  -5  124.34    8.75
  -9   3   5  109.60    9.06
   8  -3  -5   62.30    4.79
   8  -3  -5   67.15    5.76
  -8   3   5   59.06    5.17
   7  -3  -5    0.32    0.41
   7  -3  -5    0.96    0.78
  -7   3   5    2.10    0.72
   6  -3  -5  164.44   11.11
   6  -3  -5  153.98   11.90
  -6   3   5  145.07   11.48
   5  -3  -5  186.40   13.48
   5  -3  -5  180.72   12.68
  -5   3   5  166.27   13.06
   4  -3  -5   24.05    2.49
   4  -3  -5   25.12    1.86
  -4   3   5   19.94    2.14
   3  -3  -5  397.41   29.83
   3  -3  -5  470.71   29.27
  -3   3   5  383.81   29.93
  -3   3   5  413.18   29.64
   2  -3  -5    4.60    1.01
   2  -3  -5    7.47    0.66
  -2   3   5    7.69    1.33
  -2   3   5    6.33    0.96
   1  -3  -5   39.42    3.73
   1  -3  -5   47.62    3.23
   0  -3  -5  253.46   17.72
   0  -3  -5  250.06   18.30
  -1  -3  -5   74.04    5.16
  -1  -3  -5   77.23    5.48
   1   3   5   61.56    5.44
   1   3   5   72.88    5.46
  -2  -3  -5  270.07   18.48
   2   3   5  278.06   18.93
   2   3   5  238.62   18.77
  -4  -3  -5   19.10    1.60
   4   3   5   16.93    1.81
   4   3   5   23.68    2.32
  -5  -3  -5  342.23   24.13
   5   3   5  336.84   24.95
   5   3   5  347.26   24.40
  -6  -3  -5   75.98    5.72
   6   3   5   72.72    6.54
   6   3   5   84.78    6.03
  -7  -3  -5  120.97    9.06
   7   3   5  138.08    9.40
   7   3   5  116.21   10.00
  -8  -3  -5  214.18   16.37
   8   3   5  212.61   17.46
   8   3   5  262.04   16.81
   9   3   5    9.32    1.87
   9   3   5   11.03    1.49
 -10  -3  -5  233.66   17.04
  10   3   5  248.01   18.56
  10   3   5  232.74   17.37
 -11  -3  -5  393.21   27.01
  11   3   5  347.70   27.14
  11   3   5  400.99   28.71
 -12  -3  -5    6.52    0.89
 -12  -3  -5    8.24    1.14
  12   3   5    5.67    0.99
  12   3   5    7.57    2.18
 -13  -3  -5   77.72    6.79
  13   3   5   96.34    9.88
 -14  -3  -5  143.22   11.05
  14   3   5  154.96   13.12
 -15  -3  -5    1.02    0.71
  15   3   5   -0.67    0.68
  12  -4  -5  159.18   11.26
 -12   4   5  145.36   11.14
  11  -4  -5  222.43   17.08
  11  -4  -5  203.78   15.40
  10  -4  -5    3.39    0.72
  10  -4  -5    4.77    1.70
 -10   4   5    3.44    0.82
   9  -4  -5   72.69    5.30
   9  -4  -5   70.73    6.59
  -9   4   5   65.15    5.52
   8  -4  -5   13.31    2.21
   8  -4  -5   10.63    1.17
  -8   4   5    8.81    1.34
   7  -4  -5  148.20   10.12
   7  -4  -5  146.63   11.37
  -7   4   5  125.61   10.39
   6  -4  -5  399.20   28.80
   6  -4  -5  417.66   27.64
  -6   4   5  358.24   27.93
   5  -4  -5   83.31    5.73
   5  -4  -5   82.41    6.78
  -5   4   5   68.96    6.00
   4  -4  -5  121.67    9.86
   4  -4  -5  138.79    8.88
  -4   4   5  110.37    9.16
   3  -4  -5  134.63   11.04
  -3   4   5  152.36   10.62
   2  -4  -5   76.54    4.98
   2  -4  -5   64.03    5.80
  -2   4   5   64.69    5.30
   0  -4  -5  465.59   32.03
   0   4   5  422.22   31.47
  -1  -4  -5   22.81    2.39
  -1  -4  -5   18.66    1.55
  -4  -4  -5    1.13    0.32
   4   4   5    1.11    0.60
   4   4   5    1.27    0.54
   5   4   5  502.40   36.46
   5   4   5  525.57   37.05
  -6  -4  -5  135.40    9.86
   6   4   5  146.73   10.30
   6   4   5  129.45   10.80
  -7  -4  -5  215.61   15.36
   7   4   5  224.07   15.82
   7   4   5  206.61   16.42
  -8  -4  -5  121.48    8.94
   8   4   5  116.32   10.03
   8   4   5  131.22    9.48
  -9  -4  -5  190.54   14.71
   9   4   5  213.07   15.16
   9   4   5  205.19   15.90
 -10  -4  -5  154.60   11.34
  10   4   5  158.46   11.91
  10   4   5  154.63   12.71
 -11  -4  -5  170.93   12.77
  11   4   5  175.22   14.25
  11   4   5  181.53   13.35
 -12  -4  -5   -0.48    0.37
 -12  -4  -5    0.36    0.46
  12   4   5    1.06    1.16
  12   4   5   -0.06    0.62
 -13  -4  -5   97.32    7.50
  13   4   5   99.67    9.16
 -14  -4  -5   61.57    4.93
  14   4   5   58.93    6.61
 -15  -4  -5   -1.35    0.44
  15   4   5    0.48    1.40
  12  -5  -5  138.19   10.51
  12  -5  -5  154.11   12.56
 -12   5   5  134.58   10.42
  11  -5  -5   87.47    6.66
  11  -5  -5   87.11    8.35
  10  -5  -5   22.21    2.00
  10  -5  -5   24.29    3.46
 -10   5   5   18.54    1.99
   9  -5  -5  158.43   11.31
   9  -5  -5  173.14   13.15
  -9   5   5  139.42   11.43
   8  -5  -5   52.10    5.36
   8  -5  -5   52.37    3.92
  -8   5   5   46.89    4.11
   7  -5  -5   33.56    3.96
   7  -5  -5   37.08    2.73
  -7   5   5   30.36    2.92
   6  -5  -5  189.57   12.74
   6  -5  -5  182.07   14.14
  -6   5   5  163.16   12.99
   5  -5  -5    1.99    1.10
   5  -5  -5    2.80    0.49
  -5   5   5    1.93    0.64
   4  -5  -5  316.26   26.55
   4  -5  -5  400.25   25.48
  -4   5   5  366.96   25.83
   3  -5  -5  278.82   21.05
   3  -5  -5  292.70   19.79
  -3   5   5  270.86   20.14
   2  -5  -5    2.60    0.37
   2  -5  -5    1.24    1.04
  -2   5   5    2.18    0.60
   1  -5  -5  402.63   29.49
   0  -5  -5  120.94   10.01
   0  -5  -5  128.83    8.91
   0   5   5  126.69    9.33
  -1  -5  -5   56.54    4.08
   1   5   5   56.74    4.51
  -3  -5  -5   18.50    1.55
  -3  -5  -5   22.38    2.60
   3   5   5   20.81    2.23
   3   5   5   17.11    1.87
  -4  -5  -5  272.28   18.97
  -4  -5  -5  259.26   17.85
   4   5   5  237.67   18.18
   4   5   5  236.99   18.55
  -6  -5  -5   35.55    2.83
   6   5   5   37.68    3.36
   6   5   5   36.33    3.75
  -7  -5  -5   72.85    5.35
   7   5   5   68.09    5.89
   7   5   5   74.56    6.51
  -8  -5  -5  213.69   16.09
   8   5   5  238.20   16.83
  -9  -5  -5   26.87    2.32
   9   5   5   28.10    3.47
   9   5   5   26.57    2.93
 -10  -5  -5  167.89   12.50
  10   5   5  171.13   13.92
  10   5   5  179.29   13.33
 -11  -5  -5   38.72    3.25
  11   5   5   40.74    4.58
  11   5   5   37.60    4.02
 -12  -5  -5   11.30    1.31
  12   5   5   10.91    2.54
  12   5   5    8.11    1.81
 -13  -5  -5  168.38   12.23
  13   5   5  164.24   13.90
 -14  -5  -5   22.62    2.28
  14   5   5   22.82    3.69
  12  -6  -5  113.10   10.43
  12  -6  -5  112.57    8.31
 -12   6   5  104.96    8.18
  11  -6  -5   21.60    3.60
  11  -6  -5   18.56    1.94
  10  -6  -5   48.85    5.36
  10  -6  -5   45.62    3.45
 -10   6   5   35.89    3.43
   9  -6  -5  190.49   15.56
   9  -6  -5  187.35   13.61
   8  -6  -5    0.57    0.41
  -8   6   5    0.32    0.52
   7  -6  -5   47.60    5.31
   7  -6  -5   51.33    3.81
  -7   6   5   48.64    4.08
   6  -6  -5   39.32    4.66
   6  -6  -5   45.09    3.29
  -6   6   5   41.92    3.57
   5  -6  -5   10.95    2.27
   5  -6  -5   13.23    1.18
  -5   6   5   13.27    1.47
   4  -6  -5  319.02   20.94
   4  -6  -5  262.34   22.36
  -4   6   5  306.47   21.34
   3  -6  -5  125.46   10.84
   3  -6  -5  135.11    9.33
  -3   6   5  131.17    9.73
   2  -6  -5   89.27    6.01
   2  -6  -5   70.91    7.22
  -2   6   5   86.03    6.38
   1  -6  -5  464.75   34.13
   0  -6  -5   54.71    5.32
   0  -6  -5   56.88    3.99
   0   6   5   53.83    4.45
  -1  -6  -5  125.88    8.84
  -1  -6  -5  124.82   10.25
   1   6   5  124.17    9.36
  -2  -6  -5  809.58   58.10
  -3  -6  -5  141.38    9.83
  -3  -6  -5  145.00   11.28
   3   6   5  134.27   10.37
   3   6   5  133.15   10.67
  -4  -6  -5  221.66   15.69
   4   6   5  183.88   15.06
   4   6   5  197.06   14.77
  -5  -6  -5  297.73   21.41
  -5  -6  -5  311.72   22.81
   5   6   5  299.86   22.50
   5   6   5  304.93   22.07
  -6  -6  -5   19.11    1.64
  -6  -6  -5   21.11    2.73
   6   6   5   18.23    2.22
   6   6   5   19.28    2.55
  -7  -6  -5  270.19   19.05
   7   6   5  279.95   20.42
   7   6   5  254.92   19.77
  -8  -6  -5  224.74   16.35
   8   6   5  239.88   17.81
   8   6   5  223.28   17.17
  -9  -6  -5   51.02    4.09
   9   6   5   59.01    5.50
   9   6   5   49.22    4.89
 -10  -6  -5  231.84   17.01
  10   6   5  233.44   17.98
  10   6   5  247.21   18.61
 -11  -6  -5   49.42    3.83
  11   6   5   49.13    5.26
  11   6   5   42.83    4.71
 -12  -6  -5   39.77    3.52
  12   6   5   57.71    7.69
  12   6   5   40.67    4.54
 -13  -6  -5   54.61    4.55
  13   6   5   55.97    5.47
  13   6   5   58.89    6.13
 -14  -6  -5    4.83    0.96
  14   6   5    3.84    1.98
  12  -7  -5  141.49   10.34
 -12   7   5  137.14   10.23
  11  -7  -5    1.00    0.55
  11  -7  -5    1.85    1.54
 -11   7   5   -0.02    0.35
  10  -7  -5   62.02    6.57
  10  -7  -5   58.24    4.38
 -10   7   5   49.88    4.41
   9  -7  -5  149.37   13.34
   9  -7  -5  173.74   11.30
  -9   7   5  142.55   11.42
   8  -7  -5   27.17    4.10
   8  -7  -5   31.50    2.45
  -8   7   5   27.31    2.66
   7  -7  -5  232.89   15.39
   7  -7  -5  193.55   20.14
  -7   7   5  211.02   15.71
   6  -7  -5   48.01    3.37
   6  -7  -5   38.97    4.99
  -6   7   5   41.96    3.70
   5  -7  -5   31.58    2.28
   5  -7  -5   22.55    3.69
  -5   7   5   28.88    2.64
   4  -7  -5  247.50   20.69
   4  -7  -5  287.36   18.83
  -4   7   5  261.94   19.26
   3  -7  -5  149.48    9.93
   3  -7  -5  128.90   11.71
  -3   7   5  137.50   10.39
   2  -7  -5  152.12   10.34
   2  -7  -5  131.54   12.04
  -2   7   5  151.01   10.87
   1  -7  -5  308.80   24.59
   1  -7  -5  334.85   22.83
  -1   7   5  330.70   23.40
   0  -7  -5    6.27    1.78
   0  -7  -5    6.53    0.59
   0   7   5    6.85    1.03
  -1  -7  -5  274.74   20.88
  -1  -7  -5  274.04   19.12
   1   7   5  266.54   19.74
   1   7   5  274.36   19.12
  -2  -7  -5  613.86   42.21
   2   7   5  539.75   40.93
  -3  -7  -5   11.40    0.96
  -3  -7  -5   11.23    2.24
   3   7   5   11.02    1.48
  -4  -7  -5  233.58   17.24
  -4  -7  -5  236.46   15.50
   4   7   5  199.38   16.47
   4   7   5  205.99   16.17
  -5  -7  -5  283.61   19.75
  -5  -7  -5  289.20   21.42
   5   7   5  267.21   20.52
   5   7   5  278.59   20.95
  -6  -7  -5    1.29    0.37
  -6  -7  -5    1.83    1.08
   6   7   5    2.12    1.07
   6   7   5    0.41    0.62
  -7  -7  -5  160.31   13.02
  -7  -7  -5  157.53   11.39
   7   7   5  160.32   12.34
   7   7   5  157.17   12.77
  -8  -7  -5    1.36    1.07
  -8  -7  -5    0.91    0.42
   8   7   5    0.77    0.90
   8   7   5    1.37    0.99
  -9  -7  -5  209.31   16.37
  -9  -7  -5  195.64   14.45
   9   7   5  212.46   16.12
   9   7   5  189.09   15.48
 -10  -7  -5  191.93   13.88
  10   7   5  203.91   15.57
  10   7   5  181.08   15.03
 -11  -7  -5   18.97    1.92
  11   7   5   18.70    2.91
  11   7   5   25.48    3.49
 -12  -7  -5   66.99    5.39
  12   7   5   71.14    7.03
  12   7   5   70.86    6.75
 -13  -7  -5   97.89    7.15
 -13  -7  -5   81.44    7.75
  13   7   5   99.59    8.96
  13   7   5   96.05    8.42
 -14  -7  -5    4.30    0.93
 -14  -7  -5    4.57    2.55
  14   7   5    4.08    1.91
  12  -8  -5   62.30    7.33
  12  -8  -5   63.18    4.97
 -12   8   5   60.98    4.83
  11  -8  -5    4.55    0.88
 -11   8   5    4.75    0.83
  10  -8  -5  102.80   10.33
  10  -8  -5  112.17    8.00
 -10   8   5  105.44    7.89
   9  -8  -5   36.27    5.10
   9  -8  -5   36.19    2.98
   8  -8  -5   49.85    3.63
   8  -8  -5   45.54    5.71
  -8   8   5   42.33    3.91
   7  -8  -5  118.05    8.32
   7  -8  -5  111.94   10.61
  -7   8   5  111.42    8.74
   6  -8  -5   43.78    5.49
   6  -8  -5   46.06    3.40
  -6   8   5   42.03    3.84
   5  -8  -5   13.21    3.15
   5  -8  -5   16.09    1.31
  -5   8   5   13.19    1.69
   4  -8  -5   58.71    4.06
   4  -8  -5   50.73    6.05
  -4   8   5   52.73    4.56
   3  -8  -5    1.20    1.12
   3  -8  -5    1.14    0.28
  -3   8   5    2.08    0.71
   2  -8  -5  259.26   17.05
   2  -8  -5  211.68   19.02
  -2   8   5  251.06   17.71
   1  -8  -5  114.83   10.70
   1  -8  -5  128.44    8.75
  -1   8   5  125.42    9.43
   0  -8  -5   63.90    6.52
   0  -8  -5   61.29    4.60
   0   8   5   68.37    4.62
   0   8   5   64.73    5.30
  -1  -8  -5  296.65   21.59
  -1  -8  -5  314.61   23.73
   1   8   5  322.23   22.41
   1   8   5  302.01   21.59
  -2  -8  -5  330.04   23.39
  -2  -8  -5  349.90   25.58
   2   8   5  348.34   24.27
   2   8   5  311.66   23.38
  -3  -8  -5   61.20    4.51
  -3  -8  -5   64.91    6.43
   3   8   5   63.01    5.36
  -4  -8  -5  376.92   25.76
  -4  -8  -5  356.80   27.71
   4   8   5  364.85   26.69
  -5  -8  -5   73.72    7.14
  -5  -8  -5   75.39    5.34
   5   8   5   71.75    6.61
   5   8   5   71.10    6.27
  -6  -8  -5   85.15    6.08
  -6  -8  -5   83.77    7.84
   6   8   5   79.18    7.08
   6   8   5   83.85    7.46
  -7  -8  -5  362.05   25.69
  -7  -8  -5  366.30   27.61
   7   8   5  342.03   27.31
   7   8   5  383.49   27.36
  -8  -8  -5    1.32    0.42
  -8  -8  -5   -0.10    1.11
   8   8   5    0.01    1.03
   8   8   5    1.12    1.15
  -9  -8  -5  165.67   11.98
  -9  -8  -5  162.76   13.91
   9   8   5  174.86   13.75
   9   8   5  160.07   13.22
 -10  -8  -5  187.17   14.10
 -10  -8  -5  195.26   16.19
  10   8   5  203.96   15.58
  10   8   5  198.88   15.84
 -11  -8  -5    2.94    0.67
 -11  -8  -5    2.97    1.97
  11   8   5    3.70    1.58
  11   8   5    2.44    1.85
 -12  -8  -5   71.15    7.43
 -12  -8  -5   57.12    5.00
  12   8   5   62.87    6.54
  12   8   5   66.53    6.75
 -13  -8  -5   62.71    6.56
 -13  -8  -5   77.83    5.83
  13   8   5   83.97    7.78
  11  -9  -5    3.35    2.15
  11  -9  -5    5.62    0.93
 -11   9   5    3.15    0.70
  10  -9  -5  130.37   12.67
  10  -9  -5  132.76    9.51
 -10   9   5  124.11    9.39
   9  -9  -5   19.41    4.01
   9  -9  -5   18.53    1.76
  -9   9   5   15.65    2.00
  -9   9   5   19.74    1.67
   8  -9  -5   80.22    5.75
   8  -9  -5   73.24    8.26
  -8   9   5   74.29    6.20
   7  -9  -5  140.09    9.52
   7  -9  -5  126.00   12.15
  -7   9   5  124.93   10.03
   6  -9  -5   21.15    4.10
   6  -9  -5   27.21    2.09
  -6   9   5   24.60    2.62
   5  -9  -5   80.36    5.47
   5  -9  -5   62.22    7.68
  -5   9   5   75.85    6.12
   4  -9  -5  191.73   18.25
   4  -9  -5  241.31   15.64
  -4   9   5  222.86   16.33
   3  -9  -5    2.54    1.72
   3  -9  -5    4.72    0.53
  -3   9   5    4.90    1.12
   2  -9  -5  178.93   16.90
   2  -9  -5  222.92   14.69
  -2   9   5  218.08   15.49
   1  -9  -5   76.57    8.15
   1  -9  -5   79.66    5.99
  -1   9   5   83.40    6.79
  -1   9   5   94.39    6.01
   0  -9  -5    0.29    1.28
   0  -9  -5    1.90    0.24
   0   9   5    2.31    0.92
  -1  -9  -5  199.42   16.46
  -1  -9  -5  195.79   14.05
   1   9   5  207.08   15.01
  -2  -9  -5   16.44    3.09
  -2  -9  -5   15.03    1.13
  -2  -9  -5   15.37    1.12
   2   9   5   13.38    1.09
   2   9   5   15.35    2.05
  -3  -9  -5   99.29    7.06
  -3  -9  -5   96.23    7.07
  -3  -9  -5  104.73    9.63
   3   9   5  101.36    8.10
  -4  -9  -5  458.56   33.48
   4   9   5  427.33   32.17
  -5  -9  -5   68.72    4.91
  -5  -9  -5   71.35    7.06
   5   9   5   61.98    5.92
  -6  -9  -5   38.55    2.85
  -6  -9  -5   36.67    4.67
   6   9   5   34.09    3.97
  -7  -9  -5  100.46    7.50
  -7  -9  -5  104.98    9.57
   7   9   5  102.52    8.84
   7   9   5  106.36    9.19
  -8  -9  -5    0.86    1.30
  -8  -9  -5    0.63    0.40
   8   9   5   -0.26    0.90
   8   9   5    0.43    0.83
  -9  -9  -5  188.90   15.73
  -9  -9  -5  181.61   13.55
   9   9   5  192.30   15.12
   9   9   5  193.62   15.43
 -10  -9  -5   78.66    5.81
 -10  -9  -5   74.55    8.58
  10   9   5   78.12    7.70
  10   9   5   73.29    7.25
 -11  -9  -5   14.74    1.43
 -11  -9  -5   11.41    2.98
  11   9   5   10.28    2.55
  11   9   5   11.31    2.74
 -12  -9  -5  109.44   10.45
  12   9   5  106.32    9.63
  12   9   5  101.75    9.68
  11 -10  -5   28.27    2.55
  11 -10  -5   31.39    5.31
 -11  10   5   27.56    2.43
  10 -10  -5   67.48    8.41
  10 -10  -5   72.51    5.43
 -10  10   5   70.16    5.32
   9 -10  -5   -0.36    0.33
   9 -10  -5   -0.61    1.48
  -9  10   5   -0.35    0.61
  -9  10   5   -0.37    0.29
   8 -10  -5   24.07    2.17
   8 -10  -5   28.02    4.59
  -8  10   5   26.50    2.11
  -8  10   5   23.38    2.71
   7 -10  -5   85.81    9.28
  -7  10   5   79.35    6.89
  -7  10   5   87.49    6.28
   6 -10  -5   29.47    5.02
   6 -10  -5   35.83    2.71
  -6  10   5   34.84    3.42
   5 -10  -5  139.30   12.97
   5 -10  -5  144.78    9.90
  -5  10   5  129.88   10.67
   4 -10  -5    2.49    0.41
   4 -10  -5    2.01    1.75
  -4  10   5    2.31    0.96
   3 -10  -5  124.39   12.23
   3 -10  -5  143.01    9.51
  -3  10   5  130.01   10.37
   2 -10  -5  229.75   16.47
   2 -10  -5  203.04   18.99
  -2  10   5  231.89   17.46
  -2  10   5  265.36   16.50
   1 -10  -5   49.74    6.24
   1 -10  -5   54.86    3.81
   0 -10  -5   61.73    6.67
   0  10   5   63.42    5.25
   0  10   5   55.38    4.11
  -1 -10  -5  218.61   18.06
   1  10   5  217.32   16.37
  -2 -10  -5   23.56    3.90
  -2 -10  -5   18.70    1.45
   2  10   5   25.24    2.64
  -3 -10  -5  364.39   26.90
  -3 -10  -5  404.27   29.84
   3  10   5  389.97   28.20
  -4 -10  -5  268.68   21.11
  -4 -10  -5  248.75   18.37
   4  10   5  271.96   19.79
  -5 -10  -5   14.81    2.86
   5  10   5   10.90    2.15
  -6 -10  -5  105.03    9.95
  -6 -10  -5  105.29    7.61
   6  10   5  107.87    9.08
  -7 -10  -5   68.74    5.16
  -7 -10  -5   69.89    7.38
   7  10   5   72.91    6.76
  -8 -10  -5   20.01    1.73
  -8 -10  -5   18.52    3.54
   8  10   5   21.26    3.13
  -9 -10  -5  241.59   16.61
  -9 -10  -5  225.46   20.11
   9  10   5  241.28   18.70
   9  10   5  217.84   18.24
 -10 -10  -5   15.23    3.11
 -10 -10  -5   18.86    1.75
  10  10   5   19.55    3.17
  10  10   5   17.23    3.29
 -11 -10  -5   35.73    5.14
 -11 -10  -5   36.16    2.99
  11  10   5   35.40    4.66
 -12 -10  -5  148.65   10.59
 -12 -10  -5  137.20   13.11
  12  10   5  143.71   12.57
  10 -11  -5   49.43    7.04
  10 -11  -5   51.44    4.01
 -10  11   5   51.12    3.95
   9 -11  -5    4.28    2.74
   9 -11  -5    8.66    0.98
  -9  11   5    7.54    0.92
   8 -11  -5  169.54   19.30
   8 -11  -5  139.17   10.65
  -8  11   5  149.30   10.61
   7 -11  -5   54.26    4.22
   7 -11  -5   61.59    7.51
  -7  11   5   54.84    5.09
   6 -11  -5   13.13    1.19
   6 -11  -5   14.32    3.91
  -6  11   5   12.71    1.14
  -6  11   5   13.23    2.04
   5 -11  -5  181.06   16.89
   5 -11  -5  187.58   13.55
  -5  11   5  190.28   14.62
  -5  11   5  202.18   13.52
   4 -11  -5    3.79    0.48
   4 -11  -5    4.33    2.29
  -4  11   5    3.97    1.21
   3 -11  -5   71.93    5.04
   3 -11  -5   71.60    8.09
  -3  11   5   69.09    6.10
  -3  11   5   69.52    5.00
   2 -11  -5   78.30    9.10
  -2  11   5   97.72    6.40
  -2  11   5   90.39    7.54
  -2  11   5   90.34    6.38
   1 -11  -5   10.25    3.18
  -1  11   5   11.68    1.89
   0 -11  -5  160.57   14.86
   0  11   5  179.66   13.25
  -1 -11  -5  316.97   27.01
   1  11   5  370.24   25.47
  -2 -11  -5    8.46    2.78
   2  11   5   11.14    2.09
  -3 -11  -5   66.88    7.27
   3  11   5   61.31    5.81
  -4 -11  -5   59.77    4.47
  -4 -11  -5   65.53    7.26
   4  11   5   68.95    6.10
  -5 -11  -5   30.20    2.34
  -5 -11  -5   36.04    4.95
   5  11   5   33.62    3.78
  -6 -11  -5   64.22    6.98
  -6 -11  -5   58.68    4.47
   6  11   5   65.37    6.22
  -7 -11  -5   76.87    8.19
  -7 -11  -5   76.77    5.69
   7  11   5   82.80    7.54
  -8 -11  -5   36.24    2.93
   8  11   5   41.78    4.77
  -9 -11  -5  136.60    9.54
  -9 -11  -5  124.64   11.98
 -10 -11  -5    3.87    0.74
 -10 -11  -5    3.97    2.13
  10  11   5    4.07    1.96
 -11 -11  -5   21.74    4.23
 -11 -11  -5   28.65    2.36
  11  11   5   27.92    4.16
   9 -12  -5   16.23    4.56
  -9  12   5   13.41    1.33
   8 -12  -5  111.35   11.35
   8 -12  -5   88.57    6.94
   7 -12  -5   77.26    8.95
  -7  12   5   63.57    5.97
  -7  12   5   65.33    4.88
   6 -12  -5   63.32    4.93
   6 -12  -5   71.33    8.54
  -6  12   5   69.54    4.91
  -6  12   5   69.74    6.16
   5 -12  -5   90.91   10.11
  -5  12   5   85.60    6.45
  -5  12   5   99.48    7.90
   4 -12  -5    0.70    1.81
  -4  12   5    1.12    0.19
  -4  12   5    2.17    1.11
   3 -12  -5   40.42    5.96
  -3  12   5   40.97    4.17
   2 -12  -5   41.83    6.05
  -2  12   5   46.72    4.45
   1 -12  -5    1.19    1.75
  -1  12   5    1.64    1.09
   0 -12  -5  131.09   12.78
   0  12   5  139.50   10.92
  -1 -12  -5   49.11    6.45
   1  12   5   50.06    4.84
  -2 -12  -5   55.24    6.92
   2  12   5   56.16    5.34
  -3 -12  -5  106.50   10.47
   3  12   5  100.87    8.80
  -4 -12  -5   17.64    3.62
   4  12   5   23.13    3.13
  -5 -12  -5   36.61    5.26
   5  12   5   39.54    4.41
  -6 -12  -5   66.04    7.87
   6  12   5   80.74    7.29
  -7 -12  -5    2.25    1.46
   7  12   5    2.68    1.68
  -8 -12  -5   74.82    8.50
   8  12   5   94.20    8.37
  -9 -12  -5   51.90    6.46
   9  12   5   50.36    5.95
 -10 -12  -5   -1.45    1.24
  10  12   5   -0.09    1.36
   8 -13  -5   32.38    5.73
  -8  13   5   25.01    3.22
   7 -13  -5    1.38    2.29
  -7  13   5   -0.19    0.78
   6 -13  -5   62.84    8.46
  -6  13   5   66.63    6.11
   5 -13  -5   60.63    8.01
  -5  13   5   60.45    5.76
  -4  13   5   23.02    3.01
   3 -13  -5  114.02   12.15
  -3  13   5  126.29   10.08
   2 -13  -5   40.84    6.01
  -2  13   5   41.81    4.37
   1 -13  -5   14.37    3.94
  -1  13   5   17.07    2.50
   0 -13  -5  126.98   12.77
   0  13   5  134.99   10.82
  -1 -13  -5    8.77    3.25
   1  13   5    7.46    1.84
  -2 -13  -5   60.01    7.64
   2  13   5   70.60    6.30
  -3 -13  -5  168.12   15.49
   3  13   5  170.44   13.67
  -4 -13  -5   -1.04    1.63
   4  13   5    0.29    1.41
  -5 -13  -5   40.42    5.92
   5  13   5   41.44    4.92
  -6 -13  -5   47.44    6.70
   6  13   5   64.54    6.31
  -7 -13  -5    8.15    2.90
   7  13   5   10.00    2.60
  -8 -13  -5   96.28   10.59
   8  13   5  123.40   10.40
  -9 -13  -5   35.50    5.44
   9  13   5   43.95    5.43
   7 -14  -5   12.41    4.46
  -7  14   5    7.53    1.94
   6 -14  -5   69.42    8.94
  -6  14   5   64.80    6.36
   5 -14  -5   45.80    7.09
  -5  14   5   44.63    4.83
   4 -14  -5    3.64    2.74
  -4  14   5    5.37    1.73
   3 -14  -5   54.97    7.52
  -3  14   5   50.49    5.31
   2 -14  -5    4.80    2.49
  -2  14   5    5.51    1.67
   1 -14  -5   57.61    7.75
   0 -14  -5   67.65    8.31
   0  14   5   60.06    6.17
  -1 -14  -5   -0.51    1.20
   1  14   5   -0.84    0.79
  -2 -14  -5   86.48   10.06
   2  14   5   94.92    8.28
  -3 -14  -5  103.10   11.01
   3  14   5  105.21    9.26
  -4 -14  -5    0.48    1.71
   4  14   5    2.42    1.26
  -5 -14  -5   67.40    8.53
   5  14   5   83.41    7.68
  -6 -14  -5   33.47    5.54
   6  14   5   34.02    4.59
  -7 -14  -5   31.46    5.10
   7  14   5   32.51    4.66
  -6  15   5   49.34    5.25
   5 -15  -5   13.72    4.57
  -5  15   5   10.60    2.46
   4 -15  -5   63.36    8.63
  -4  15   5   67.04    6.52
   3 -15  -5  118.11   12.39
  -3  15   5  102.62    9.49
   2 -15  -5    1.68    1.95
  -2  15   5    0.51    1.21
   1 -15  -5   62.35    8.37
  -1  15   5   63.42    6.31
   0 -15  -5   42.01    6.65
   0  15   5   41.58    4.80
  -1 -15  -5    0.50    1.94
   1  15   5    0.76    1.17
  -2 -15  -5   96.03   11.64
   2  15   5  108.94    9.37
  -3 -15  -5   49.65    7.39
   3  15   5   56.43    5.81
  -4 -15  -5    7.81    3.21
  -5 -15  -5   47.12    7.20
   5  15   5   67.52    6.51
   2 -16  -5    0.42    1.75
  -2  16   5    0.91    1.08
   1 -16  -5   32.56    5.83
  -1  16   5   34.30    4.32
   0 -16  -5   20.53    5.22
   0  16   5   25.95    3.73
  -1 -16  -5    2.35    2.35
   1  16   5    2.37    1.53
  -2 -16  -5   18.62    5.05
   2  16   5   23.56    3.40
  -1 -11   6   29.98    4.12
  -1 -11   6   25.65    4.50
   0 -11   6   33.09    4.47
   0 -11   6   28.05    4.65
   1 -11   6   42.75    6.20
   1 -11   6   59.68    6.04
   2 -11   6    7.46    2.16
   2 -11   6    7.95    2.83
   3 -11   6   24.43    5.84
   3 -11   6   26.71    3.85
   4 -11   6   39.85    6.42
   4 -11   6   50.69    5.42
   5 -11   6    3.65    2.35
   5 -11   6    3.59    1.62
   6 -11   6  145.37   11.94
   6 -11   6  133.64   13.88
   7 -11   6   95.27   10.96
  -3 -10   6    7.70    2.42
  -3 -10   6    7.01    2.49
  -2 -10   6   64.67    6.80
  -1 -10   6    0.72    1.47
  -1 -10   6   -0.35    1.19
   0 -10   6   41.00    5.65
   0 -10   6   47.04    5.31
   1 -10   6   34.65    5.19
   1 -10   6   41.54    4.77
   2 -10   6    4.98    1.82
   2 -10   6    4.09    2.32
   3 -10   6   75.25    8.59
   4 -10   6   90.47    7.97
   4 -10   6   77.97    9.18
   5 -10   6    9.01    2.40
   5 -10   6    8.26    3.07
   6 -10   6   37.02    4.43
   6 -10   6   38.94    7.27
   7 -10   6   -1.37    1.13
   7 -10   6    0.04    1.61
   8 -10   6   56.01    5.62
   8 -10   6   53.57    7.43
   9 -10   6  135.96   11.39
   9 -10   6  124.90   13.56
   5   9  -6   89.98    6.74
  -5  -9   6   96.33    9.14
   4   9  -6    1.04    0.46
  -4  -9   6    0.97    1.45
  -4  -9   6    3.30    1.85
  -3  -9   6   26.24    3.85
   2   9  -6   43.09    2.99
  -2  -9   6   40.18    4.72
  -2  -9   6   31.27    4.74
  -1  -9   6    7.38    2.48
  -1  -9   6    8.05    2.26
   0   9  -6   92.93    6.20
   0  -9   6   74.05    8.44
  -1   9  -6   33.17    2.48
   1  -9   6   31.67    4.82
   1  -9   6   32.49    4.01
  -2   9  -6   40.90    3.00
   2  -9   6   39.50    4.61
   2  -9   6   39.32    5.41
  -3   9  -6  156.25   11.16
   3  -9   6  145.49   14.01
   3  -9   6  171.15   13.05
   4  -9   6   23.97    3.23
   4  -9   6   20.01    4.03
  -5   9  -6   85.31    6.25
   5  -9   6   86.88    7.79
   5  -9   6   87.41    9.37
  -6   9  -6  129.88    9.76
   6  -9   6  133.86   13.09
   6  -9   6  148.47   11.40
  -7   9  -6   12.35    1.26
   7  -9   6   15.60    2.73
   7  -9   6   17.44    4.42
  -8   9  -6  100.35    8.05
   8  -9   6  126.80    9.52
   8  -9   6  112.07   11.71
  -9   9  -6   94.68    7.68
   9  -9   6  118.92    8.94
   9  -9   6  108.30   11.49
 -10   9  -6   -0.92    0.38
  10  -9   6   -0.05    1.79
  11  -9   6   78.29    9.52
   6   8  -6   98.31    7.39
  -6  -8   6  105.38    9.68
   5   8  -6   44.49    3.54
  -5  -8   6   49.37    5.55
   4   8  -6   -0.41    0.30
  -4  -8   6    0.11    1.13
  -4  -8   6    0.87    1.19
  -3  -8   6  124.75   11.84
  -3  -8   6  160.84   12.25
   2   8  -6   36.24    2.68
  -2  -8   6   35.62    4.30
  -2  -8   6   30.88    4.31
   1   8  -6   26.24    2.01
  -1  -8   6   21.43    3.58
  -1  -8   6   28.66    3.64
   0   8  -6  110.22    7.53
   0  -8   6   92.54    9.56
   0  -8   6  109.79    9.24
  -1   8  -6   27.80    2.15
   1  -8   6   24.39    3.91
   1  -8   6   32.56    3.67
  -2   8  -6  103.27    7.16
   2  -8   6  104.40    8.79
   2  -8   6   89.77    9.42
  -3   8  -6  169.43   12.02
   3  -8   6  153.62   14.49
   3  -8   6  185.66   13.74
  -4   8  -6   15.57    1.35
   4  -8   6   17.54    2.60
   4  -8   6   14.38    3.57
  -5   8  -6  167.28   11.97
   5  -8   6  158.61   14.77
   5  -8   6  178.35   13.46
  -6   8  -6   84.57    6.46
   6  -8   6   86.97    9.33
   6  -8   6   97.44    7.90
  -7   8  -6    2.33    0.53
   7  -8   6    4.51    2.35
   7  -8   6    3.91    1.45
  -8   8  -6   70.50    5.47
   8  -8   6   82.26    6.62
   8  -8   6   69.51    8.28
  -9   8  -6  120.76    9.41
   9  -8   6  127.88   12.78
   9  -8   6  143.02   10.40
 -10   8  -6   19.87    1.81
  10  -8   6   20.86    4.82
 -11   8  -6   61.43    5.00
  11  -8   6   76.45    8.86
 -12   8  -6   25.64    2.34
  12  -8   6   34.18    5.86
   7   7  -6    2.46    0.58
  -7  -7   6    3.74    1.72
   6   7  -6  108.90    7.89
  -6  -7   6  105.64    9.84
   5   7  -6   81.44    6.17
  -5  -7   6   87.87    8.09
   4   7  -6   18.72    1.68
  -4  -7   6   24.59    3.95
   3   7  -6  148.67   10.56
  -3  -7   6  142.32   12.13
   2   7  -6   63.07    4.26
  -2  -7   6   58.15    5.74
  -2  -7   6   48.43    5.65
   1   7  -6   43.64    3.25
  -1  -7   6   37.09    4.71
  -1  -7   6   52.11    4.97
   0   7  -6   82.66    5.47
   0  -7   6   78.24    7.02
   0  -7   6   61.69    7.06
  -1   7  -6    4.50    0.55
   1  -7   6    2.78    1.55
   1  -7   6    3.10    1.42
  -2   7  -6  174.92   12.03
   2  -7   6  154.49   14.11
   2  -7   6  177.34   13.53
  -3   7  -6  100.40    7.30
   3  -7   6   99.87    9.52
   3  -7   6  104.57    8.63
  -4   7  -6    9.59    0.93
   4  -7   6    8.99    1.94
   4  -7   6    9.11    2.70
  -5   7  -6  211.48   15.41
   5  -7   6  235.35   16.74
   5  -7   6  206.35   17.92
  -6   7  -6   87.68    7.02
   6  -7   6  109.22    8.25
   6  -7   6   98.49    9.68
  -7   7  -6   29.76    2.54
   7  -7   6   32.59    4.77
   7  -7   6   36.46    3.60
  -8   7  -6  100.86    7.81
   8  -7   6  107.37   10.61
   8  -7   6  115.01    8.71
  -9   7  -6   13.99    1.37
   9  -7   6   13.34    3.59
   9  -7   6   13.88    2.01
 -10   7  -6   21.01    1.89
  10  -7   6   21.69    4.89
 -11   7  -6   81.91    6.45
  11  -7   6   94.84    9.91
  12  -7   6    1.65    2.08
 -13   7  -6   64.95    5.51
  13  -7   6   87.23    9.48
   8   6  -6   37.96    3.15
  -8  -6   6   39.13    4.96
   7   6  -6   32.08    2.64
  -7  -6   6   30.70    4.29
   6   6  -6   56.41    3.97
  -6  -6   6   41.53    4.98
  -6  -6   6   60.46    6.58
   5   6  -6   75.12    5.72
  -5  -6   6   81.09    7.38
   4   6  -6   56.92    3.87
  -4  -6   6   40.78    4.88
  -4  -6   6   55.35    5.38
   3   6  -6  184.68   13.10
  -3  -6   6  182.74   14.64
   2   6  -6    6.84    0.73
  -2  -6   6    5.03    1.62
  -2  -6   6    6.08    1.72
   1   6  -6   47.66    3.47
  -1  -6   6   50.55    4.83
  -1  -6   6   41.01    4.74
   0   6  -6   81.37    5.59
   0  -6   6   77.65    6.87
   0  -6   6   69.74    7.04
  -1   6  -6   28.33    2.12
   1  -6   6   26.89    3.19
   1  -6   6   24.42    3.54
  -2   6  -6  227.11   14.85
   2  -6   6  220.92   16.17
   2  -6   6  178.60   16.45
  -3   6  -6  239.32   15.94
   3  -6   6  208.11   17.79
  -4   6  -6   46.24    3.59
   4  -6   6   47.62    5.47
   4  -6   6   50.79    4.69
  -5   6  -6  272.00   19.16
   5  -6   6  289.44   20.26
   5  -6   6  250.69   21.29
  -6   6  -6   53.14    4.04
   6  -6   6   49.68    6.04
   6  -6   6   57.82    4.96
  -7   6  -6   49.83    4.06
   7  -6   6   57.23    4.87
   7  -6   6   56.67    6.41
  -8   6  -6  151.32   11.76
   8  -6   6  168.85   14.48
   8  -6   6  173.43   12.45
  -9   6  -6   -0.29    0.36
   9  -6   6    0.54    1.16
   9  -6   6    0.59    0.71
 -10   6  -6   87.74    6.79
  10  -6   6   97.24    9.64
 -11   6  -6  105.13    8.27
  11  -6   6  124.40   11.58
 -12   6  -6   -0.24    0.36
  12  -6   6    0.04    1.76
 -13   6  -6   47.74    4.19
  13  -6   6   63.72    7.67
  -9  -5   6  123.41   11.00
  -8  -5   6    0.65    1.17
   7   5  -6   42.67    3.36
  -7  -5   6   40.38    4.85
   6   5  -6   80.18    5.85
  -6  -5   6   94.35    7.64
  -6  -5   6   66.69    6.88
   5   5  -6   39.17    2.70
  -5  -5   6   26.90    3.48
  -5  -5   6   32.88    3.89
   4   5  -6   67.76    4.69
  -4  -5   6   54.97    5.67
  -4  -5   6   64.99    6.04
   3   5  -6   89.20    6.41
  -3  -5   6   85.80    7.67
   2   5  -6   25.06    1.96
  -2  -5   6   25.76    3.14
  -2  -5   6   21.16    3.26
   1   5  -6  197.94   13.04
  -1  -5   6  186.65   14.30
  -1  -5   6  164.57   14.15
   0   5  -6   22.76    1.73
   0  -5   6   17.34    2.65
   0  -5   6   23.62    2.75
  -1   5  -6   68.72    4.51
   1  -5   6   49.47    5.60
   1  -5   6   63.84    5.66
  -2   5  -6  164.11   11.02
   2  -5   6  159.62   12.13
   2  -5   6  138.68   12.38
  -3   5  -6   11.69    1.01
   3  -5   6    7.81    2.07
   3  -5   6   10.63    1.70
  -4   5  -6  292.13   20.11
   4  -5   6  300.80   21.10
   4  -5   6  260.31   21.76
  -5   5  -6  349.77   24.27
   5  -5   6  315.94   26.07
   5  -5   6  365.50   25.17
  -6   5  -6    1.48    0.47
   6  -5   6    2.44    0.91
   6  -5   6    2.35    1.48
  -7   5  -6  494.94   34.54
   7  -5   6  449.90   36.62
   7  -5   6  523.93   35.18
   8  -5   6  109.11   10.57
   8  -5   6  119.69    8.85
  -9   5  -6    4.91    0.77
   9  -5   6    2.27    1.72
 -10   5  -6  154.07   12.48
  10  -5   6  196.38   12.49
  10  -5   6  164.29   15.05
 -11   5  -6  133.38    9.88
  11  -5   6  137.54   12.74
 -12   5  -6   28.76    2.61
  12  -5   6   33.33    4.99
 -13   5  -6   82.34    6.75
  13  -5   6  100.38   10.04
 -14   5  -6    8.03    1.22
  14  -5   6   10.73    3.44
  10   4  -6   68.41    5.50
 -10  -4   6   74.70    7.16
   9   4  -6   96.64    7.36
  -9  -4   6  100.23    9.10
   8   4  -6    1.92    0.56
  -8  -4   6    0.26    1.20
   7   4  -6   91.36    6.38
  -7  -4   6   76.59    7.41
  -7  -4   6   87.83    7.86
   6   4  -6  108.34    7.93
  -6  -4   6  107.77    9.33
   5   4  -6    4.81    0.70
  -5  -4   6    4.97    1.52
  -5  -4   6    3.28    1.10
  -4  -4   6  164.62   11.59
  -4  -4   6  122.81   10.81
   3   4  -6   78.43    5.75
  -3  -4   6   78.21    6.92
   2   4  -6   74.64    5.02
  -2  -4   6   59.72    5.73
  -2  -4   6   70.34    6.17
   1   4  -6  428.88   27.94
  -1  -4   6  334.76   28.69
  -1  -4   6  430.77   29.27
   0   4  -6   77.80    5.54
   0  -4   6   73.52    6.49
  -1   4  -6   71.76    5.19
   1  -4   6   69.80    6.13
  -2   4  -6  344.60   22.08
   2  -4   6  313.94   22.98
   2  -4   6  278.62   23.12
  -3   4  -6    5.20    0.65
   3  -4   6    4.12    1.39
   3  -4   6    5.59    1.34
  -4   4  -6  453.52   30.68
   4  -4   6  459.26   31.51
   4  -4   6  395.09   32.04
  -5   4  -6  505.03   34.78
   5  -4   6  460.06   36.33
   5  -4   6  517.78   35.49
  -6   4  -6   14.96    1.48
   6  -4   6   17.12    2.87
   6  -4   6   19.62    2.12
  -7   4  -6  305.79   21.41
   7  -4   6  285.44   23.30
   7  -4   6  313.27   21.87
  -8   4  -6  105.91    7.90
   8  -4   6  105.81    9.79
  -9   4  -6   11.08    1.21
   9  -4   6   11.54    1.33
   9  -4   6    9.79    2.71
 -10   4  -6  126.00    9.40
  10  -4   6  131.97   11.87
 -11   4  -6   24.37    2.14
  11  -4   6   22.28    3.85
 -12   4  -6   28.74    2.53
  12  -4   6   28.55    4.67
 -13   4  -6   97.22    7.71
  13  -4   6  110.32   10.73
 -14   4  -6    0.06    0.49
  14  -4   6   -0.10    1.31
  10   3  -6  126.48    9.41
   9   3  -6   48.72    3.78
  -9  -3   6   42.69    4.93
   8   3  -6   18.05    1.67
  -8  -3   6   15.97    2.73
  -8  -3   6   16.35    2.63
   7   3  -6  157.19   11.36
  -7  -3   6  157.81   12.51
  -7  -3   6  154.88   12.68
   6   3  -6   96.26    6.89
  -6  -3   6   97.52    8.16
  -6  -3   6   86.69    7.71
   5   3  -6    4.76    0.74
  -5  -3   6    5.16    1.57
  -5  -3   6    5.30    1.19
   4   3  -6  171.77   11.76
  -4  -3   6  157.82   12.11
  -4  -3   6  162.77   12.90
   3   3  -6   41.95    3.45
  -3  -3   6   48.60    3.77
   2   3  -6   54.71    4.19
  -2  -3   6   50.64    5.09
  -2  -3   6   61.11    4.41
   1   3  -6   55.74    4.07
  -1  -3   6   56.05    4.21
  -1  -3   6   51.18    4.90
   0   3  -6    5.28    1.04
   0   3  -6    4.61    0.59
   0  -3   6    3.35    0.91
   0  -3   6    4.25    1.16
  -1   3  -6  506.23   31.00
   1  -3   6  381.82   31.61
   1  -3   6  433.71   31.82
  -2   3  -6  300.72   19.23
   2  -3   6  278.85   20.02
   2  -3   6  236.34   19.98
  -3   3  -6    0.74    0.27
   3  -3   6    1.81    0.73
   3  -3   6    0.64    0.76
  -4   3  -6  400.93   26.22
   4  -3   6  340.57   27.35
   4  -3   6  373.35   26.85
  -5   3  -6  198.67   13.64
   5  -3   6  192.05   14.18
   5  -3   6  183.02   14.98
  -6   3  -6   10.25    1.01
   6  -3   6   10.28    1.43
   6  -3   6   10.08    2.29
  -7   3  -6  262.54   18.06
   7  -3   6  244.01   19.74
  -8   3  -6   46.02    3.46
   8  -3   6   39.02    4.86
   8  -3   6   44.94    3.63
  -9   3  -6  173.24   13.25
   9  -3   6  205.43   13.27
   9  -3   6  169.63   15.20
 -10   3  -6  291.37   21.45
  10  -3   6  313.09   23.93
 -11   3  -6    4.26    0.75
  11  -3   6    4.98    2.01
 -12   3  -6   51.80    4.32
  12  -3   6   58.85    6.77
 -13   3  -6   56.57    4.79
  13  -3   6   68.04    7.54
 -14   3  -6    0.92    0.64
  14  -3   6    2.00    2.08
 -15   3  -6  147.05   11.86
  15  -3   6  177.77   15.39
  11   2  -6    4.81    0.98
 -11  -2   6    4.55    1.61
  10   2  -6   64.17    4.93
 -10  -2   6   59.24    5.95
   9   2  -6   30.71    3.03
   9   2  -6   18.77    2.47
  -9  -2   6   24.30    3.27
  -9  -2   6   28.27    3.47
   8   2  -6   35.94    3.29
   8   2  -6   28.68    2.70
  -8  -2   6   33.21    3.75
  -8  -2   6   28.89    3.68
   7   2  -6  292.79   21.32
  -7  -2   6  307.34   22.57
   6   2  -6    6.69    0.95
  -6  -2   6    6.78    1.51
  -6  -2   6    8.78    1.93
   5   2  -6  131.28    9.19
  -5  -2   6  126.24    9.75
  -5  -2   6  121.51   10.20
   4   2  -6  299.89   19.63
  -4  -2   6  242.82   19.90
  -4  -2   6  291.51   20.72
   3   2  -6   36.52    2.57
  -3  -2   6   33.70    2.63
  -3  -2   6   36.16    3.47
  -3  -2   6   26.73    2.65
   2   2  -6   70.90    5.08
  -2  -2   6   68.84    5.10
  -2  -2   6   67.14    5.95
   1   2  -6   85.64    5.97
  -1  -2   6   77.62    6.76
  -1  -2   6   81.65    5.95
   0   2  -6   61.64    4.53
   0  -2   6   61.59    5.32
  -1   2  -6  580.18   42.57
   1  -2   6  650.08   42.84
   1  -2   6  568.67   42.48
  -2   2  -6   68.16    4.56
   2  -2   6   59.85    5.15
   2  -2   6   56.56    5.13
  -3   2  -6  249.12   16.75
   3  -2   6  243.69   17.38
   3  -2   6  216.59   17.53
  -4   2  -6  579.24   39.05
   4  -2   6  529.58   40.08
   4  -2   6  558.97   39.59
  -5   2  -6   61.45    4.45
   5  -2   6   55.40    5.50
   5  -2   6   61.59    4.90
  -6   2  -6   70.20    5.35
   6  -2   6   68.58    6.61
   6  -2   6   78.63    6.03
  -7   2  -6  534.43   36.01
   7  -2   6  510.22   36.23
   7  -2   6  487.41   37.55
  -8   2  -6   57.44    4.47
   8  -2   6   64.70    4.60
   8  -2   6   50.99    5.87
  -9   2  -6  174.23   13.85
   9  -2   6  179.75   15.72
   9  -2   6  219.90   13.78
 -10   2  -6   55.08    4.50
  10  -2   6   63.13    6.61
 -11   2  -6   11.66    1.33
  11  -2   6   12.59    3.12
 -12   2  -6   94.22    7.26
  12  -2   6   99.34    9.71
 -13   2  -6   46.58    4.21
  13  -2   6   62.28    6.92
 -14   2  -6   18.77    1.96
  14  -2   6   15.73    3.88
 -15   2  -6  111.40    9.34
  15  -2   6  141.62   12.73
  11   1  -6   65.68    5.04
 -11  -1   6   58.59    5.82
  10   1  -6  137.22   10.01
 -10  -1   6  132.15   10.98
   9   1  -6   28.45    2.55
   9   1  -6   29.38    3.01
  -9  -1   6   23.92    3.37
  -9  -1   6   33.29    3.63
   8   1  -6  102.33    7.50
   8   1  -6   93.48    7.01
  -8  -1   6   81.79    7.88
   7   1  -6  217.57   14.77
  -7  -1   6  191.85   15.69
   6   1  -6   55.17    4.24
   6   1  -6   42.81    3.87
  -6  -1   6   53.49    4.58
   5   1  -6  293.16   21.86
  -5  -1   6  346.99   22.43
  -5  -1   6  281.87   22.73
   4   1  -6   72.73    5.27
  -4  -1   6   73.25    6.19
  -4  -1   6   68.35    5.42
   3   1  -6    2.46    0.46
  -3  -1   6    0.50    0.80
   2   1  -6  144.70   10.02
  -2  -1   6  134.32   10.81
   1   1  -6  219.50   15.18
  -1  -1   6  208.34   15.95
   0   1  -6   50.44    3.74
   0  -1   6   49.90    4.40
   0  -1   6   50.56    3.78
   1  -1   6  494.14   35.81
   1  -1   6  518.90   36.23
  -2   1  -6   57.46    3.91
   2  -1   6   49.70    4.35
   2  -1   6   50.13    4.42
  -3   1  -6  487.50   31.89
   3  -1   6  436.40   32.58
   3  -1   6  436.38   32.38
  -4   1  -6  152.24   10.61
   4  -1   6  144.06   11.48
   4  -1   6  148.55   11.06
  -5   1  -6    1.39    0.35
   5  -1   6    2.06    0.98
   5  -1   6    2.26    0.68
  -6   1  -6  306.24   20.65
   6  -1   6  277.95   21.85
   6  -1   6  288.97   20.91
  -7   1  -6  597.27   41.52
   7  -1   6  623.56   41.71
   7  -1   6  547.69   42.89
  -8   1  -6    2.28    0.51
  -8   1  -6    2.09    0.49
   8  -1   6    1.62    0.47
   8  -1   6    3.60    1.40
   8  -1   6    3.07    0.61
  -9   1  -6  452.48   33.64
   9  -1   6  502.36   35.66
 -10   1  -6   19.78    1.88
  10  -1   6   21.15    3.45
 -11   1  -6   29.20    2.76
  11  -1   6   39.50    4.84
 -12   1  -6  134.73   10.55
  12  -1   6  155.74   13.06
 -13   1  -6   39.98    3.90
  13  -1   6   52.33    6.13
 -14   1  -6   65.81    5.55
  14  -1   6   77.42    8.29
 -15   1  -6   93.62    7.87
  15  -1   6  114.27   10.92
  11   0  -6   66.06    4.72
 -11   0   6   48.90    5.25
  10   0  -6  104.31    7.65
  10   0  -6  109.19    8.21
 -10   0   6   87.47    8.35
   9   0  -6   51.00    4.35
   9   0  -6   47.41    3.90
  -9   0   6   44.76    4.69
   8   0  -6  156.87   11.30
   8   0  -6  157.97   11.65
  -8   0   6  149.15   12.15
   7   0  -6   52.49    4.23
  -7   0   6   57.88    5.60
   6   0  -6   32.92    2.67
   6   0  -6   26.55    2.42
  -6   0   6   25.75    3.12
   5   0  -6  397.46   28.74
   5   0  -6  443.77   28.77
  -5   0   6  371.72   29.42
   4   0  -6   16.95    1.62
   4   0  -6   21.84    1.64
  -4   0   6   15.78    2.26
   3   0  -6   10.99    1.01
  -3   0   6   10.14    1.65
   2   0  -6  428.21   30.54
  -2   0   6  440.80   31.32
   1   0  -6   10.26    0.90
  -1   0   6    8.51    1.42
   0   0  -6  258.23   17.60
   0   0   6  239.08   18.20
  -2   0  -6   88.23    6.14
   2   0   6   86.21    6.50
   2   0   6   78.53    6.58
  -4   0  -6  409.60   28.30
   4   0   6  390.91   28.71
   4   0   6  405.35   29.54
  -5   0  -6    0.64    0.33
   5   0   6    0.68    0.69
   5   0   6    0.37    0.41
  -6   0  -6  533.13   36.93
   6   0   6  498.27   38.01
   6   0   6  542.09   37.18
  -7   0  -6  219.08   14.93
   7   0   6  216.88   15.05
   7   0   6  188.98   16.08
  -8   0  -6    8.37    0.96
   8   0   6    6.70    1.91
   8   0   6    9.29    1.01
  -9   0  -6  438.28   31.36
   9   0   6  449.28   33.12
 -10   0  -6   25.88    2.26
  10   0   6   25.40    3.77
 -11   0  -6   34.25    3.06
  11   0   6   40.84    4.92
 -12   0  -6  142.40   11.43
  12   0   6  173.88   13.92
 -13   0  -6    3.31    0.91
  13   0   6    4.33    2.70
 -14   0  -6   57.77    5.09
  14   0   6   71.45    7.55
 -15   0  -6   82.86    6.70
  15   0   6   87.06    9.30
  12  -1  -6    0.40    0.55
  11  -1  -6   84.07    6.16
 -11   1   6   73.70    6.80
  10  -1  -6   69.77    5.33
  10  -1  -6   68.64    5.86
 -10   1   6   64.57    5.94
   9  -1  -6   34.87    3.31
   9  -1  -6   34.94    2.91
  -9   1   6   30.50    3.48
   8  -1  -6  180.86   12.45
   8  -1  -6  174.20   12.81
  -8   1   6  158.60   13.13
   7  -1  -6  311.45   22.19
   7  -1  -6  324.01   21.91
  -7   1   6  286.86   22.61
   6  -1  -6   43.50    3.72
   6  -1  -6   46.07    3.57
  -6   1   6   48.79    4.35
   5  -1  -6  291.02   20.21
   5  -1  -6  281.96   20.31
  -5   1   6  281.87   20.96
   4  -1  -6   37.32    2.85
   4  -1  -6   35.72    2.84
  -4   1   6   35.52    3.49
   3  -1  -6   61.91    4.39
  -3   1   6   58.16    5.03
  -3   1   6   57.43    4.34
   2  -1  -6  292.57   19.98
  -2   1   6  272.77   20.60
   1  -1  -6    1.13    0.30
  -1   1   6    0.17    0.36
   0  -1  -6  517.16   39.03
   0   1   6  601.66   39.75
  -1  -1  -6  322.05   22.80
  -2  -1  -6  119.97    8.26
   2   1   6  109.88    8.67
  -4  -1  -6  158.34   11.13
   4   1   6  147.16   11.45
   4   1   6  161.98   11.94
  -5  -1  -6   18.34    1.54
   5   1   6   18.51    2.26
   5   1   6   17.28    1.79
  -6  -1  -6  621.88   42.65
   6   1   6  584.46   43.65
   6   1   6  613.45   42.85
  -7  -1  -6   23.31    2.08
   7   1   6   28.82    2.28
   7   1   6   22.35    2.99
  -8  -1  -6  220.45   16.97
   8   1   6  216.61   18.21
   8   1   6  273.68   17.10
  -9  -1  -6  126.86    9.28
   9   1   6  126.82   10.79
 -10  -1  -6    8.99    1.11
 -10  -1  -6    7.29    1.02
  10   1   6    9.17    2.38
  10   1   6   10.64    1.05
 -11  -1  -6  105.90    8.32
  11   1   6  120.19   10.29
 -12  -1  -6   70.01    5.67
  12   1   6   77.66    7.70
 -14  -1  -6  101.37    8.45
  14   1   6  125.53   11.13
 -15  -1  -6    7.17    1.25
  15   1   6    8.37    2.78
  12  -2  -6   11.01    1.57
  11  -2  -6   87.43    6.40
 -11   2   6   77.85    6.88
  10  -2  -6   51.38    4.84
  10  -2  -6   52.95    4.20
   9  -2  -6   61.15    4.71
   9  -2  -6   60.20    5.27
  -9   2   6   58.52    5.31
   8  -2  -6  146.28   11.07
   8  -2  -6  152.81   10.58
  -8   2   6  135.07   11.20
   7  -2  -6    0.96    0.48
   7  -2  -6    1.17    0.63
  -7   2   6    0.86    0.75
   6  -2  -6  181.28   13.53
   6  -2  -6  205.99   13.25
  -6   2   6  165.41   13.79
   5  -2  -6  287.93   18.51
   5  -2  -6  244.77   18.68
  -5   2   6  249.33   19.09
   4  -2  -6   51.49    3.94
  -4   2   6   43.54    4.17
  -4   2   6   57.42    4.47
   3  -2  -6  428.79   27.00
   3  -2  -6  342.92   27.01
  -3   2   6  376.30   27.31
  -3   2   6  387.03   27.57
   2  -2  -6   44.92    3.63
   2  -2  -6   54.75    3.64
  -2   2   6   47.26    4.13
   1  -2  -6   74.34    4.93
   1  -2  -6   64.88    4.95
  -1   2   6   62.08    5.41
  -1  -2  -6  136.03    9.32
   1   2   6  112.37    9.67
   1   2   6  141.55    9.48
  -2  -2  -6  280.39   17.55
  -2  -2  -6  221.94   17.80
   2   2   6  243.11   17.93
  -5  -2  -6  287.81   20.07
   5   2   6  279.98   20.34
   5   2   6  282.51   20.89
  -6  -2  -6  221.60   15.96
   6   2   6  217.91   16.91
   6   2   6  232.88   16.20
  -7  -2  -6   17.35    1.64
   7   2   6   21.36    1.87
   7   2   6   17.48    2.50
  -8  -2  -6  489.65   35.82
   8   2   6  556.85   36.02
   8   2   6  475.97   37.04
  -9  -2  -6  584.67   44.64
   9   2   6  595.59   46.03
   9   2   6  719.84   44.87
 -10  -2  -6   26.81    2.43
  10   2   6   30.45    2.62
  10   2   6   28.13    3.77
 -11  -2  -6   96.18    7.17
  11   2   6   89.52    7.04
  11   2   6  102.99    8.96
 -12  -2  -6   36.31    3.30
  12   2   6   43.66    4.98
 -13  -2  -6   45.42    4.14
  13   2   6   49.60    6.78
 -14  -2  -6  120.05    9.43
  14   2   6  131.49   11.71
 -15  -2  -6    6.46    1.21
  15   2   6    8.82    2.85
  12  -3  -6   16.24    1.79
  12  -3  -6   13.23    2.52
  11  -3  -6  191.94   14.60
  11  -3  -6  177.52   13.50
  10  -3  -6    3.25    0.74
 -10   3   6    2.66    0.97
   9  -3  -6   57.49    5.30
   9  -3  -6   60.19    4.51
  -9   3   6   54.53    5.01
   8  -3  -6  302.51   21.57
   8  -3  -6  308.68   22.36
  -8   3   6  297.18   22.15
   7  -3  -6   19.31    2.29
   7  -3  -6   19.25    1.70
  -7   3   6   17.34    2.15
   6  -3  -6  223.92   15.81
   6  -3  -6  228.04   16.45
  -6   3   6  212.57   16.36
   5  -3  -6  260.11   16.69
   5  -3  -6  233.55   17.19
  -5   3   6  209.19   17.12
   4  -3  -6   10.61    0.97
   4  -3  -6    9.69    1.35
  -4   3   6    7.68    1.27
   3  -3  -6  331.19   23.51
   3  -3  -6  350.35   23.05
  -3   3   6  311.05   23.66
  -3   3   6  314.01   23.52
   2  -3  -6  485.13   32.75
  -2   3   6  446.98   33.21
   1  -3  -6    2.42    0.71
   1  -3  -6    2.54    0.42
  -1   3   6    4.81    0.96
  -1   3   6    2.57    0.72
   0  -3  -6  366.75   27.17
   0  -3  -6  424.73   26.89
   0   3   6  344.39   27.04
  -1  -3  -6   31.14    2.56
  -1  -3  -6   31.81    2.32
   1   3   6   29.63    2.53
   1   3   6   27.96    2.69
   2   3   6  455.46   32.40
   3   3   6  428.61   34.17
   3   3   6  535.34   34.51
  -4  -3  -6  114.09    8.36
   4   3   6  118.98    9.08
   4   3   6  115.06    8.71
  -5  -3  -6  421.57   30.01
   5   3   6  411.55   30.32
   5   3   6  445.63   30.94
  -6  -3  -6  371.07   26.71
   6   3   6  364.95   27.66
   6   3   6  399.32   27.25
  -7  -3  -6   59.63    4.53
   7   3   6   56.77    5.45
   7   3   6   62.67    5.00
  -8  -3  -6   14.25    1.43
   8   3   6   16.63    2.48
  -9  -3  -6    5.28    0.86
   9   3   6    4.86    1.64
 -10  -3  -6  168.11   12.29
  10   3   6  170.49   13.76
 -11  -3  -6  427.48   32.09
  11   3   6  471.32   33.91
  11   3   6  459.99   32.35
 -12  -3  -6   35.52    2.82
  12   3   6   26.89    2.71
  12   3   6   37.57    4.36
 -13  -3  -6   65.32    5.49
  13   3   6   76.26    7.51
 -14  -3  -6   34.68    3.16
  14   3   6   33.61    4.83
 -15  -3  -6    0.85    0.73
  15   3   6    0.52    1.52
  12  -4  -6   19.34    3.07
  12  -4  -6   16.37    1.93
  11  -4  -6   86.68    6.66
  10  -4  -6   -0.60    0.95
  10  -4  -6   -0.27    0.56
 -10   4   6   -0.66    0.54
   9  -4  -6  103.28    7.53
   9  -4  -6  112.74    8.80
  -9   4   6   88.06    7.84
   8  -4  -6  128.78    9.35
   8  -4  -6  137.04   10.53
  -8   4   6  118.00    9.77
   7  -4  -6    0.83    0.91
   7  -4  -6    0.33    0.42
  -7   4   6    0.76    0.57
   6  -4  -6   91.72    7.55
   6  -4  -6   95.72    6.62
  -6   4   6   81.73    7.03
   5  -4  -6   95.18    6.43
   5  -4  -6   89.21    7.31
  -5   4   6   78.05    6.80
   4  -4  -6   75.03    6.67
   4  -4  -6   85.94    5.95
  -4   4   6   82.94    6.42
   3  -4  -6  209.68   13.18
   3  -4  -6  163.06   13.82
  -3   4   6  182.97   13.61
   2  -4  -6   24.71    1.82
   2  -4  -6   22.20    2.48
  -2   4   6   21.44    2.20
   1  -4  -6  149.04    9.73
  -1   4   6  123.48   10.10
  -1  -4  -6   88.33    6.08
   1   4   6   78.46    6.40
  -4  -4  -6  164.80   11.48
   4   4   6  166.85   12.26
   4   4   6  150.34   11.80
   5   4   6  734.12   51.86
  -6  -4  -6  183.85   13.42
   6   4   6  187.65   14.45
   6   4   6  191.93   13.79
  -7  -4  -6   76.42    5.89
   7   4   6   77.93    6.97
   7   4   6   83.93    6.29
  -8  -4  -6  655.92   47.65
   8   4   6  655.30   48.90
   8   4   6  721.07   48.10
  -9  -4  -6    4.51    0.80
   9   4   6    4.85    1.61
   9   4   6    5.73    1.24
 -10  -4  -6  126.00    9.59
  10   4   6  125.68   10.98
  10   4   6  140.15   10.13
 -11  -4  -6  205.67   15.22
  11   4   6  212.67   15.70
  11   4   6  213.41   16.85
 -12  -4  -6    0.06    0.35
  12   4   6    0.35    0.69
  12   4   6    1.73    1.19
 -13  -4  -6   98.60    7.62
  13   4   6  102.25    9.47
 -14  -4  -6   76.73    6.30
  14   4   6   83.76    8.27
 -15  -4  -6   12.08    1.73
  15   4   6   16.39    3.16
  12  -5  -6   90.20    6.97
  12  -5  -6   90.80    8.53
  11  -5  -6   28.58    2.70
  11  -5  -6   32.35    4.16
  10  -5  -6    2.22    1.52
  10  -5  -6    2.37    0.82
 -10   5   6    2.10    0.74
   9  -5  -6   86.45    6.39
   9  -5  -6   94.03    8.90
  -9   5   6   77.58    6.65
   8  -5  -6   18.53    1.82
   8  -5  -6   22.78    3.03
  -8   5   6   19.64    2.16
   7  -5  -6  147.94   12.00
   7  -5  -6  153.69   10.68
  -7   5   6  140.88   11.06
   6  -5  -6  369.49   26.52
   6  -5  -6  388.98   27.74
  -6   5   6  362.13   26.80
   5  -5  -6    1.04    1.00
   5  -5  -6    0.52    0.36
  -5   5   6    0.41    0.49
   4  -5  -6   67.69    4.66
   4  -5  -6   58.68    5.63
  -4   5   6   61.97    5.08
   3  -5  -6  232.27   14.55
   3  -5  -6  178.51   15.51
  -3   5   6  202.86   14.97
   2  -5  -6    0.08    0.19
   2  -5  -6    0.12    0.67
  -2   5   6   -0.23    0.33
   1  -5  -6  372.59   28.71
  -1   5   6  412.46   28.07
   0  -5  -6  404.98   29.91
   0   5   6  415.54   29.27
  -1  -5  -6  164.63   11.35
   1   5   6  153.60   11.73
  -2  -5  -6  760.56   54.40
  -3  -5  -6  315.27   21.41
  -3  -5  -6  287.43   20.15
   3   5   6  262.84   20.55
   3   5   6  278.90   20.87
  -4  -5  -6   78.38    5.90
  -4  -5  -6   90.44    7.07
   4   5   6   80.68    6.73
   4   5   6   75.32    6.29
   5   5   6  779.36   56.37
   5   5   6  799.83   55.83
  -6  -5  -6   86.48    6.63
   6   5   6   93.52    7.74
   6   5   6   92.07    7.11
  -7  -5  -6  219.96   16.24
   7   5   6  219.84   17.43
   7   5   6  244.11   16.81
  -8  -5  -6  273.88   19.47
   8   5   6  282.86   20.88
   8   5   6  264.09   20.00
  -9  -5  -6   14.56    1.49
   9   5   6   15.51    2.00
   9   5   6   14.75    2.41
 -10  -5  -6  211.52   15.58
  10   5   6  220.17   17.13
  10   5   6  218.41   16.26
 -11  -5  -6  156.62   11.72
  11   5   6  158.76   12.41
  11   5   6  166.63   13.38
 -12  -5  -6   24.02    2.26
  12   5   6   21.64    2.85
  12   5   6   25.97    3.54
 -13  -5  -6   71.73    5.81
  13   5   6   75.20    7.49
  13   5   6   75.72    7.53
 -14  -5  -6   42.79    3.96
  14   5   6   51.69    5.72
  12  -6  -6  115.27    9.96
  12  -6  -6  103.66    7.91
 -12   6   6   95.81    7.78
  11  -6  -6   15.21    1.67
  11  -6  -6   15.79    3.08
  10  -6  -6   18.16    3.19
   9  -6  -6  178.48   12.68
   9  -6  -6  187.46   14.58
  -9   6   6  161.80   12.91
   8  -6  -6   36.98    4.40
   8  -6  -6   32.18    2.74
  -8   6   6   32.21    3.05
   7  -6  -6   71.80    5.25
   7  -6  -6   70.09    6.77
  -7   6   6   67.53    5.61
   6  -6  -6  219.84   16.81
  -6   6   6  207.09   15.59
   5  -6  -6    9.57    0.92
   5  -6  -6    8.95    2.11
  -5   6   6    8.33    1.24
   4  -6  -6  162.10   13.99
   4  -6  -6  189.83   12.63
  -4   6   6  178.24   13.06
   3  -6  -6  184.06   12.26
   3  -6  -6  155.74   13.62
  -3   6   6  175.73   12.72
   2  -6  -6   44.04    4.89
   2  -6  -6   52.12    3.64
  -2   6   6   50.49    4.10
   1  -6  -6  587.57   43.35
  -1   6   6  607.03   42.35
   0  -6  -6  400.25   28.99
   0   6   6  384.69   28.02
  -1  -6  -6   39.33    2.87
  -1  -6  -6   41.49    4.18
   1   6   6   36.05    3.31
  -2  -6  -6  804.27   57.72
  -3  -6  -6   20.98    1.76
  -3  -6  -6   25.23    2.91
   3   6   6   18.92    2.12
   3   6   6   20.44    2.36
  -4  -6  -6  227.74   16.43
  -4  -6  -6  257.26   17.93
   4   6   6  233.76   17.42
   4   6   6  211.46   16.92
  -5  -6  -6  303.64   21.39
  -5  -6  -6  275.01   19.93
   5   6   6  284.89   21.05
   5   6   6  264.58   20.46
  -6  -6  -6   34.11    2.84
   6   6   6   37.38    3.96
   6   6   6   38.30    3.42
  -7  -6  -6  299.16   22.06
   7   6   6  324.43   23.48
   7   6   6  311.57   22.74
  -8  -6  -6  177.41   13.01
   8   6   6  174.35   13.70
   8   6   6  191.77   14.49
  -9  -6  -6   59.52    4.60
   9   6   6   64.32    6.07
   9   6   6   55.58    5.30
 -10  -6  -6  186.56   13.30
  10   6   6  186.64   14.15
  10   6   6  177.53   14.75
 -11  -6  -6   58.48    4.68
  11   6   6   64.98    6.30
  11   6   6   55.30    5.51
 -12  -6  -6   14.99    1.74
  12   6   6   18.85    2.71
  12   6   6   17.99    4.97
 -13  -6  -6  119.38    8.88
  13   6   6  109.69    9.65
  13   6   6  125.18   10.78
 -14  -6  -6    3.63    0.89
  14   6   6    4.36    2.00
  12  -7  -6   83.72    8.01
  12  -7  -6   74.18    5.75
 -12   7   6   65.05    5.58
  11  -7  -6    1.49    0.68
  11  -7  -6    2.35    1.67
  10  -7  -6   54.64    6.14
   9  -7  -6  106.00    7.72
   9  -7  -6  112.17    9.82
  -9   7   6   96.44    7.94
   8  -7  -6    7.15    2.23
   8  -7  -6    8.50    1.05
  -8   7   6    6.65    1.27
   7  -7  -6  269.30   22.53
   7  -7  -6  290.56   19.78
  -7   7   6  272.97   20.16
   6  -7  -6  115.98   10.41
  -6   7   6  120.92    9.05
   5  -7  -6    2.17    0.46
   5  -7  -6    0.16    1.02
  -5   7   6    2.82    0.82
   4  -7  -6  188.09   12.59
   4  -7  -6  160.10   14.30
  -4   7   6  179.51   13.07
   3  -7  -6   86.51    8.22
   3  -7  -6   91.38    6.48
  -3   7   6   90.53    6.97
   2  -7  -6  156.39   10.48
   2  -7  -6  127.99   12.07
  -2   7   6  155.00   11.03
   1  -7  -6  334.16   26.85
   1  -7  -6  376.77   25.16
  -1   7   6  361.54   25.72
   0  -7  -6   44.69    3.22
   0  -7  -6   42.43    4.63
   0   7   6   44.22    3.76
  -1  -7  -6  122.36    9.84
  -1  -7  -6  111.86    8.08
   1   7   6  108.85    8.66
  -2  -7  -6  775.79   51.40
   2   7   6  640.83   50.03
  -3  -7  -6   65.79    4.96
  -3  -7  -6   73.35    6.58
   3   7   6   64.35    5.49
  -4  -7  -6  198.43   14.53
  -4  -7  -6  181.55   12.77
   4   7   6  178.04   13.44
   4   7   6  162.81   13.74
  -5  -7  -6  254.87   19.28
  -5  -7  -6  251.19   17.66
   5   7   6  248.96   18.89
   5   7   6  242.17   18.34
  -6  -7  -6   34.66    2.81
  -6  -7  -6   36.21    4.19
   6   7   6   36.40    4.01
   6   7   6   37.11    3.56
  -7  -7  -6  105.22    7.67
  -7  -7  -6  106.63    9.26
   7   7   6  110.86    9.16
   7   7   6   97.73    8.43
  -8  -7  -6   80.39    7.33
  -8  -7  -6   72.93    5.60
   8   7   6   80.81    7.17
   8   7   6   66.27    6.35
  -9  -7  -6   83.32    6.56
   9   7   6   85.41    7.48
   9   7   6   96.89    8.27
 -10  -7  -6  252.73   18.28
  10   7   6  257.97   19.96
 -11  -7  -6    5.62    0.95
  11   7   6    5.02    1.65
  11   7   6    8.47    2.16
 -12  -7  -6   74.98    5.90
  12   7   6   73.57    6.99
  12   7   6   80.46    7.64
 -13  -7  -6   95.63    7.06
  13   7   6   93.02    8.75
  13   7   6   86.08    8.11
 -14  -7  -6    4.99    0.99
  14   7   6    4.34    2.04
  11  -8  -6    0.44    0.49
 -11   8   6   -0.03    0.38
  10  -8  -6   56.52    6.67
   9  -8  -6   91.54    6.32
   9  -8  -6   83.36    8.52
  -9   8   6   76.54    6.53
   8  -8  -6   20.98    3.68
   8  -8  -6   19.73    1.77
  -8   8   6   17.56    2.07
   7  -8  -6  192.82   13.20
   7  -8  -6  174.40   15.38
  -7   8   6  182.47   13.64
   6  -8  -6   33.00    4.82
   6  -8  -6   38.41    2.95
  -6   8   6   38.40    3.43
   5  -8  -6   12.91    1.21
   5  -8  -6   10.84    2.88
  -5   8   6   13.64    1.65
   4  -8  -6  310.90   24.99
   4  -8  -6  342.11   22.75
  -4   8   6  312.64   23.27
   3  -8  -6    0.87    1.37
   3  -8  -6    1.62    0.32
  -3   8   6    1.59    0.70
   2  -8  -6   69.29    7.45
   2  -8  -6   82.61    5.61
  -2   8   6   78.53    6.21
   1  -8  -6   65.33    7.06
  -1   8   6   81.23    6.01
   0  -8  -6  101.47    7.06
   0  -8  -6   98.97    8.95
   0   8   6   96.81    7.70
  -1  -8  -6  210.44   15.05
  -1  -8  -6  214.06   17.08
   1   8   6  217.87   15.79
  -2  -8  -6  314.53   23.85
  -2  -8  -6  360.69   26.04
   2   8   6  349.19   24.65
  -3  -8  -6   43.67    4.83
  -3  -8  -6   39.65    3.10
   3   8   6   44.92    3.92
  -4  -8  -6  264.71   18.34
  -4  -8  -6  259.03   20.26
   4   8   6  255.45   19.17
  -5  -8  -6   35.31    4.35
  -5  -8  -6   33.88    2.54
   5   8   6   31.03    3.32
   5   8   6   29.72    3.75
  -6  -8  -6  130.65   11.36
  -6  -8  -6  131.36    9.60
   6   8   6  142.34   11.16
   6   8   6  129.84   10.52
  -7  -8  -6  202.98   14.70
  -7  -8  -6  200.41   16.46
   7   8   6  214.86   16.34
  -8  -8  -6    4.11    1.69
  -8  -8  -6    3.26    0.61
   8   8   6    2.14    1.08
   8   8   6    3.50    1.57
  -9  -8  -6  137.54    9.95
  -9  -8  -6  134.77   11.86
   9   8   6  147.19   11.78
   9   8   6  126.44   10.98
 -10  -8  -6  247.58   19.42
 -10  -8  -6  236.44   17.21
  10   8   6  229.47   18.40
  10   8   6  246.69   19.06
 -11  -8  -6    2.80    0.67
 -11  -8  -6    2.41    1.78
  11   8   6    3.56    2.06
  11   8   6    1.03    1.23
 -12  -8  -6  170.25   13.18
 -12  -8  -6  199.57   16.02
  12   8   6  174.70   14.55
  12   8   6  182.98   15.12
 -13  -8  -6  107.84    8.51
 -13  -8  -6  128.57   11.57
  13   8   6  107.58   10.31
  11  -9  -6   13.00    1.41
  11  -9  -6    9.71    3.28
 -11   9   6   10.14    1.23
  10  -9  -6   91.82    9.82
  10  -9  -6  104.15    7.63
   9  -9  -6   21.20    1.73
   9  -9  -6   12.78    3.37
  -9   9   6   15.52    1.99
   8  -9  -6   81.56    5.78
   8  -9  -6   74.99    8.25
  -8   9   6   72.27    6.18
   7  -9  -6   72.80    5.24
   7  -9  -6   67.28    7.64
  -7   9   6   67.56    5.72
   6  -9  -6   17.20    1.54
   6  -9  -6   17.79    3.35
  -6   9   6   16.12    1.99
   5  -9  -6  242.95   16.76
   5  -9  -6  219.98   19.32
  -5   9   6  242.73   17.41
   4  -9  -6  321.25   21.17
   4  -9  -6  281.40   25.11
  -4   9   6  291.44   21.79
   3  -9  -6    2.64    1.78
   3  -9  -6    3.79    0.52
  -3   9   6    3.80    1.00
   2  -9  -6  330.62   28.28
   2  -9  -6  391.54   26.00
  -2   9   6  383.76   26.74
   1  -9  -6  146.20   10.12
   1  -9  -6  132.34   12.32
  -1   9   6  148.34   10.91
   0  -9  -6   35.95    4.67
   0  -9  -6   33.84    2.55
   0   9   6   35.78    3.29
  -1  -9  -6  242.52   19.57
  -1  -9  -6  246.61   17.21
   1   9   6  245.86   18.07
  -2  -9  -6  313.29   22.75
  -2  -9  -6  333.28   25.20
   2   9   6  329.22   23.68
  -3  -9  -6   68.02    6.90
  -3  -9  -6   64.33    4.64
   3   9   6   61.45    5.90
  -4  -9  -6  321.88   25.48
   4   9   6  339.76   24.37
  -5  -9  -6    0.54    1.28
  -5  -9  -6    1.41    0.35
   5   9   6    1.48    0.94
  -6  -9  -6  160.27   11.58
  -6  -9  -6  162.88   13.68
   6   9   6  161.67   12.72
   6   9   6  164.01   13.22
  -7  -9  -6  136.49   11.62
  -7  -9  -6  131.86    9.56
   7   9   6  130.79   11.20
   7   9   6  131.57   10.73
  -8  -9  -6    3.34    0.60
  -8  -9  -6    3.76    1.78
   8   9   6    2.05    1.30
   8   9   6    3.12    1.63
  -9  -9  -6  126.03    9.18
  -9  -9  -6  124.12   11.25
   9   9   6  117.71   10.43
   9   9   6  134.01   11.12
 -10  -9  -6  120.11    9.09
 -10  -9  -6  119.71   12.14
  10   9   6  124.06   10.53
  10   9   6  133.11   12.03
 -11  -9  -6    2.15    0.67
 -11  -9  -6    3.19    1.99
  11   9   6    2.50    1.71
  11   9   6    2.54    1.52
 -12  -9  -6  104.92   10.21
  12   9   6  103.15    9.53
  12   9   6   94.91    9.04
 -13  -9  -6   12.27    3.56
  13   9   6   17.08    3.19
  13   9   6    7.91    2.52
  10 -10  -6   80.44    8.83
  10 -10  -6   84.86    5.88
 -10  10   6   65.84    5.80
   9 -10  -6    1.37    0.53
   9 -10  -6   -0.36    1.87
  -9  10   6    1.42    0.48
  -9  10   6    0.52    0.80
   8 -10  -6   83.54    6.27
   8 -10  -6   91.21    9.43
  -8  10   6   79.91    7.12
   7 -10  -6   38.36    5.78
   7 -10  -6   45.87    3.40
   6 -10  -6    0.32    1.60
   6 -10  -6    0.20    0.35
   5 -10  -6  279.78   19.07
   5 -10  -6  255.88   22.04
   4 -10  -6  129.47   12.63
   4 -10  -6  144.28    9.90
   3 -10  -6    9.95    2.97
   3 -10  -6   11.66    1.02
  -3  10   6   11.62    1.93
   2 -10  -6  190.94   17.35
  -2  10   6  227.43   15.81
   1 -10  -6    0.81    0.23
   1 -10  -6    0.83    1.44
  -1  10   6    1.69    0.80
   0 -10  -6   99.30   10.22
   0 -10  -6  106.74    7.81
   0  10   6  120.47    7.82
   0  10   6  111.31    8.74
  -1 -10  -6  299.54   22.10
  -1 -10  -6  314.85   24.85
   1  10   6  335.37   23.20
  -2 -10  -6   58.29    6.39
  -2 -10  -6   55.96    3.96
  -2 -10  -6   55.47    3.95
   2  10   6   50.74    3.93
   2  10   6   60.13    5.07
  -3 -10  -6   78.13    5.62
  -3 -10  -6   78.25    8.01
   3  10   6   80.77    6.73
  -4 -10  -6  214.10   17.09
  -4 -10  -6  189.71   14.35
   4  10   6  212.78   15.62
  -5 -10  -6    0.84    1.36
  -5 -10  -6   -0.21    0.19
   5  10   6   -0.91    0.78
  -6 -10  -6  144.46   10.45
  -6 -10  -6  153.15   12.93
   6  10   6  142.58   11.77
  -7 -10  -6   23.46    1.88
  -7 -10  -6   21.03    3.41
   7  10   6   21.80    2.97
  -8 -10  -6    5.85    2.15
  -8 -10  -6    6.94    0.82
   8  10   6    6.77    2.17
   8  10   6    6.70    1.97
  -9 -10  -6  141.92   13.03
  -9 -10  -6  139.38   10.39
   9  10   6  156.52   12.62
   9  10   6  136.39   11.89
 -10 -10  -6   38.90    3.08
 -10 -10  -6   38.53    5.02
  10  10   6   39.13    4.77
  10  10   6   32.22    4.34
 -11 -10  -6   49.28    6.56
 -11 -10  -6   62.09    4.54
  11  10   6   60.65    6.48
  11  10   6   55.78    5.99
 -12 -10  -6  134.90   12.59
 -12 -10  -6  133.39    9.87
  12  10   6  140.11   11.75
  12  10   6  127.33   11.85
  10 -11  -6  125.53   12.03
 -10  11   6   99.72    8.09
   9 -11  -6    2.52    0.58
   9 -11  -6   -0.15    1.88
  -9  11   6    1.82    0.46
  -9  11   6    1.60    0.90
   8 -11  -6   21.50    1.88
  -8  11   6   18.54    2.42
  -8  11   6   21.17    1.79
   7 -11  -6  121.72   11.83
   7 -11  -6  112.06    8.19
  -7  11   6  118.12    8.15
  -7  11   6  100.81    8.92
   6 -11  -6   42.13    3.28
   6 -11  -6   41.00    6.11
  -6  11   6   44.80    4.16
   5 -11  -6  154.66   10.87
   5 -11  -6  157.18   14.32
  -5  11   6  145.84   11.76
   4 -11  -6   55.19    3.97
   4 -11  -6   54.45    6.90
  -4  11   6   51.59    4.85
   3 -11  -6  113.28   11.76
   3 -11  -6  122.15    8.89
  -3  11   6  138.75   10.00
   2 -11  -6  276.42   19.68
   2 -11  -6  253.51   22.61
  -2  11   6  309.20   20.84
   1 -11  -6   31.34    2.35
   1 -11  -6   30.21    4.65
  -1  11   6   37.32    3.49
   0 -11  -6   71.56    5.29
   0 -11  -6   68.89    7.99
   0  11   6   79.54    6.48
   0  11   6   78.84    5.29
  -1 -11  -6  133.04    9.10
  -1 -11  -6  119.95   11.92
   1  11   6  133.17   10.31
  -2 -11  -6    4.15    0.35
  -2 -11  -6    3.80    0.34
  -2 -11  -6    6.83    2.42
   2  11   6    4.44    1.34
  -3 -11  -6  177.43   14.92
  -3 -11  -6  155.56   11.78
   3  11   6  177.75   13.21
  -4 -11  -6  108.79    7.78
  -4 -11  -6  107.73   10.46
   4  11   6  113.96    9.23
  -5 -11  -6    9.85    2.73
   5  11   6    8.33    1.90
  -6 -11  -6   74.09    5.38
  -6 -11  -6   76.40    7.87
   6  11   6   72.88    6.88
  -7 -11  -6    2.99    1.87
  -7 -11  -6    4.00    0.56
   7  11   6    2.85    1.49
  -8 -11  -6   85.22    6.36
   8  11   6   89.96    8.11
  -9 -11  -6  118.01   11.41
  -9 -11  -6  130.58    8.97
   9  11   6  117.27   10.77
 -10 -11  -6    9.76    3.03
  10  11   6    9.52    2.44
 -11 -11  -6   29.30    4.84
  11  11   6   35.03    4.42
   9 -12  -6   30.73    2.59
   9 -12  -6   35.12    6.15
   8 -12  -6   95.46   10.46
   8 -12  -6   84.44    6.46
  -8  12   6   87.37    7.59
   7 -12  -6   31.76    2.47
   7 -12  -6   32.60    5.76
  -7  12   6   28.42    3.29
   6 -12  -6   40.28    6.31
  -6  12   6   42.67    4.21
  -6  12   6   41.89    3.14
   5 -12  -6  104.05    7.64
   5 -12  -6  103.56   11.19
  -5  12   6  112.50    8.85
   4 -12  -6   23.40    4.49
  -4  12   6   20.70    1.65
  -4  12   6   23.95    2.77
   3 -12  -6  109.67    8.20
   3 -12  -6  116.30   11.64
  -3  12   6  122.70    9.48
  -3  12   6  117.80    8.18
   2 -12  -6  119.29   11.49
   2 -12  -6  113.84    8.14
  -2  12   6  120.63    9.44
  -2  12   6  112.87    8.11
   1 -12  -6    1.39    1.26
  -1  12   6    2.47    1.17
   0 -12  -6  198.11   17.52
   0  12   6  206.76   15.52
  -1 -12  -6  112.00   11.32
   1  12   6  119.01    9.49
  -2 -12  -6    0.31    1.62
   2  12   6    0.81    0.78
  -3 -12  -6  105.33   10.17
   3  12   6   90.82    8.20
  -4 -12  -6   30.06    4.67
   4  12   6   31.19    3.69
  -5 -12  -6   65.88    7.45
  -5 -12  -6   59.99    4.54
   5  12   6   69.71    6.25
  -6 -12  -6   85.46    9.21
   6  12   6   93.01    8.23
  -7 -12  -6    3.59    2.01
  -7 -12  -6    2.85    0.42
  -8 -12  -6  110.30   11.40
   8  12   6  139.47   11.08
  -9 -12  -6   98.12    7.79
  -9 -12  -6  104.86   10.43
   9  12   6  122.49   10.03
 -10 -12  -6    3.02    2.16
  10  12   6    4.96    1.90
  -8  13   6   75.45    6.63
   7 -13  -6    0.94    2.41
  -7  13   6    2.52    1.03
   6 -13  -6   56.09    7.79
  -6  13   6   55.88    5.31
   5 -13  -6   42.17    6.53
  -5  13   6   41.73    4.35
   4 -13  -6    6.29    4.64
  -4  13   6    3.66    1.39
   3 -13  -6  103.56   10.75
  -3  13   6   94.13    8.26
   2 -13  -6   74.64    8.96
  -2  13   6   82.02    7.01
   1 -13  -6   18.05    4.47
  -1  13   6   26.40    2.98
   0 -13  -6  139.14   13.97
   0  13   6  159.19   12.08
  -1 -13  -6   28.09    4.78
   1  13   6   29.97    3.52
  -2 -13  -6   51.60    6.94
   2  13   6   57.11    5.42
  -3 -13  -6   76.97    9.00
   3  13   6   85.19    7.45
  -5 -13  -6   32.59    5.17
   5  13   6   31.73    3.93
  -6 -13  -6   32.24    5.13
   6  13   6   43.12    4.85
  -7 -13  -6    8.61    2.98
   7  13   6   13.09    2.82
  -8 -13  -6  127.24   12.41
   8  13   6  132.40   11.45
  -9 -13  -6   34.23    5.39
   9  13   6   43.04    5.19
   7 -14  -6    6.46    3.28
  -7  14   6    3.04    1.25
   6 -14  -6   77.44    9.52
  -6  14   6   73.72    6.84
   5 -14  -6   77.84    9.59
  -5  14   6   77.56    7.07
   4 -14  -6    5.38    2.75
  -4  14   6    6.79    1.80
   3 -14  -6   79.33    9.03
  -3  14   6   60.38    6.16
   2 -14  -6   31.19    5.58
  -2  14   6   28.64    3.58
   1 -14  -6   40.38    6.04
   0 -14  -6   87.74   10.05
   0  14   6   89.92    8.56
  -1 -14  -6    5.58    2.87
   1  14   6    7.25    1.93
  -2 -14  -6   75.58    9.18
   2  14   6   82.16    7.37
  -3 -14  -6   91.06   10.35
   3  14   6  100.30    8.67
  -4 -14  -6   -0.11    1.65
   4  14   6   -0.67    0.94
  -5 -14  -6   46.27    6.62
   5  14   6   46.96    5.20
  -6 -14  -6   24.12    4.71
  -7 -14  -6    6.15    2.67
   7  14   6   11.11    2.71
   5 -15  -6    0.81    2.47
  -5  15   6    0.22    0.94
   4 -15  -6   45.25    7.00
  -4  15   6   37.92    4.47
   3 -15  -6  105.94   11.50
  -3  15   6   98.84    8.91
   2 -15  -6    3.28    2.62
  -2  15   6    1.28    1.17
   1 -15  -6   41.28    6.69
  -1  15   6   45.18    4.85
   0 -15  -6   58.84    8.15
   0  15   6   73.65    6.65
  -1 -15  -6    1.95    1.82
   1  15   6    1.90    1.25
  -2 -15  -6   60.86    8.09
   2  15   6   67.17    7.01
  -3 -15  -6   51.83    7.15
   3  15   6   51.13    5.59
  -4 -15  -6    2.32    2.37
   4  15   6    2.11    1.56
  -5 -15  -6   60.60    8.24
   5  15   6   74.07    7.15
  -6 -15  -6   19.07    4.67
   6  15   6   19.88    3.31
   3 -16  -6   56.08    7.91
  -3  16   6   50.30    5.57
   2 -16  -6   -1.87    1.70
  -2  16   6    0.52    1.12
   1 -16  -6   54.42    7.65
  -1  16   6   44.86    5.13
   0 -16  -6   54.18    8.05
   0  16   6   62.95    6.24
  -1 -16  -6    0.70    2.19
   1  16   6    0.50    0.88
  -2 -16  -6   30.11    5.78
   2  16   6   34.58    4.31
  -3 -16  -6    2.22    2.01
   3  16   6    2.32    1.52
   2 -11   7    9.45    2.47
   3 -11   7   41.69    6.37
   3 -11   7   53.90    5.83
   4 -11   7   28.93    4.19
   4 -11   7   29.12    5.17
   5 -11   7    2.23    1.73
   5 -11   7    3.60    2.23
  -2 -10   7   70.68    7.53
  -1 -10   7    4.47    1.81
  -1 -10   7    3.12    1.85
   0 -10   7   72.49    8.11
   0 -10   7   86.01    8.04
   1 -10   7   68.92    7.72
   1 -10   7   74.54    7.33
   2 -10   7    2.46    1.84
   2 -10   7    2.67    1.51
   3 -10   7   70.46    8.27
   3 -10   7   80.87    7.57
   4 -10   7   46.14    5.30
   5 -10   7    4.64    1.89
   6 -10   7   84.75    9.63
   7 -10   7   18.95    3.41
   7 -10   7   15.47    4.41
   8 -10   7   17.10    4.48
   8 -10   7   16.76    3.10
  -4  -9   7    7.75    2.56
   3   9  -7   26.42    2.18
  -3  -9   7   27.45    3.95
   2   9  -7   93.37    6.75
  -2  -9   7   91.67    8.87
   1   9  -7    1.01    0.35
  -1  -9   7    0.96    1.16
  -1  -9   7    1.96    1.49
   0   9  -7   80.56    5.54
   0  -9   7   64.93    7.54
   0  -9   7   80.86    7.64
  -1   9  -7   40.49    2.93
   1  -9   7   38.04    4.70
   1  -9   7   34.59    5.13
  -2   9  -7   20.85    1.71
   2  -9   7   21.12    3.79
   2  -9   7   21.29    3.36
  -3   9  -7   93.64    6.83
   3  -9   7  100.73    8.71
   3  -9   7   91.00    9.52
   4  -9   7   43.86    4.86
   4  -9   7   37.68    5.65
  -5   9  -7   58.24    4.48
   5  -9   7   68.23    6.31
   5  -9   7   57.84    7.28
  -6   9  -7   57.75    4.64
   6  -9   7   71.42    6.49
   6  -9   7   64.30    7.75
  -7   9  -7    0.70    0.47
   7  -9   7    0.97    1.27
  -8   9  -7   63.41    5.14
   8  -9   7   75.43    6.68
   8  -9   7   73.16    8.63
  -9   9  -7   74.37    5.83
   9  -9   7   88.08    9.71
  10  -9   7    0.56    2.04
   5   8  -7   64.03    4.95
  -5  -8   7   69.68    7.22
  -4  -8   7    1.84    1.62
   3   8  -7   49.89    3.86
  -3  -8   7   53.40    5.74
   2   8  -7   57.11    4.58
  -2  -8   7   73.85    6.76
   1   8  -7   31.23    2.48
  -1  -8   7   36.33    4.21
  -1  -8   7   29.34    4.12
   0   8  -7  216.26   14.39
   0  -8   7  168.29   16.19
   0  -8   7  229.37   17.50
  -1   8  -7   85.43    6.27
   1  -8   7   95.42    8.19
   1  -8   7   79.59    9.10
  -2   8  -7   48.99    3.63
   2  -8   7   46.87    5.72
   2  -8   7   49.40    5.28
  -3   8  -7  109.32    7.78
   3  -8   7  111.65    9.51
   3  -8   7  102.89   10.20
  -4   8  -7   11.29    1.11
   4  -8   7   13.92    2.57
   4  -8   7   10.18    2.91
  -5   8  -7   85.64    6.20
   5  -8   7   84.85    7.71
   5  -8   7   83.59    8.91
  -6   8  -7  123.38    9.60
   6  -8   7  131.72   12.57
   6  -8   7  150.74   11.25
  -7   8  -7    1.26    0.43
   7  -8   7   -0.39    1.40
   7  -8   7    1.50    1.05
  -8   8  -7  127.28   10.34
   8  -8   7  159.50   11.73
   8  -8   7  151.68   13.86
  -9   8  -7   18.14    1.73
   9  -8   7   19.69    3.11
   9  -8   7   22.82    4.44
 -10   8  -7   10.51    1.30
  10  -8   7   16.42    4.07
 -11   8  -7   89.00    7.29
  11  -8   7  119.19   11.56
   6   7  -7   99.78    7.25
  -6  -7   7   95.27    9.25
   5   7  -7   26.96    2.25
  -5  -7   7   25.14    3.73
   4   7  -7    4.35    0.75
  -4  -7   7    6.37    1.96
   3   7  -7  157.61   11.66
  -3  -7   7  171.25   13.68
   2   7  -7   42.26    3.04
  -2  -7   7   32.87    4.22
  -2  -7   7   42.59    4.73
   1   7  -7   17.62    1.43
  -1  -7   7   16.50    3.05
  -1  -7   7   13.42    2.54
   0   7  -7  141.04    9.68
   0  -7   7  148.19   11.48
   0  -7   7  117.59   11.26
  -1   7  -7    1.35    0.38
   1  -7   7    2.77    1.24
   1  -7   7    1.95    1.36
  -2   7  -7   81.60    5.90
   2  -7   7   85.57    7.52
   2  -7   7   76.27    7.85
  -3   7  -7  124.33    8.96
   3  -7   7  133.43   10.57
   3  -7   7  117.55   11.10
  -4   7  -7    1.35    0.38
   4  -7   7    1.10    1.07
   4  -7   7    0.93    1.58
  -5   7  -7   79.06    5.88
   5  -7   7   74.16    8.12
   5  -7   7   87.97    7.29
  -6   7  -7   54.71    4.24
   6  -7   7   52.20    6.47
   6  -7   7   63.51    5.57
  -7   7  -7   10.09    1.04
   7  -7   7    8.40    1.83
   7  -7   7    6.64    2.51
  -8   7  -7  116.99    9.02
   8  -7   7  123.19   11.92
   8  -7   7  134.56   10.11
  -9   7  -7   18.15    1.72
   9  -7   7   20.08    4.09
   9  -7   7   18.31    2.48
 -10   7  -7   67.12    5.42
  10  -7   7   81.45    8.83
 -11   7  -7   84.12    6.67
  11  -7   7   99.42   10.23
 -12   7  -7    3.89    0.81
  12  -7   7    3.38    2.47
   7   6  -7   33.25    2.87
  -7  -6   7   37.90    4.81
   6   6  -7  161.74   12.12
  -6  -6   7  177.77   14.27
   5   6  -7   18.03    1.64
  -5  -6   7   18.30    3.49
   4   6  -7   36.65    2.95
  -4  -6   7   38.64    5.14
   3   6  -7  144.72   10.77
  -3  -6   7  158.31   12.58
   2   6  -7   10.61    1.13
  -2  -6   7    6.97    1.72
  -2  -6   7   10.53    2.28
   1   6  -7  157.09   10.97
  -1  -6   7  148.13   12.50
   0   6  -7  239.39   16.27
   0  -6   7  255.21   18.00
   0  -6   7  197.47   17.59
  -1   6  -7    2.40    0.43
   1  -6   7    4.08    1.47
   1  -6   7    1.95    1.29
  -2   6  -7  166.28   11.54
   2  -6   7  165.81   12.95
   2  -6   7  152.38   13.23
  -3   6  -7   31.53    2.53
   3  -6   7   30.61    4.15
   3  -6   7   36.34    3.88
  -4   6  -7   14.92    1.31
   4  -6   7   15.12    2.36
   4  -6   7   12.25    2.87
  -5   6  -7  270.02   19.28
   5  -6   7  286.46   20.53
   5  -6   7  259.52   22.53
  -6   6  -7  155.93   11.42
   6  -6   7  148.41   13.63
   6  -6   7  174.09   12.57
  -7   6  -7   60.83    4.88
   7  -6   7   64.23    7.07
   7  -6   7   65.80    5.71
  -8   6  -7   62.09    4.90
   8  -6   7   66.72    7.35
   8  -6   7   67.31    5.70
  -9   6  -7   13.42    1.40
   9  -6   7   14.58    2.01
   9  -6   7   14.46    3.50
 -10   6  -7   59.40    4.94
  10  -6   7   65.68    7.53
  10  -6   7   70.01    5.39
 -11   6  -7   80.58    6.57
  11  -6   7  100.69    9.94
 -12   6  -7   -0.57    0.41
  12  -6   7    0.34    1.85
 -13   6  -7   74.16    6.20
  13  -6   7   94.87    9.76
   8   5  -7    6.03    0.96
  -8  -5   7    9.15    2.47
  -7  -5   7   49.55    5.63
   6   5  -7   77.26    5.86
  -6  -5   7   79.73    7.68
   5   5  -7   13.09    1.35
  -5  -5   7   16.08    2.99
   4   5  -7   82.65    6.05
  -4  -5   7   80.23    7.56
   3   5  -7   88.24    5.78
  -3  -5   7   65.86    6.44
  -3  -5   7   81.73    7.27
   2   5  -7    0.60    0.38
  -2  -5   7    0.54    0.83
  -2  -5   7    1.22    0.81
   1   5  -7  140.23    9.97
  -1  -5   7  137.34   11.35
   0   5  -7   71.14    4.95
   0  -5   7   58.65    5.91
   0  -5   7   72.44    6.34
  -1   5  -7    1.66    0.42
   1  -5   7    1.35    1.01
   1  -5   7    0.86    0.97
  -2   5  -7  218.79   14.73
   2  -5   7  207.19   15.93
   2  -5   7  194.23   16.07
  -3   5  -7   45.62    3.16
   3  -5   7   34.45    4.34
  -4   5  -7    2.19    0.46
   4  -5   7    2.58    1.14
   4  -5   7    1.54    1.10
  -5   5  -7  100.33    7.14
   5  -5   7  104.48    8.16
   5  -5   7   88.72    8.79
  -6   5  -7   51.88    4.02
   6  -5   7   54.07    4.84
  -7   5  -7  124.02    9.59
   7  -5   7  139.22   10.27
   7  -5   7  129.35   11.62
  -8   5  -7  307.12   22.35
   8  -5   7  336.33   23.01
   8  -5   7  300.45   24.67
  -9   5  -7    1.94    0.58
   9  -5   7    2.78    0.90
   9  -5   7    2.72    1.77
 -10   5  -7  137.64    9.77
  10  -5   7  116.40   10.39
  10  -5   7  150.59   12.73
 -11   5  -7   87.49    6.68
  11  -5   7   91.80   10.87
  12  -5   7    6.02    2.71
 -13   5  -7   89.85    7.35
  13  -5   7  110.73   10.83
 -14   5  -7    1.56    0.73
  14  -5   7    3.79    2.27
   9   4  -7   55.65    4.46
  -9  -4   7   56.67    6.12
   8   4  -7   -0.69    0.36
  -8  -4   7    0.37    1.33
   7   4  -7   86.61    6.88
  -7  -4   7  104.79    9.63
   6   4  -7   42.83    3.51
  -6  -4   7   47.62    5.06
  -5  -4   7   18.11    2.11
  -5  -4   7   28.42    3.38
   4   4  -7  298.73   20.71
  -4  -4   7  283.67   22.13
   3   4  -7   88.63    5.92
  -3  -4   7   90.33    7.40
  -3  -4   7   67.02    6.27
   2   4  -7   46.90    3.63
  -2  -4   7   43.77    4.69
  -2  -4   7   50.20    3.94
   1   4  -7  203.49   13.05
  -1  -4   7  195.13   14.36
  -1  -4   7  153.24   13.59
   0   4  -7    4.42    0.64
   0  -4   7    5.29    1.33
   0  -4   7    5.08    1.52
  -1   4  -7  181.86   12.95
  -2   4  -7  321.29   21.45
   2  -4   7  267.52   22.43
   2  -4   7  323.01   22.60
  -3   4  -7   37.94    2.94
   3  -4   7   40.41    3.91
   3  -4   7   36.12    4.06
  -4   4  -7  146.22   10.41
   4  -4   7  147.88   11.34
   4  -4   7  141.42   11.84
  -5   4  -7  223.53   15.67
   5  -4   7  210.93   17.23
   5  -4   7  225.85   16.51
  -6   4  -7    4.34    0.70
   6  -4   7    5.68    1.32
   6  -4   7    4.37    1.73
  -7   4  -7   99.81    7.21
   7  -4   7   94.08    9.01
   7  -4   7   99.25    7.79
  -8   4  -7   57.71    4.34
   8  -4   7   50.63    6.03
   8  -4   7   59.08    4.82
  -9   4  -7    2.80    0.66
   9  -4   7    2.68    0.84
   9  -4   7    3.16    1.82
 -10   4  -7  261.81   20.56
  10  -4   7  273.43   22.99
  10  -4   7  325.73   20.66
 -11   4  -7  109.80    8.97
  11  -4   7  140.82   11.98
 -12   4  -7   32.75    3.04
  12  -4   7   46.83    5.96
 -13   4  -7   53.36    4.35
  13  -4   7   54.90    7.05
 -14   4  -7   10.09    1.48
  14  -4   7   18.37    4.36
   9   3  -7   40.83    3.27
  -9  -3   7   34.39    4.48
   8   3  -7    8.41    1.15
  -8  -3   7    7.92    2.20
   7   3  -7  202.86   14.63
  -7  -3   7  203.59   16.16
   6   3  -7   99.46    7.45
  -6  -3   7  103.05    8.87
   5   3  -7   11.78    1.22
  -5  -3   7   12.04    2.40
  -5  -3   7   10.65    1.24
   4   3  -7  306.33   20.07
  -4  -3   7  292.75   21.41
  -4  -3   7  252.75   20.27
  -3  -3   7    9.68    1.16
  -3  -3   7   12.81    1.19
  -3  -3   7   15.71    2.24
   2   3  -7  178.88   13.21
  -2  -3   7  178.80   14.36
  -2  -3   7  195.58   13.32
   1   3  -7  323.20   21.64
  -1  -3   7  262.57   21.88
  -1  -3   7  342.77   23.54
   0   3  -7   57.49    3.94
   0  -3   7   54.52    4.98
   0  -3   7   53.07    4.08
   0  -3   7   45.54    4.33
  -1   3  -7  207.48   13.37
   1  -3   7  167.19   13.93
   1  -3   7  188.26   14.33
  -2   3  -7  305.29   19.73
   2  -3   7  284.49   20.66
   2  -3   7  246.54   20.46
  -3   3  -7   23.96    1.86
   3  -3   7   20.96    2.56
   3  -3   7   21.13    2.68
  -4   3  -7  567.54   38.21
   4  -3   7  549.23   39.00
   4  -3   7  513.44   39.40
  -5   3  -7   14.96    1.32
   5  -3   7   14.02    1.90
   5  -3   7   12.79    2.31
  -6   3  -7   14.85    1.34
   6  -3   7   11.87    1.79
   6  -3   7   14.24    2.52
  -7   3  -7  259.74   18.10
   7  -3   7  257.96   18.58
   7  -3   7  243.74   19.81
  -8   3  -7   12.32    1.34
   8  -3   7   13.30    1.62
   8  -3   7   12.21    2.48
  -9   3  -7   48.40    3.99
   9  -3   7   46.89    5.79
   9  -3   7   55.50    4.21
 -10   3  -7  219.20   16.36
  10  -3   7  238.08   18.80
 -11   3  -7   11.84    1.41
  11  -3   7   16.11    3.54
 -12   3  -7   65.31    5.32
  12  -3   7   79.42   11.01
 -13   3  -7   87.42    6.97
  13  -3   7   97.88    9.85
 -14   3  -7   -0.71    0.38
  14  -3   7   -0.51    1.11
  10   2  -7   62.22    4.86
 -10  -2   7   57.85    6.12
   9   2  -7    9.92    1.33
  -9  -2   7    9.10    2.37
  -8  -2   7   35.10    4.14
   7   2  -7  203.01   14.56
  -7  -2   7  201.01   15.91
   6   2  -7   38.73    2.73
  -6  -2   7   37.72    4.01
  -6  -2   7   27.36    2.78
   5   2  -7  104.96    8.01
  -5  -2   7  116.13    9.33
   4   2  -7  312.72   22.08
  -4  -2   7  310.21   23.28
   3   2  -7    5.94    0.73
  -3  -2   7    5.86    1.53
   2   2  -7  175.96   12.34
  -2  -2   7  168.88   13.40
   1   2  -7  141.80   10.42
  -1  -2   7  151.39   10.28
  -1  -2   7  141.53   11.41
   0   2  -7    0.66    0.31
   0   2  -7    0.17    0.38
   0  -2   7    0.92    0.87
   0  -2   7    0.32    0.31
   0  -2   7    0.56    0.23
  -1   2  -7  139.95    8.96
  -1   2  -7  116.29    9.42
   1  -2   7  117.93    9.32
   1  -2   7  123.19    9.80
  -2   2  -7  217.69   14.23
   2  -2   7  192.66   14.83
   2  -2   7  188.09   14.96
  -3   2  -7   56.85    4.05
   3  -2   7   48.72    5.10
   3  -2   7   55.34    4.77
  -4   2  -7  362.56   24.67
   4  -2   7  338.28   25.70
   4  -2   7  347.10   25.34
  -5   2  -7   28.48    2.23
   5  -2   7   27.54    2.76
   5  -2   7   26.30    3.21
  -6   2  -7   18.56    1.65
   6  -2   7   17.57    2.74
   6  -2   7   19.36    2.11
  -7   2  -7   88.26    6.32
   7  -2   7   84.21    6.68
   7  -2   7   82.31    7.80
  -8   2  -7    1.89    0.58
   8  -2   7    3.01    2.00
  -9   2  -7  159.75   12.69
   9  -2   7  178.70   14.70
   9  -2   7  188.64   12.82
 -10   2  -7  284.83   21.07
  10  -2   7  307.50   23.44
 -11   2  -7    0.57    0.36
  11  -2   7    2.18    1.65
 -12   2  -7   37.43    3.32
  12  -2   7   44.13    5.50
 -13   2  -7   38.85    3.60
  13  -2   7   51.95    6.21
 -14   2  -7   22.08    2.31
  14  -2   7   26.99    4.45
 -15   2  -7  129.16   10.77
  15  -2   7  165.57   14.31
  10   1  -7   68.38    5.33
 -10  -1   7   65.55    6.40
   9   1  -7   22.04    2.05
  -9  -1   7   17.28    2.84
   8   1  -7   47.54    3.90
  -8  -1   7   49.71    5.02
   7   1  -7  218.68   15.72
  -7  -1   7  218.80   16.93
   6   1  -7    0.90    0.46
  -6  -1   7    0.97    0.83
  -6  -1   7    0.98    0.44
   5   1  -7  172.62   12.37
  -5  -1   7  170.89   13.46
   4   1  -7  317.33   21.20
  -4  -1   7  276.97   22.67
   3   1  -7   21.97    1.83
  -3  -1   7   21.12    2.74
   2   1  -7  352.21   24.78
  -2  -1   7  349.88   25.78
   1   1  -7  223.61   15.65
  -1  -1   7  216.83   16.57
   0   1  -7   21.42    1.60
   0  -1   7   17.98    2.31
   0  -1   7   17.61    1.36
  -1   1  -7  269.49   18.35
   1  -1   7  241.91   19.08
   1  -1   7  264.04   18.56
  -2   1  -7   97.75    6.56
   2  -1   7   82.96    6.95
   2  -1   7   89.63    7.25
  -3   1  -7  346.30   23.33
   3  -1   7  328.27   24.02
   3  -1   7  315.70   23.94
  -4   1  -7  241.79   16.51
   4  -1   7  229.06   17.40
   4  -1   7  225.98   17.07
  -5   1  -7   13.27    1.25
   5  -1   7   12.49    2.00
   5  -1   7   13.86    1.70
  -6   1  -7  122.02    8.62
   6  -1   7  116.92    9.85
   6  -1   7  116.05    9.00
  -7   1  -7  132.26    9.65
   7  -1   7  126.96   11.04
   7  -1   7  138.56   10.01
   8  -1   7   19.81    1.91
   8  -1   7   16.84    2.90
  -9   1  -7  270.49   20.68
   9  -1   7  323.48   20.75
   9  -1   7  273.04   22.49
 -10   1  -7   53.79    4.79
  10  -1   7   57.94    6.46
  10  -1   7   70.59    4.65
 -11   1  -7    7.06    1.09
  11  -1   7   11.12    2.80
 -12   1  -7  164.52   12.86
  12  -1   7  192.04   15.52
 -13   1  -7   34.63    3.27
  13  -1   7   44.55    5.72
 -14   1  -7   30.88    3.12
  14  -1   7   43.05    5.60
 -15   1  -7  114.33    9.53
  15  -1   7  142.39   12.75
  11   0  -7   32.90    2.82
 -11   0   7   26.30    3.48
  10   0  -7   66.44    5.03
 -10   0   7   58.48    5.87
   9   0  -7    0.10    0.45
  -9   0   7   -0.15    0.96
   8   0  -7   68.35    5.27
  -8   0   7   67.54    6.26
   7   0  -7   85.57    7.32
   7   0  -7  109.93    7.61
  -7   0   7   87.39    8.25
  -7   0   7  108.67    8.00
   6   0  -7    0.07    0.40
   6   0  -7    0.20    0.34
  -6   0   7   -0.11    0.47
  -6   0   7    0.30    0.70
  -6   0   7    1.76    1.11
  -5   0   7  108.67    7.90
  -4   0   7   54.58    5.04
   3   0  -7  114.77    8.30
  -3   0   7  114.17    9.23
   2   0  -7  455.32   31.91
  -2   0   7  451.43   32.83
   1   0  -7   30.71    2.44
  -1   0   7   31.68    3.22
   0   0  -7   88.09    6.03
   0   0   7   75.87    6.69
  -1   0  -7  417.57   29.84
   1   0   7  469.18   29.96
   1   0   7  381.84   30.48
  -2   0  -7    2.88    0.49
  -2   0  -7    2.03    0.67
   2   0   7    3.13    0.94
   3   0   7  533.10   39.64
   3   0   7  578.65   39.69
  -4   0  -7  451.54   31.33
   4   0   7  439.19   31.85
   4   0   7  443.91   32.12
  -5   0  -7   13.25    1.23
   5   0   7   11.71    1.86
   5   0   7   12.99    1.59
  -6   0  -7  405.67   28.26
   6   0   7  401.77   28.63
   6   0   7  392.67   29.43
  -7   0  -7  190.28   13.54
   7   0   7  179.55   14.82
   7   0   7  195.60   14.09
  -8   0  -7   76.64    6.08
   8   0   7   79.94    7.47
   8   0   7   86.07    6.24
  -9   0  -7  536.18   41.22
   9   0   7  661.81   41.30
   9   0   7  552.51   42.94
 -10   0  -7   59.04    5.12
  10   0   7   76.03    5.06
  10   0   7   61.35    6.78
 -11   0  -7   18.10    1.85
  11   0   7   20.46    3.47
 -12   0  -7  124.69   10.00
  12   0   7  149.48   12.51
 -13   0  -7    7.93    1.24
  13   0   7   10.22    2.85
 -14   0  -7  128.50   10.25
  14   0   7  148.61   13.02
 -15   0  -7   92.63    7.89
  15   0   7  116.19   10.95
  11  -1  -7   46.67    3.59
 -11   1   7   34.34    4.11
  10  -1  -7   51.97    4.03
 -10   1   7   45.21    4.80
   9  -1  -7   18.19    2.10
   9  -1  -7   19.37    1.88
  -9   1   7   16.58    2.61
   8  -1  -7  327.42   22.89
   8  -1  -7  333.26   23.16
  -8   1   7  299.77   23.77
   7  -1  -7   30.89    2.66
   7  -1  -7   28.84    2.50
  -7   1   7   25.36    3.24
   6  -1  -7   25.18    2.17
   6  -1  -7   21.62    2.09
  -6   1   7   23.94    3.27
   5  -1  -7  513.41   35.48
  -5   1   7  492.89   36.38
   4  -1  -7   92.69    6.80
  -4   1   7   92.96    7.67
   3  -1  -7   83.16    6.24
  -3   1   7   88.15    7.12
   2  -1  -7  440.24   30.20
  -2   1   7  416.90   30.98
   1  -1  -7    2.29    0.41
  -1   1   7    1.37    0.76
   0  -1  -7  362.75   24.50
   0   1   7  331.49   25.15
  -1  -1  -7  545.90   36.61
   1   1   7  495.43   37.20
  -2  -1  -7    8.84    0.80
  -2  -1  -7    5.47    0.84
   2   1   7    6.65    1.27
  -3  -1  -7  156.83   11.28
   3   1   7  143.33   11.73
   3   1   7  172.18   11.86
  -4  -1  -7  417.08   28.14
   4   1   7  358.61   28.53
   4   1   7  421.43   28.99
  -5  -1  -7   73.70    5.64
   5   1   7   80.22    6.54
   5   1   7   75.02    6.03
  -6  -1  -7  390.95   27.83
   6   1   7  403.52   28.18
   6   1   7  387.11   28.90
  -7  -1  -7  103.40    7.90
   7   1   7  118.22    8.47
   7   1   7  102.25    9.02
  -8  -1  -7   52.63    4.28
   8   1   7   52.72    5.54
   8   1   7   60.20    4.46
  -9  -1  -7  160.58   12.30
   9   1   7  161.56   13.81
   9   1   7  185.88   12.41
 -10  -1  -7   28.89    2.80
  10   1   7   34.08    4.38
  10   1   7   37.88    2.89
 -11  -1  -7   87.45    6.33
  11   1   7   76.68    6.10
  11   1   7   88.71    8.26
 -12  -1  -7  127.62   10.22
  12   1   7  152.02   12.59
 -13  -1  -7    0.94    0.53
  13   1   7    0.60    1.41
 -14  -1  -7   61.38    5.46
  14   1   7   79.29    8.08
 -15  -1  -7   25.51    2.83
  15   1   7   37.71    5.34
  11  -2  -7   71.05    5.41
 -11   2   7   63.94    6.01
  10  -2  -7   21.05    2.13
  10  -2  -7   22.83    2.65
 -10   2   7   23.39    2.85
   9  -2  -7   95.69    7.57
  -9   2   7   94.15    7.98
   8  -2  -7  124.32    8.88
   8  -2  -7  124.27    9.21
  -8   2   7  110.10    9.62
   7  -2  -7  115.16    7.97
  -7   2   7   97.78    9.11
   6  -2  -7   37.43    2.99
   6  -2  -7   35.82    3.10
  -6   2   7   37.66    3.76
   5  -2  -7  183.23   13.65
   5  -2  -7  200.08   13.62
  -5   2   7  187.46   14.38
   4  -2  -7    5.72    0.74
   4  -2  -7    4.94    0.64
  -4   2   7    4.90    0.86
  -4   2   7    6.12    1.37
   3  -2  -7  230.66   15.85
  -3   2   7  214.77   16.55
   2  -2  -7  461.41   30.35
  -2   2   7  399.77   30.97
   1  -2  -7   15.92    1.28
  -1   2   7   12.56    1.69
   0  -2  -7  350.95   24.50
   0  -2  -7  314.17   24.28
   0  -2  -7  384.65   24.34
   0   2   7  332.51   24.91
  -1  -2  -7  440.76   29.12
   1   2   7  363.65   29.58
   1   2   7  434.93   29.21
  -2  -2  -7   39.01    3.58
  -2  -2  -7   52.02    3.40
   2   2   7   44.36    3.84
  -3  -2  -7  202.01   14.93
   3   2   7  233.60   15.52
   3   2   7  194.22   15.37
  -4  -2  -7  140.38   10.02
   4   2   7  148.79   10.75
   4   2   7  129.00   10.41
  -5  -2  -7  187.51   13.31
   5   2   7  188.53   14.16
   5   2   7  182.26   13.68
  -6  -2  -7  466.86   33.90
   6   2   7  475.34   34.92
   6   2   7  500.52   34.25
  -7  -2  -7    5.13    0.85
   7   2   7    7.02    1.67
   7   2   7    6.36    1.03
  -8  -2  -7  346.65   24.41
   8   2   7  340.80   25.74
  -9  -2  -7  239.61   17.73
   9   2   7  272.71   17.92
   9   2   7  228.45   19.13
 -10  -2  -7    2.46    0.71
  10   2   7    2.17    1.30
  10   2   7    2.73    0.82
 -11  -2  -7  140.35   10.54
  11   2   7  144.94   10.54
  11   2   7  144.35   12.36
 -12  -2  -7   72.89    5.70
  12   2   7   73.97    7.48
 -13  -2  -7   36.07    3.28
  13   2   7   40.07    5.13
 -14  -2  -7   90.09    7.55
  14   2   7  109.14   10.10
 -15  -2  -7   17.17    1.88
  15   2   7   15.14    3.71
  11  -3  -7  103.23    7.86
  10  -3  -7   27.11    2.44
  10  -3  -7   25.46    3.00
 -10   3   7   24.84    2.97
   9  -3  -7  111.19    9.00
   9  -3  -7  120.82    8.66
  -9   3   7  108.50    9.09
   8  -3  -7   42.93    3.56
   8  -3  -7   45.01    4.04
   7  -3  -7    8.76    1.40
   7  -3  -7    9.68    1.14
  -7   3   7    8.14    1.65
   6  -3  -7  269.40   19.04
   6  -3  -7  260.87   18.33
  -6   3   7  240.14   19.00
   5  -3  -7  347.48   26.44
   5  -3  -7  410.47   26.21
  -5   3   7  353.96   26.84
   4  -3  -7    8.23    1.15
   4  -3  -7   10.84    0.99
  -4   3   7   10.12    1.44
  -4   3   7    8.60    1.37
   3  -3  -7   73.01    6.07
   3  -3  -7   81.46    5.86
  -3   3   7   73.05    6.40
  -3   3   7   92.50    6.43
   2  -3  -7   26.71    2.06
  -2   3   7   24.50    2.58
   1  -3  -7   96.49    6.70
  -1   3   7   88.01    7.23
   0  -3  -7  386.45   26.71
   0  -3  -7  404.88   26.89
   0  -3  -7  385.34   27.23
   0   3   7  339.75   27.19
  -1  -3  -7   24.37    2.21
  -1  -3  -7   27.63    2.02
   1   3   7   24.28    2.46
  -2  -3  -7   83.87    6.02
   2   3   7   86.13    6.38
   2   3   7   77.25    6.46
  -4  -3  -7   44.32    3.52
   4   3   7   50.46    4.24
   4   3   7   44.02    3.91
  -5  -3  -7   66.67    4.97
   5   3   7   65.01    5.32
   5   3   7   67.76    5.78
  -6  -3  -7  309.53   22.55
   6   3   7  334.28   22.91
   6   3   7  310.61   23.54
  -7  -3  -7   59.52    4.70
   7   3   7   60.58    5.75
   7   3   7   65.65    5.01
  -8  -3  -7  195.28   14.67
   8   3   7  196.24   15.92
   8   3   7  220.66   14.97
  -9  -3  -7  287.71   21.92
   9   3   7  290.34   23.32
   9   3   7  344.34   22.25
 -10  -3  -7   85.38    6.94
  10   3   7   94.64    8.46
  10   3   7   97.78    7.24
 -11  -3  -7  192.17   14.02
  11   3   7  193.73   15.74
 -12  -3  -7   32.82    2.94
  12   3   7   36.50    4.60
  12   3   7   32.15    2.99
 -13  -3  -7   87.88    7.11
  13   3   7   98.42    9.19
 -14  -3  -7  173.47   13.53
  14   3   7  195.83   15.96
 -15  -3  -7   10.87    1.61
  15   3   7   11.37    3.10
  11  -4  -7  165.39   13.14
  11  -4  -7  162.41   12.07
  10  -4  -7    7.65    1.15
  10  -4  -7    6.96    1.84
 -10   4   7    5.81    1.42
   9  -4  -7   54.38    5.20
   9  -4  -7   55.99    4.38
   8  -4  -7  193.23   13.64
   8  -4  -7  187.19   14.46
  -8   4   7  185.59   14.27
   7  -4  -7   14.05    1.44
   7  -4  -7   14.82    2.08
  -7   4   7   16.77    2.06
   6  -4  -7  317.62   24.13
   6  -4  -7  336.25   23.42
  -6   4   7  337.45   24.09
   5  -4  -7  116.00    8.04
  -5   4   7  103.85    8.58
   4  -4  -7   48.11    4.36
   4  -4  -7   50.97    3.73
  -4   4   7   47.74    4.24
   3  -4  -7  193.54   15.63
   3  -4  -7  231.34   15.09
  -3   4   7  212.09   15.64
   2  -4  -7   54.34    5.10
   2  -4  -7   69.88    4.59
  -2   4   7   62.02    5.10
   1  -4  -7   34.75    3.61
   1  -4  -7   45.51    3.02
  -1   4   7   38.57    3.49
   0  -4  -7  333.95   24.32
   0  -4  -7  361.34   23.53
   0   4   7  306.05   23.99
  -1  -4  -7   89.32    6.51
  -1  -4  -7   77.02    5.60
   1   4   7   65.73    6.00
  -3  -4  -7  317.36   21.67
   3   4   7  320.51   22.30
   3   4   7  281.97   22.08
  -4  -4  -7   15.38    1.46
   4   4   7   15.89    1.79
   4   4   7   19.23    2.15
  -5  -4  -7  288.21   21.25
   5   4   7  312.09   22.23
   5   4   7  300.19   21.67
  -6  -4  -7  327.65   23.60
   6   4   7  340.25   23.99
   6   4   7  331.95   24.67
  -7  -4  -7  127.42    9.44
   7   4   7  133.83    9.81
   7   4   7  127.71   10.57
  -8  -4  -7  278.10   20.02
   8   4   7  284.23   21.53
   8   4   7  280.43   20.36
  -9  -4  -7  188.67   14.09
   9   4   7  204.65   14.50
   9   4   7  193.09   15.49
 -10  -4  -7   45.63    3.92
  10   4   7   47.81    5.20
  10   4   7   54.27    4.39
 -11  -4  -7  142.53   10.80
  11   4   7  151.68   12.51
 -12  -4  -7   13.25    1.51
  12   4   7   11.86    1.75
  12   4   7   10.83    2.61
 -13  -4  -7   67.78    5.59
  13   4   7   74.28    7.39
 -14  -4  -7   99.92    8.00
  14   4   7  109.39   10.17
 -15  -4  -7   -0.78    0.50
  15   4   7   -0.97    1.16
  11  -5  -7   43.69    3.68
  10  -5  -7   15.63    2.84
  10  -5  -7   19.88    1.82
   9  -5  -7  137.60    9.79
  -9   5   7  128.26   10.24
   8  -5  -7   57.12    4.36
   8  -5  -7   56.15    5.49
  -8   5   7   53.99    4.84
   7  -5  -7   20.10    2.78
   7  -5  -7   22.06    1.87
  -7   5   7   18.39    2.25
   6  -5  -7  169.48   13.14
   6  -5  -7  166.03   12.01
  -6   5   7  165.86   12.59
   5  -5  -7   11.83    2.01
  -5   5   7   12.96    1.67
   4  -5  -7  164.83   11.01
   4  -5  -7  143.53   11.91
  -4   5   7  151.41   11.52
   3  -5  -7  194.61   11.98
   3  -5  -7  143.29   13.20
  -3   5   7  162.41   12.46
   2  -5  -7    7.88    1.71
   2  -5  -7    9.02    0.87
  -2   5   7    9.29    1.24
   1  -5  -7  119.82    7.72
   1  -5  -7  100.82    8.74
  -1   5   7  100.11    8.17
   0  -5  -7  196.80   15.74
   0  -5  -7  224.82   14.74
   0   5   7  201.94   15.24
  -1  -5  -7   13.11    1.10
   1   5   7   11.79    1.48
   2   5   7  558.66   39.98
   2   5   7  564.44   39.93
  -3  -5  -7   57.03    4.18
   3   5   7   60.04    4.89
   3   5   7   51.18    4.58
  -4  -5  -7   88.55    6.97
  -4  -5  -7   76.81    5.79
   4   5   7   71.38    6.18
   4   5   7   80.21    6.62
  -5  -5  -7  442.75   31.13
   5   5   7  444.36   32.15
   5   5   7  437.68   31.59
  -6  -5  -7   49.86    3.75
   6   5   7   50.15    4.78
   6   5   7   45.34    4.11
  -7  -5  -7   86.43    6.69
   7   5   7   88.66    7.13
   7   5   7   97.30    7.97
  -8  -5  -7  980.26   69.37
   8   5   7 1000.00   70.80
   8   5   7  985.27   69.84
  -9  -5  -7    0.45    0.45
   9   5   7    0.24    0.93
   9   5   7   -0.25    0.55
 -10  -5  -7   36.97    3.07
  10   5   7   36.58    3.61
  10   5   7   36.45    4.37
 -11  -5  -7  108.99    8.26
  11   5   7  110.15    9.85
  11   5   7  111.77    8.86
 -12  -5  -7    1.47    0.64
  12   5   7    1.56    1.37
  12   5   7    0.99    1.00
 -13  -5  -7  135.36   10.66
  13   5   7  152.57   12.70
 -14  -5  -7   77.48    6.32
  14   5   7   83.49    8.32
  11  -6  -7    4.60    1.88
  11  -6  -7    6.68    1.03
  10  -6  -7   42.28    4.93
  10  -6  -7   39.70    3.39
   9  -6  -7  226.79   16.73
   9  -6  -7  246.10   18.45
  -9   6   7  226.98   17.15
   8  -6  -7   55.55    5.67
   8  -6  -7   53.99    4.22
  -8   6   7   52.70    4.65
   7  -6  -7  120.93    8.85
   7  -6  -7  121.95   10.29
  -7   6   7  120.49    9.36
   6  -6  -7  151.36   10.60
   6  -6  -7  143.93   11.96
  -6   6   7  144.45   11.10
   5  -6  -7   11.04    2.37
   5  -6  -7   15.71    1.44
  -5   6   7   14.66    1.76
   4  -6  -7  107.60    9.50
   4  -6  -7  123.01    8.28
  -4   6   7  111.64    8.77
   3  -6  -7  218.68   17.60
   3  -6  -7  239.18   16.25
  -3   6   7  229.09   16.78
   2  -6  -7   21.39    1.67
   2  -6  -7   20.07    2.85
  -2   6   7   20.02    2.09
   1  -6  -7  210.45   13.43
   1  -6  -7  162.82   14.65
  -1   6   7  192.24   13.96
   0  -6  -7  182.73   12.53
   0  -6  -7  164.73   13.78
   0   6   7  181.61   13.10
  -1  -6  -7  368.29   25.89
  -1  -6  -7  337.89   24.42
   1   6   7  337.33   24.97
  -2  -6  -7  237.72   16.87
   2   6   7  240.01   17.44
  -3  -6  -7  177.04   12.38
   3   6   7  171.31   12.92
   3   6   7  173.22   13.19
  -4  -6  -7   33.02    2.66
  -4  -6  -7   37.72    3.92
   4   6   7   31.19    3.12
   4   6   7   35.49    3.55
  -5  -6  -7  335.25   23.72
  -5  -6  -7  355.33   25.14
   5   6   7  311.47   24.21
   5   6   7  340.91   24.85
  -6  -6  -7   13.75    1.41
   6   6   7   18.22    2.52
   6   6   7   14.89    1.89
  -7  -6  -7  215.27   15.62
   7   6   7  216.66   16.20
   7   6   7  224.56   17.75
  -8  -6  -7  287.95   20.89
   8   6   7  287.58   21.50
   8   6   7  305.67   22.44
  -9  -6  -7    0.35    0.46
   9   6   7    0.67    0.79
   9   6   7    1.23    0.88
 -10  -6  -7   82.69    6.27
  10   6   7   88.66    7.88
  10   6   7   76.36    6.88
 -11  -6  -7  113.27    8.22
  11   6   7  104.65    9.06
  11   6   7  110.82    9.87
 -12  -6  -7   23.91    2.32
  12   6   7   27.92    4.01
  12   6   7   22.81    3.04
 -13  -6  -7  107.44    8.21
  13   6   7  108.79   10.07
 -14  -6  -7   35.08    3.18
  14   6   7   34.89    4.68
  11  -7  -7   10.23    1.30
  11  -7  -7    4.98    2.01
  10  -7  -7   84.34    7.81
  10  -7  -7  105.61    9.26
   9  -7  -7  157.24   11.35
   9  -7  -7  161.07   13.29
  -9   7   7  150.04   11.70
   8  -7  -7   -0.17    1.11
   8  -7  -7   -0.17    0.40
  -8   7   7    1.21    0.67
   7  -7  -7  174.88   14.43
   7  -7  -7  178.92   12.67
  -7   7   7  174.10   13.16
   6  -7  -7  144.10   12.77
   6  -7  -7  167.91   11.20
  -6   7   7  152.39   11.68
   5  -7  -7    3.10    0.57
   5  -7  -7    3.74    1.56
  -5   7   7    5.21    1.15
   4  -7  -7  189.25   16.28
   4  -7  -7  224.90   14.66
  -4   7   7  201.64   15.16
   3  -7  -7  130.92   11.32
   3  -7  -7  136.28    9.57
  -3   7   7  133.47   10.12
   2  -7  -7   57.46    6.19
   2  -7  -7   67.29    4.70
  -2   7   7   66.00    5.24
   1  -7  -7  184.98   16.38
   1  -7  -7  232.19   14.88
  -1   7   7  210.18   15.44
   0  -7  -7   21.47    1.65
   0  -7  -7   17.88    2.85
   0   7   7   22.19    2.22
  -1  -7  -7  365.13   26.52
  -1  -7  -7  361.24   24.79
   1   7   7  332.34   25.37
  -2  -7  -7  450.66   29.79
  -2  -7  -7  366.08   27.82
   2   7   7  377.64   28.45
  -3  -7  -7   29.29    2.40
  -3  -7  -7   35.94    3.97
   3   7   7   30.83    2.97
  -4  -7  -7  216.69   14.82
   4   7   7  201.08   15.87
   4   7   7  207.39   15.46
  -5  -7  -7   84.34    6.16
  -5  -7  -7   88.94    7.67
   5   7   7   77.54    6.71
   5   7   7   84.97    7.31
  -6  -7  -7   14.01    2.35
  -6  -7  -7   12.77    1.27
   6   7   7   12.59    2.16
   6   7   7   12.88    1.86
  -7  -7  -7  775.68   54.84
  -7  -7  -7  722.49   53.09
   7   7   7  725.09   53.81
   7   7   7  802.59   54.75
  -8  -7  -7   81.28    7.82
  -8  -7  -7   82.34    6.29
   8   7   7   93.36    7.90
   8   7   7   81.24    7.02
  -9  -7  -7    3.70    0.74
   9   7   7    4.68    1.38
   9   7   7    2.90    1.36
 -10  -7  -7   81.33    6.27
  10   7   7   84.08    7.91
 -11  -7  -7   69.65    5.41
  11   7   7   68.01    6.33
  11   7   7   70.95    7.04
 -12  -7  -7   20.29    2.13
  12   7   7   24.18    3.19
  12   7   7   22.42    3.62
 -13  -7  -7   86.24    6.74
  13   7   7   86.24    7.82
  13   7   7   89.10    8.63
 -14  -7  -7    0.73    0.61
  14   7   7    0.83    1.46
  11  -8  -7    1.16    0.59
  10  -8  -7   93.02    7.25
  10  -8  -7  101.06    9.44
   9  -8  -7  104.20    7.72
   9  -8  -7  103.75    9.80
  -9   8   7  103.62    8.13
   8  -8  -7   22.50    2.00
   8  -8  -7   23.24    3.73
  -8   8   7   21.76    2.39
   7  -8  -7  238.21   18.60
   7  -8  -7  228.07   16.28
  -7   8   7  219.12   16.76
   6  -8  -7   77.49    5.94
  -6   8   7   83.64    6.52
   5  -8  -7    0.70    0.36
   5  -8  -7   -0.52    1.09
  -5   8   7    0.72    0.60
   4  -8  -7  146.36   12.90
   4  -8  -7  147.62   10.77
  -4   8   7  157.96   11.40
   3  -8  -7   90.94    6.58
   3  -8  -7   90.22    8.66
  -3   8   7   91.59    7.18
   2  -8  -7   47.69    3.37
   2  -8  -7   39.26    5.02
  -2   8   7   46.42    3.98
   1  -8  -7   83.74    8.75
   1  -8  -7  103.82    7.11
  -1   8   7  107.16    7.80
   0  -8  -7   76.44    5.38
   0  -8  -7   68.46    7.09
   0   8   7   77.14    6.06
  -1  -8  -7  196.10   15.78
  -1  -8  -7  194.00   13.82
   1   8   7  197.21   14.52
  -2  -8  -7  295.04   21.86
  -2  -8  -7  275.34   19.76
   2   8   7  273.73   20.48
  -4  -8  -7  218.28   17.35
  -4  -8  -7  221.36   15.45
   4   8   7  214.30   16.23
  -5  -8  -7  145.37    9.98
   5   8   7  131.64   10.71
  -6  -8  -7  144.59   12.13
  -6  -8  -7  143.60   10.39
   6   8   7  137.60   11.19
   6   8   7  151.64   11.93
  -7  -8  -7  185.87   13.72
  -7  -8  -7  193.15   15.57
   7   8   7  210.23   15.52
   7   8   7  178.96   14.61
  -8  -8  -7   24.02    3.46
  -8  -8  -7   25.35    2.10
   8   8   7   20.29    2.81
   8   8   7   25.05    3.38
  -9  -8  -7   78.39    5.88
  -9  -8  -7   83.18    7.84
   9   8   7   74.35    6.80
   9   8   7   75.65    7.47
 -10  -8  -7  293.82   22.52
 -10  -8  -7  263.77   20.19
  10   8   7  266.75   21.23
  10   8   7  309.35   22.28
 -11  -8  -7   12.51    3.12
 -11  -8  -7    8.58    1.26
  11   8   7   12.61    2.88
  11   8   7    9.01    2.20
 -12  -8  -7   59.21    6.54
 -12  -8  -7   50.10    4.12
  12   8   7   44.56    5.51
 -13  -8  -7   70.32    7.73
 -13  -8  -7   63.33    5.07
  13   8   7   64.08    6.78
  13   8   7   55.78    6.15
  10  -9  -7  117.54    8.52
  10  -9  -7  110.39   11.13
   9  -9  -7   81.87    6.04
   9  -9  -7   76.40    8.40
   8  -9  -7   33.89    5.07
   8  -9  -7   42.33    3.17
  -8   9   7   38.36    3.90
   7  -9  -7  139.92    9.82
   7  -9  -7  128.70   12.21
  -7   9   7  135.10   10.76
   6  -9  -7   28.42    4.63
   6  -9  -7   31.44    2.48
   5  -9  -7   33.80    2.59
   5  -9  -7   29.64    4.68
  -5   9   7   32.89    3.43
   4  -9  -7  104.28    7.45
  -4   9   7  101.48    8.07
   3  -9  -7    1.51    1.51
   3  -9  -7    0.11    0.25
  -3   9   7    0.72    0.52
   2  -9  -7  241.88   16.57
   2  -9  -7  210.94   18.76
  -2   9   7  248.03   17.32
   1  -9  -7  202.40   13.48
   1  -9  -7  162.46   15.48
  -1   9   7  202.57   14.26
   0  -9  -7    5.47    2.10
   0  -9  -7    6.88    0.65
   0   9   7    6.43    1.29
  -1  -9  -7  104.96    9.81
   1   9   7  108.96    8.45
  -2  -9  -7   20.95    3.48
   2   9   7   20.59    2.60
  -3  -9  -7  171.42   12.51
  -3  -9  -7  177.75   15.76
   3   9   7  183.08   13.48
  -4  -9  -7  293.40   21.35
  -4  -9  -7  305.82   23.63
   4   9   7  311.59   22.33
  -5  -9  -7  133.35    9.68
  -5  -9  -7  133.58   11.71
   5   9   7  138.94   10.67
  -6  -9  -7  206.85   16.69
  -6  -9  -7  203.71   14.63
   6   9   7  204.41   15.66
   6   9   7  207.17   16.29
  -7  -9  -7  161.76   14.14
  -7  -9  -7  166.82   12.18
   7   9   7  165.21   13.25
   7   9   7  186.08   14.12
  -8  -9  -7    9.57    2.45
  -8  -9  -7   10.98    1.13
   8   9   7   10.08    2.44
   8   9   7   10.53    2.15
  -9  -9  -7   67.86    7.10
  -9  -9  -7   71.02    5.23
   9   9   7   59.94    6.21
   9   9   7   75.43    7.15
 -10  -9  -7   85.23    6.47
  10   9   7   80.34    7.69
  10   9   7   97.70   11.29
 -11  -9  -7    0.48    0.43
 -11  -9  -7    0.43    1.13
  11   9   7    0.34    1.01
  11   9   7   -1.34    0.98
 -12  -9  -7  194.73   16.34
  12   9   7  168.60   14.75
  12   9   7  191.59   15.61
 -13  -9  -7   37.04    3.31
 -13  -9  -7   39.30    5.73
  13   9   7   38.57    5.09
  13   9   7   39.21    4.81
  10 -10  -7   62.05    4.68
  10 -10  -7   65.69    7.52
 -10  10   7   54.02    4.51
   9 -10  -7    8.13    3.07
   9 -10  -7   12.99    1.32
  -9  10   7   11.37    1.72
   8 -10  -7   81.41    8.72
   8 -10  -7   75.29    5.82
   7 -10  -7   72.53    5.38
   7 -10  -7   77.44    8.33
  -7  10   7   67.17    5.96
   6 -10  -7   -0.37    0.31
   6 -10  -7    0.50    1.62
  -6  10   7   -0.34    0.57
   5 -10  -7  101.53   10.52
   5 -10  -7  108.62    7.78
  -5  10   7  109.99    8.52
   4 -10  -7  112.29    7.90
   4 -10  -7  106.02   10.54
  -4  10   7  109.03    8.64
  -3  10   7    2.01    0.84
   2 -10  -7   96.39   10.27
   2 -10  -7  112.34    7.95
  -2  10   7  122.35    8.84
   1 -10  -7   14.18    3.32
   1 -10  -7   15.93    1.27
  -1  10   7   16.17    1.95
   0 -10  -7  167.87   12.03
   0 -10  -7  155.76   14.39
   0  10   7  183.79   12.93
  -1 -10  -7  307.31   24.56
  -1 -10  -7  315.77   21.92
   1  10   7  313.25   22.87
  -2 -10  -7   69.85    7.48
  -2 -10  -7   69.85    5.01
   2  10   7   69.59    5.97
  -3 -10  -7  183.06   15.38
   3  10   7  178.31   13.77
  -4 -10  -7  374.89   29.12
  -4 -10  -7  363.56   26.53
   4  10   7  397.26   27.73
  -5 -10  -7   -0.15    0.25
  -5 -10  -7   -0.64    1.19
   5  10   7    0.12    0.86
  -6 -10  -7  214.74   18.04
  -6 -10  -7  219.78   15.76
   6  10   7  232.83   17.09
  -7 -10  -7  205.62   14.60
  -7 -10  -7  202.89   16.92
   7  10   7  205.94   15.92
  -8 -10  -7   13.32    2.76
  -8 -10  -7   12.68    1.29
   8  10   7   16.52    2.85
   8  10   7   12.66    2.49
  -9 -10  -7  193.31   17.00
  -9 -10  -7  187.28   13.46
   9  10   7  197.34   15.94
   9  10   7  172.17   14.77
 -10 -10  -7   64.58    5.03
 -10 -10  -7   59.98    7.09
  10  10   7   62.90    6.37
  10  10   7   74.91    7.27
 -11 -10  -7   14.97    1.47
 -11 -10  -7    8.99    2.92
  11  10   7    9.28    2.52
  11  10   7   12.40    3.06
 -12 -10  -7   64.94    4.97
 -12 -10  -7   57.73    7.30
  12  10   7   53.19    6.72
  12  10   7   72.84    7.25
   9 -11  -7   -1.91    1.34
   9 -11  -7   -0.14    0.45
  -9  11   7   -0.64    0.33
  -9  11   7   -0.57    0.67
   8 -11  -7  170.87   11.73
  -8  11   7  152.96   12.35
   7 -11  -7  111.27   11.23
  -7  11   7  102.55    8.51
   6 -11  -7   -1.03    1.42
   6 -11  -7    0.39    0.38
  -6  11   7   -0.36    0.67
   5 -11  -7  137.32   13.10
   5 -11  -7  141.88    9.83
  -5  11   7  130.33   10.63
   4 -11  -7   40.74    2.97
   4 -11  -7   37.65    5.60
  -4  11   7   37.12    3.75
   3 -11  -7    1.19    0.32
   3 -11  -7   -0.78    1.30
  -3  11   7    0.93    0.80
   2 -11  -7   83.65    9.34
   2 -11  -7   95.93    6.75
  -2  11   7  100.52    7.75
   1 -11  -7   48.38    6.31
   1 -11  -7   56.66    4.09
  -1  11   7   57.19    4.97
   0 -11  -7   87.14    5.92
   0 -11  -7   73.55    8.44
   0  11   7   84.56    6.93
  -1 -11  -7  135.80   12.64
  -1 -11  -7  135.17    9.75
   1  11   7  144.84   10.88
  -2 -11  -7   24.14    1.86
  -2 -11  -7   23.67    4.23
   2  11   7   29.85    3.09
  -3 -11  -7   74.74    7.71
  -3 -11  -7   64.85    4.92
   3  11   7   71.99    6.18
  -4 -11  -7   91.43    9.29
   4  11   7   93.27    7.89
  -5 -11  -7    6.40    2.44
  -5 -11  -7    5.16    0.60
   5  11   7    5.74    1.54
  -6 -11  -7  126.58    9.61
  -6 -11  -7  133.96   12.25
   6  11   7  148.30   11.22
  -7 -11  -7  112.92   10.75
  -7 -11  -7  114.43    8.30
   7  11   7  118.81    9.86
  -8 -11  -7    5.58    0.79
   8  11   7    7.87    1.99
  -9 -11  -7   95.58    9.57
   9  11   7   97.42    8.76
 -10 -11  -7   41.41    3.31
 -10 -11  -7   39.46    5.36
  10  11   7   41.71    5.19
  10  11   7   40.97    4.85
 -11 -11  -7   54.65    6.91
 -11 -11  -7   59.08    4.54
  11  11   7   60.74    6.68
  11  11   7   56.12    6.08
   9 -12  -7    1.01    2.18
   9 -12  -7    0.61    0.44
  -9  12   7   -0.21    0.37
   8 -12  -7   62.34    5.10
   8 -12  -7   78.89    9.01
  -8  12   7   69.46    5.07
   7 -12  -7   77.99    9.00
   7 -12  -7   67.88    5.27
  -7  12   7   68.82    6.15
  -7  12   7   72.61    5.24
   6 -12  -7   37.34    6.01
  -6  12   7   39.37    3.91
   5 -12  -7   71.46    8.72
   5 -12  -7   74.06    5.45
  -5  12   7   77.42    6.50
   4 -12  -7    6.26    0.68
   4 -12  -7    8.40    2.94
  -4  12   7    4.75    1.31
   3 -12  -7   23.85    1.84
   3 -12  -7   26.22    4.63
  -3  12   7   22.72    2.79
   2 -12  -7   68.88    5.25
   2 -12  -7   69.80    8.04
  -2  12   7   78.01    6.30
   1 -12  -7   -0.21    1.03
   1 -12  -7    0.02    0.14
  -1  12   7    0.11    0.75
   0 -12  -7  109.59   10.81
   0 -12  -7  100.99    7.65
   0  12   7  121.07    8.97
  -1 -12  -7  132.74   11.76
  -1 -12  -7  101.92    8.25
   1  12   7  131.74    9.65
  -2 -12  -7    0.95    0.18
  -2 -12  -7   -0.70    1.34
   2  12   7    2.03    0.93
  -3 -12  -7   92.70    7.03
  -3 -12  -7  101.25   10.13
   3  12   7  112.53    8.60
  -4 -12  -7    6.79    0.60
  -4 -12  -7    8.43    2.81
   4  12   7    7.21    1.81
  -5 -12  -7   68.21    7.70
   5  12   7   66.53    6.34
  -6 -12  -7  161.43   14.65
   6  12   7  171.18   13.48
  -7 -12  -7   64.05    7.33
  -7 -12  -7   59.34    4.62
   7  12   7   72.41    6.69
  -8 -12  -7   39.25    3.13
  -8 -12  -7   40.16    5.54
   8  12   7   46.30    4.98
  -9 -12  -7  116.51   11.11
   9  12   7  109.57   10.02
 -10 -12  -7   -0.14    0.38
 -10 -12  -7    0.43    1.75
  10  12   7    0.34    1.28
   8 -13  -7   59.97    8.01
  -8  13   7   45.90    3.68
  -8  13   7   46.08    4.60
   7 -13  -7   33.33    5.77
  -7  13   7   24.52    2.21
  -7  13   7   24.98    3.01
   6 -13  -7   32.84    2.74
   6 -13  -7   39.60    6.23
  -6  13   7   37.02    3.80
   5 -13  -7   57.00    7.72
  -5  13   7   61.43    4.36
  -5  13   7   53.83    5.36
   4 -13  -7    5.58    3.14
   3 -13  -7   18.48    4.38
  -3  13   7   17.58    2.47
   2 -13  -7    9.24    3.18
  -2  13   7   12.72    2.26
   1 -13  -7   12.69    3.57
  -1  13   7   15.58    2.24
   0 -13  -7   99.44   10.61
   0  13   7  107.53    8.73
  -1 -13  -7   55.38    7.44
   1  13   7   69.03    5.96
  -2 -13  -7   21.21    4.10
   2  13   7   20.39    2.81
  -3 -13  -7  132.51   13.02
   3  13   7  138.95   11.18
  -4 -13  -7    9.68    3.50
   4  13   7    7.82    2.21
  -5 -13  -7   45.23    6.09
   5  13   7   48.38    5.10
  -6 -13  -7   90.76   10.02
   6  13   7  108.50    9.05
  -7 -13  -7   -0.03    1.04
   7  13   7    0.19    1.24
  -8 -13  -7   60.40    7.57
   8  13   7   71.56    6.93
  -9 -13  -7   83.47    9.52
   9  13   7  103.87    9.06
   7 -14  -7    1.05    2.40
   6 -14  -7   81.22    9.80
  -6  14   7   75.92    7.39
   5 -14  -7   60.71    8.22
  -5  14   7   70.03    6.67
   4 -14  -7    0.65    1.86
  -4  14   7    1.00    1.03
   3 -14  -7   69.62    8.47
  -3  14   7   58.27    6.27
   2 -14  -7    3.67    2.57
   1 -14  -7   11.48    3.39
   0 -14  -7   46.13    6.94
   0  14   7   53.66    5.20
  -1 -14  -7    6.07    2.63
   1  14   7    6.85    1.75
  -2 -14  -7   83.81    9.96
   2  14   7   97.13    8.11
  -3 -14  -7   83.93    9.84
   3  14   7   96.61    8.18
  -4 -14  -7    4.85    2.60
   4  14   7    3.72    1.38
  -5 -14  -7   86.81    9.73
   5  14   7   94.24    8.43
  -6 -14  -7   66.78    8.34
   6  14   7   77.51    7.31
  -7 -14  -7   -1.38    1.41
   7  14   7   -0.27    1.15
  -8 -14  -7   56.39    7.46
   8  14   7   71.38    7.03
   5 -15  -7   56.78    8.37
  -5  15   7   67.80    6.19
   4 -15  -7    7.07    3.37
  -4  15   7    9.58    2.15
   3 -15  -7   49.88    7.22
  -3  15   7   53.27    5.26
   2 -15  -7    0.05    1.79
  -2  15   7    0.43    0.70
   1 -15  -7   54.96    7.55
  -1  15   7   56.55    5.57
   0 -15  -7   70.40    9.04
   0  15   7   77.13    6.99
  -1 -15  -7   15.87    4.41
   1  15   7   13.35    2.63
  -2 -15  -7   56.68    7.79
   2  15   7   59.72    6.14
  -3 -15  -7   44.51    6.80
   3  15   7   46.68    5.01
  -4 -15  -7    2.76    2.31
   4  15   7    2.42    1.28
  -5 -15  -7   75.22    8.93
   5  15   7   69.27    7.16
  -6 -15  -7    6.33    2.84
   6  15   7   10.17    2.60
   2 -16  -7   -1.42    1.94
  -2  16   7    0.51    1.10
   1 -16  -7   17.36    4.84
  -1  16   7   11.01    2.44
   0 -16  -7   28.00    5.19
   0  16   7   24.16    3.37
  -1 -16  -7    3.13    2.04
   1  16   7    4.34    1.70
  -2 -16  -7   29.50    5.37
   2  16   7   29.94    3.93
  -3 -16  -7   20.11    5.12
   3  16   7   21.88    3.24
   1 -10   8   43.86    5.36
   1 -10   8   46.51    6.63
   2 -10   8    6.06    2.57
   2 -10   8    8.36    2.58
   3 -10   8   81.28    7.82
   3 -10   8   71.22    8.19
   4 -10   8   59.31    6.31
   4 -10   8   55.02    6.96
   5 -10   8   -2.53    1.58
   5 -10   8   -0.98    1.21
   6 -10   8   80.90    7.75
   6 -10   8   71.69    8.73
  -2  -9   8   50.19    5.97
  -1  -9   8   -0.11    1.34
   0  -9   8   64.76    6.78
   1  -9   8   69.32    7.50
   1  -9   8   75.66    7.33
   2  -9   8    1.43    1.68
   2  -9   8    0.50    1.29
  -3   9  -8   81.94    6.27
   3  -9   8   99.97    8.49
   3  -9   8   78.84    8.65
   4  -9   8   46.78    5.36
  -5   9  -8    3.54    0.63
   5  -9   8    3.54    2.31
  -6   9  -8   83.31    6.60
   6  -9   8   92.19    9.79
   6  -9   8  102.07    8.58
   7  -9   8    9.21    3.26
   7  -9   8    6.99    2.24
  -8   9  -8   58.52    4.95
   8  -9   8   75.52    8.58
   8  -9   8   73.51    6.68
  -9   9  -8  127.93   10.11
   9  -9   8  162.22   14.47
   4   8  -8   -0.70    0.37
  -4  -8   8    0.88    1.14
  -3  -8   8   63.02    6.84
  -2  -8   8   28.84    4.17
   1   8  -8    3.87    0.63
  -1  -8   8    3.81    1.88
   0   8  -8  159.63   11.49
   0  -8   8  162.68   13.54
  -1   8  -8   40.31    3.27
   1  -8   8   43.33    4.90
   2  -8   8   19.00    3.45
   2  -8   8   19.44    3.95
   3  -8   8  152.46   14.22
   3  -8   8  185.71   14.05
   4  -8   8   32.76    4.19
   4  -8   8   33.41    4.96
  -5   8  -8   16.41    1.59
   5  -8   8   20.62    3.85
   5  -8   8   19.79    3.12
  -6   8  -8   89.01    7.02
   6  -8   8   96.81    9.99
   6  -8   8  108.04    8.78
  -7   8  -8    2.02    0.57
   7  -8   8    4.03    1.66
   7  -8   8    3.52    2.14
   8  -8   8   92.87   10.19
   8  -8   8  101.09    8.58
  -9   8  -8   75.61    5.82
   9  -8   8   81.86    9.15
 -10   8  -8   -0.09    0.40
  10  -8   8    0.02    1.72
   5   7  -8   34.34    2.92
  -5  -7   8   40.87    5.15
   4   7  -8   10.62    1.18
  -4  -7   8    9.92    2.73
   3   7  -8   87.69    6.46
  -3  -7   8   87.43    8.42
   2   7  -8   66.66    4.96
  -2  -7   8   66.15    6.73
   1   7  -8    0.31    0.34
  -1  -7   8    3.20    1.30
  -1  -7   8    0.95    1.37
   0   7  -8  119.73    8.80
   0  -7   8  126.98   11.54
   1  -7   8   20.86    3.36
   1  -7   8   28.80    3.75
  -2   7  -8   67.47    5.06
   2  -7   8   68.06    6.91
   2  -7   8   71.57    6.81
  -3   7  -8  106.46    7.68
   3  -7   8  115.22    9.46
   3  -7   8   93.17   11.65
  -4   7  -8   20.46    1.70
   4  -7   8   16.84    2.70
   4  -7   8   20.04    3.49
  -5   7  -8   35.80    2.94
   5  -7   8   35.47    4.92
   5  -7   8   43.23    4.44
  -6   7  -8  113.29    8.68
   6  -7   8  112.42   11.15
   6  -7   8  137.51   10.29
  -7   7  -8    1.03    0.40
   7  -7   8    0.92    1.13
   7  -7   8    1.64    1.74
  -8   7  -8   87.45    6.99
   8  -7   8  101.69   10.00
   8  -7   8  100.45    8.24
  -9   7  -8   16.66    1.65
   9  -7   8   17.23    2.56
 -10   7  -8   17.49    1.74
  10  -7   8   20.93    4.25
  11  -7   8  125.04   12.63
 -12   7  -8   15.69    1.74
  12  -7   8   26.82    5.04
   6   6  -8   88.57    6.83
  -6  -6   8   97.74    9.07
   5   6  -8   42.80    3.38
  -5  -6   8   42.04    5.22
   4   6  -8   39.32    3.12
  -4  -6   8   39.16    4.86
   3   6  -8  103.20    7.36
  -3  -6   8   96.02    9.03
   2   6  -8   27.64    2.25
  -2  -6   8   27.03    3.81
   1   6  -8   34.57    2.56
  -1  -6   8   33.02    4.14
  -1  -6   8   28.50    3.45
   0   6  -8   80.69    5.62
   0  -6   8   68.67    6.73
   0  -6   8   78.88    7.19
  -1   6  -8    1.48    0.42
   1  -6   8    2.21    1.21
   1  -6   8    1.55    1.03
  -2   6  -8  103.15    7.18
   2  -6   8  102.92    8.77
   2  -6   8   89.76    8.65
  -3   6  -8   93.25    6.61
   3  -6   8   84.53    8.25
   3  -6   8   92.51    8.03
  -4   6  -8    0.63    0.38
   4  -6   8    1.11    1.11
   4  -6   8    0.14    1.15
   5  -6   8  167.18   12.46
   5  -6   8  140.69   13.01
  -6   6  -8   46.68    3.71
   6  -6   8   45.44    5.74
   6  -6   8   53.55    4.95
  -7   6  -8   12.89    1.30
   7  -6   8   13.88    2.34
   7  -6   8   13.38    3.19
  -8   6  -8  147.43   11.42
   8  -6   8  159.87   14.10
   8  -6   8  170.11   12.46
  -9   6  -8   13.68    1.47
   9  -6   8   15.89    2.30
   9  -6   8   12.65    3.42
 -10   6  -8   51.09    4.49
  10  -6   8   64.39    5.18
  10  -6   8   61.20    7.28
 -11   6  -8  135.24   10.80
  11  -6   8  168.66   14.44
 -12   6  -8    6.22    0.99
  12  -6   8    4.90    2.71
   7   5  -8    4.25    0.82
  -7  -5   8    8.43    2.53
  -6  -5   8  150.45   12.92
   5   5  -8    3.45    0.65
  -5  -5   8    4.93    1.83
   4   5  -8   28.93    2.41
   3   5  -8  118.08    8.76
  -3  -5   8  124.49   10.45
   2   5  -8    4.47    0.66
  -2  -5   8    3.99    1.56
  -2  -5   8    2.61    0.84
   1   5  -8  221.57   14.68
  -1  -5   8  182.59   15.33
  -1  -5   8  215.90   16.30
   0   5  -8  191.54   13.68
   0  -5   8  188.55   15.05
  -1   5  -8   -0.25    0.28
   1  -5   8    0.32    0.73
   1  -5   8   -0.09    0.80
  -2   5  -8  129.13    8.58
   2  -5   8  102.15    9.68
   2  -5   8  124.15   10.00
  -3   5  -8   16.96    1.41
   3  -5   8   11.54    2.41
   3  -5   8   16.47    2.39
  -4   5  -8    8.04    0.90
   4  -5   8    7.66    1.74
   4  -5   8    7.74    2.06
  -5   5  -8  247.93   17.79
   5  -5   8  268.23   19.02
   5  -5   8  235.99   19.59
  -6   5  -8    0.20    0.36
   6  -5   8    0.28    1.07
   6  -5   8    0.21    0.91
  -7   5  -8  207.85   15.64
   7  -5   8  218.06   17.93
   7  -5   8  232.35   16.62
  -8   5  -8  118.20    9.13
   8  -5   8  125.08   11.49
   8  -5   8  133.51    9.97
  -9   5  -8   10.00    1.17
   9  -5   8   10.33    2.84
   9  -5   8    8.83    1.66
 -10   5  -8   85.15    6.72
  10  -5   8   85.98    9.19
  10  -5   8   96.55    7.18
 -11   5  -8  146.62   11.03
  11  -5   8  156.77   13.97
 -12   5  -8    1.52    0.65
  12  -5   8    1.06    1.87
 -13   5  -8   86.75    7.15
  13  -5   8  108.12   10.59
   8   4  -8   -0.65    0.41
   7   4  -8   36.24    3.14
  -7  -4   8   41.94    4.95
   6   4  -8  103.59    8.02
  -6  -4   8  117.04    9.93
   5   4  -8    7.92    1.00
  -5  -4   8    6.18    2.04
   4   4  -8   81.73    6.20
  -4  -4   8   86.08    7.82
   3   4  -8   95.22    7.49
  -3  -4   8  109.55    8.98
   2   4  -8   16.52    1.48
  -2  -4   8   15.40    1.54
  -2  -4   8   16.86    2.70
   1   4  -8  326.60   20.35
  -1  -4   8  289.43   21.59
  -1  -4   8  243.33   20.45
   0   4  -8   68.74    4.73
   0  -4   8   63.97    5.95
   0  -4   8   57.45    5.25
  -1   4  -8    0.17    0.36
   1  -4   8    0.35    0.73
   1  -4   8    0.46    0.90
  -2   4  -8  227.69   15.36
   2  -4   8  191.84   16.26
   2  -4   8  229.63   16.67
  -3   4  -8   42.04    3.10
   3  -4   8   35.42    4.07
   3  -4   8   40.64    4.15
  -4   4  -8  103.82    7.51
   4  -4   8   99.44    8.84
   4  -4   8  106.08    8.66
  -5   4  -8  239.42   17.63
   5  -4   8  236.92   19.21
   5  -4   8  269.84   18.71
  -6   4  -8    1.10    0.48
   6  -4   8    0.71    1.12
   6  -4   8   -0.32    0.67
  -7   4  -8  125.04    9.30
   7  -4   8  133.41   10.07
   7  -4   8  125.25   11.20
  -8   4  -8  125.09    9.72
   8  -4   8  145.78   10.43
   8  -4   8  129.96   11.80
  -9   4  -8    2.83    0.72
   9  -4   8    4.35    1.05
   9  -4   8    3.58    1.83
 -10   4  -8  146.11   11.70
  10  -4   8  179.26   12.05
  10  -4   8  156.62   14.15
 -11   4  -8   81.23    6.49
  11  -4   8   92.86    9.22
 -12   4  -8    6.03    1.01
  12  -4   8    5.22    2.33
 -13   4  -8   87.89    7.22
  13  -4   8  107.19   10.45
 -14   4  -8    2.55    0.76
  14  -4   8    4.55    2.38
   9   3  -8   48.58    4.08
  -9  -3   8   52.18    5.75
   8   3  -8   -0.85    0.35
  -8  -3   8   -1.05    1.09
   7   3  -8  158.74   11.62
  -7  -3   8  160.46   13.38
   6   3  -8   43.66    3.56
  -6  -3   8   45.69    5.04
   5   3  -8    5.51    0.84
  -5  -3   8    6.85    2.06
   4   3  -8  187.70   13.05
  -4  -3   8  173.73   14.41
   3   3  -8  161.75   11.58
  -3  -3   8  159.88   12.97
   2   3  -8   49.93    3.58
  -2  -3   8   40.34    4.58
   1   3  -8  154.04   11.51
  -1  -3   8  145.06   12.66
  -1  -3   8  176.73   11.46
   0   3  -8    0.42    0.36
   0  -3   8    1.06    0.37
   0  -3   8    1.15    0.53
   0  -3   8    1.01    1.01
  -1   3  -8  258.89   16.74
   1  -3   8  216.37   17.22
   1  -3   8  230.81   17.84
  -2   3  -8  242.28   16.41
   2  -3   8  209.17   17.10
   2  -3   8  242.38   17.63
  -3   3  -8   32.80    2.63
   3  -3   8   33.65    3.54
   3  -3   8   32.74    3.53
  -4   3  -8  144.54   10.28
   4  -3   8  150.12   11.22
   4  -3   8  133.98   11.39
  -5   3  -8  198.85   13.99
   5  -3   8  197.37   14.82
   5  -3   8  190.55   15.36
  -6   3  -8  118.56    8.69
   6  -3   8  118.70   10.24
   6  -3   8  120.79    9.42
  -7   3  -8  180.02   13.03
   7  -3   8  174.67   14.93
   7  -3   8  188.05   13.68
  -8   3  -8   71.44    5.32
   8  -3   8   68.99    5.77
   8  -3   8   69.10    7.10
  -9   3  -8   54.94    4.59
   9  -3   8   65.17    5.00
   9  -3   8   56.70    6.46
 -10   3  -8  246.98   18.92
  10  -3   8  285.16   21.52
 -11   3  -8   52.11    4.49
  11  -3   8   65.78    7.06
  12  -3   8   45.27    5.98
 -13   3  -8  105.34    8.46
  13  -3   8  123.80   11.46
 -14   3  -8    3.01    0.83
  14  -3   8    3.59    2.32
   9   2  -8   33.30    3.04
  -9  -2   8   37.62    4.44
   8   2  -8   26.60    2.38
   7   2  -8  174.18   12.67
  -7  -2   8  169.26   13.98
   6   2  -8   47.78    3.72
  -6  -2   8   44.23    4.93
   5   2  -8   20.73    1.91
  -5  -2   8   21.82    3.03
   4   2  -8  244.58   17.18
  -4  -2   8  236.30   18.51
   3   2  -8   95.82    7.10
  -3  -2   8   98.21    8.35
   2   2  -8  127.57    9.17
  -2  -2   8  120.39   10.18
   1   2  -8  296.15   20.89
  -1  -2   8  293.36   22.07
   0   2  -8   13.86    1.29
   0  -2   8   12.57    1.10
   0  -2   8   14.95    1.50
  -1   2  -8  229.52   16.00
  -1   2  -8  221.10   15.49
   1  -2   8  204.56   15.76
   1  -2   8  214.98   16.50
  -2   2  -8  327.69   22.13
   2  -2   8  310.41   23.07
   2  -2   8  299.92   22.67
  -3   2  -8    1.80    0.39
   3  -2   8    0.82    0.63
   3  -2   8    0.12    0.69
  -4   2  -8  208.94   14.68
   4  -2   8  196.58   15.66
   4  -2   8  212.12   15.53
  -5   2  -8   16.23    1.46
   5  -2   8   14.69    2.43
   5  -2   8   15.75    2.08
  -6   2  -8   50.62    3.99
   6  -2   8   51.23    5.30
   6  -2   8   54.76    4.66
   7  -2   8  484.29   35.24
   7  -2   8  500.00   36.44
  -8   2  -8    8.47    1.12
   8  -2   8    8.89    1.42
   8  -2   8    8.07    2.29
  -9   2  -8  229.86   17.79
   9  -2   8  265.61   18.11
   9  -2   8  249.78   19.85
 -10   2  -8  134.32   10.93
  10  -2   8  164.31   11.04
  10  -2   8  149.29   13.12
 -11   2  -8   11.41    1.40
  11  -2   8   12.90    3.17
 -12   2  -8   66.75    5.24
 -13   2  -8   63.38    5.45
  13  -2   8   79.77    8.20
 -14   2  -8    9.68    1.36
  14  -2   8   11.71    3.66
  10   1  -8   70.77    5.57
 -10  -1   8   69.46    6.79
   9   1  -8   45.83    3.82
   8   1  -8   66.46    4.94
  -8  -1   8   56.73    6.13
   7   1  -8  168.08   12.35
  -7  -1   8  172.19   13.74
   6   1  -8    0.57    0.42
  -6  -1   8   -0.06    0.81
   5   1  -8   57.08    4.31
  -5  -1   8   53.40    5.44
   4   1  -8  266.71   19.24
  -4  -1   8  274.76   20.53
   3   1  -8   17.73    1.61
  -3  -1   8   18.95    2.66
   2   1  -8   92.53    6.87
  -2  -1   8   95.24    7.96
   1   1  -8  315.52   22.02
  -1  -1   8  306.10   23.08
   0   1  -8   40.84    3.06
   0  -1   8   36.62    3.86
  -1   1  -8  165.13   13.91
  -1   1  -8  204.42   13.75
   1  -1   8  213.92   13.87
   1  -1   8  186.11   14.63
  -2   1  -8  200.95   13.73
   2  -1   8  190.08   14.11
   2  -1   8  184.91   14.54
  -3   1  -8   36.51    2.80
   3  -1   8   36.51    3.56
   3  -1   8   33.59    3.34
  -4   1  -8  298.52   20.92
   4  -1   8  291.04   21.64
   4  -1   8  295.86   21.83
  -5   1  -8    6.95    0.82
   5  -1   8    7.14    1.68
   5  -1   8    7.13    1.40
  -6   1  -8  141.89    9.88
   6  -1   8  130.96   10.39
   6  -1   8  134.83   11.14
  -7   1  -8  440.36   31.17
   7  -1   8  451.54   32.74
   7  -1   8  430.31   31.59
  -8   1  -8    0.37    0.46
   8  -1   8    1.11    0.69
  -9   1  -8  268.80   19.45
   9  -1   8  275.32   21.41
 -10   1  -8  152.17   12.81
  10  -1   8  205.07   12.92
  10  -1   8  169.78   14.85
 -11   1  -8   34.99    3.04
  11  -1   8   37.70    4.95
 -12   1  -8  130.10   10.36
  12  -1   8  154.59   13.10
 -13   1  -8  117.80    9.51
  13  -1   8  140.94   12.32
 -14   1  -8   17.91    1.97
  14  -1   8   22.15    3.97
 -15   1  -8   89.55    7.85
  15  -1   8  123.31   11.36
  10   0  -8   84.85    6.59
   9   0  -8   14.61    1.69
  -9   0   8   16.53    2.77
   8   0  -8   76.39    5.74
  -8   0   8   71.32    6.82
   7   0  -8  141.34   10.37
  -7   0   8  141.84   11.58
   6   0  -8    0.82    0.46
  -6   0   8   -0.09    0.59
   5   0  -8   92.07    6.90
  -5   0   8   93.99    8.02
   4   0  -8  118.78    8.74
  -4   0   8  121.54    9.90
   3   0  -8   11.09    1.16
  -3   0   8   10.17    2.03
   2   0  -8  275.78   19.47
  -2   0   8  272.94   20.53
   1   0  -8  232.18   16.10
  -1   0   8  219.62   17.05
   0   0  -8   33.72    2.61
   0   0   8   31.34    3.40
  -1   0  -8  324.04   23.09
   1   0   8  300.94   23.87
   1   0   8  351.35   23.07
  -2   0  -8    7.19    0.79
   2   0   8    5.12    1.35
   2   0   8    7.86    1.05
  -3   0  -8  207.01   14.62
   3   0   8  192.05   15.27
   3   0   8  214.72   15.19
  -4   0  -8   88.14    6.41
   4   0   8   79.64    6.97
   4   0   8   93.11    7.22
  -5   0  -8   19.52    1.80
   5   0   8   20.31    2.28
   5   0   8   22.33    2.63
  -6   0  -8  468.94   32.64
   6   0   8  474.08   33.89
   6   0   8  444.24   33.11
  -7   0  -8  502.33   36.24
   7   0   8  501.25   37.63
   7   0   8  537.19   36.69
  -8   0  -8   56.82    4.48
   8   0   8   59.57    4.74
   8   0   8   55.07    5.83
  -9   0  -8  269.80   20.40
   9   0   8  303.02   22.36
 -10   0  -8  106.88    8.95
  10   0   8  118.29   10.81
  10   0   8  136.79    9.04
 -11   0  -8   27.44    2.87
  11   0   8   34.17    4.60
  11   0   8   39.17    2.79
 -12   0  -8  113.18    9.09
  12   0   8  134.31   11.58
 -13   0  -8    5.46    1.04
  13   0   8    9.01    2.80
 -14   0  -8   41.76    3.87
  14   0   8   52.58    6.52
 -15   0  -8  124.39   10.02
  15   0   8  144.22   13.14
  10  -1  -8   74.19    5.70
 -10   1   8   69.34    6.58
   9  -1  -8    6.49    1.02
  -9   1   8    4.67    1.44
  -8   1   8   59.24    5.72
   7  -1  -8   60.82    4.81
  -7   1   8   62.99    5.86
   6  -1  -8   78.36    5.76
  -6   1   8   73.14    6.75
   5  -1  -8  286.70   20.08
  -5   1   8  277.02   21.14
   4  -1  -8  182.96   13.85
  -4   1   8  207.69   15.57
  -3   1   8   14.68    2.11
   2  -1  -8  206.26   14.47
  -2   1   8  199.09   15.40
   1  -1  -8   18.95    1.64
  -1   1   8   18.95    2.40
   0  -1  -8  110.07    7.99
   0   1   8  110.66    8.80
  -1  -1  -8  515.68   35.06
   1   1   8  476.96   35.79
   1   1   8  501.09   34.99
  -2  -1  -8    0.17    0.24
  -2  -1  -8   -0.05    0.32
   2   1   8    0.86    0.69
   2   1   8    0.34    0.34
  -3  -1  -8  332.06   23.45
   3   1   8  294.51   24.01
   3   1   8  366.58   24.02
  -4  -1  -8  417.33   28.88
   4   1   8  384.59   29.42
   4   1   8  424.96   29.62
  -5  -1  -8   40.78    3.18
   5   1   8   38.24    3.63
   5   1   8   41.85    4.01
  -6  -1  -8  155.93   11.09
   6   1   8  150.51   11.53
   6   1   8  153.77   12.17
  -7  -1  -8   50.54    4.18
   7   1   8   56.91    5.39
   7   1   8   55.58    4.59
  -8  -1  -8  350.33   25.43
   8   1   8  373.86   25.70
   8   1   8  349.04   26.88
  -9  -1  -8  970.95   67.94
   9   1   8  962.88   69.67
 -10  -1  -8  195.37   15.28
  10   1   8  238.28   15.40
  10   1   8  198.35   17.00
 -11  -1  -8   42.13    3.79
  11   1   8   49.11    3.77
  11   1   8   50.22    5.72
 -12  -1  -8   64.32    5.45
  12   1   8   77.23    7.71
 -13  -1  -8    1.17    0.54
  13   1   8    1.24    1.63
 -14  -1  -8   93.67    7.79
  14   1   8  112.63   10.53
 -15  -1  -8   99.45    8.54
  15   1   8  128.85   11.64
 -11   2   8   60.28    5.74
  10  -2  -8   20.50    2.14
 -10   2   8   21.16    2.84
   9  -2  -8   59.72    4.81
  -9   2   8   61.30    5.79
   8  -2  -8  220.91   15.70
  -8   2   8  212.54   16.66
   7  -2  -8   54.01    4.08
   7  -2  -8   47.61    3.99
  -7   2   8   46.61    4.83
   6  -2  -8   49.47    3.95
   6  -2  -8   51.33    3.90
  -6   2   8   49.04    4.82
   5  -2  -8  244.67   17.05
  -5   2   8  228.63   17.01
  -5   2   8  244.98   18.11
   4  -2  -8    1.25    0.48
  -4   2   8    1.78    0.89
   3  -2  -8  335.94   22.93
  -3   2   8  311.12   23.79
   2  -2  -8  297.30   20.33
  -2   2   8  275.96   21.14
   1  -2  -8    8.14    0.80
  -1   2   8    5.44    1.33
   0  -2  -8  328.79   20.15
   0  -2  -8  240.32   19.97
   0   2   8  289.69   20.88
   1   2   8  363.64   26.36
  -2  -2  -8    1.64    0.41
  -2  -2  -8    0.98    0.41
   2   2   8    1.45    0.48
   2   2   8    1.26    0.63
  -3  -2  -8  288.18   21.35
   3   2   8  335.74   21.93
   3   2   8  280.13   21.90
  -4  -2  -8  169.26   12.47
   4   2   8  190.11   13.24
   4   2   8  162.36   12.97
  -5  -2  -8  189.40   13.80
   5   2   8  181.70   14.26
   5   2   8  207.28   14.74
  -6  -2  -8  321.87   22.62
   6   2   8  327.67   23.70
   6   2   8  306.53   23.01
  -7  -2  -8   30.94    2.46
   7   2   8   26.26    3.37
   7   2   8   29.43    2.76
  -8  -2  -8   99.69    7.46
   8   2   8   96.08    8.73
   8   2   8  104.71    7.72
  -9  -2  -8  477.81   35.17
   9   2   8  531.54   35.39
   9   2   8  480.99   36.75
 -10  -2  -8   45.43    4.07
  10   2   8   49.52    5.50
  10   2   8   60.08    5.01
 -11  -2  -8  224.87   17.79
  11   2   8  244.55   19.75
  11   2   8  270.12   17.92
 -12  -2  -8  103.40    8.20
  12   2   8  115.35   10.27
 -13  -2  -8    0.80    0.64
  13   2   8    0.95    1.54
 -14  -2  -8   66.09    5.48
  14   2   8   70.45    7.75
 -15  -2  -8   27.22    2.74
  15   2   8   28.42    4.80
  11  -3  -8  113.87    8.64
  10  -3  -8    0.56    0.59
 -10   3   8    0.75    1.04
   9  -3  -8   43.15    3.99
   9  -3  -8   46.39    3.69
  -9   3   8   45.02    4.51
   8  -3  -8  240.03   16.32
   8  -3  -8  216.78   16.54
  -8   3   8  222.86   17.22
   7  -3  -8   66.16    4.86
  -7   3   8   58.56    5.62
   6  -3  -8   41.05    3.64
   6  -3  -8   49.29    3.58
  -6   3   8   47.22    4.42
   5  -3  -8  361.24   26.77
   5  -3  -8  410.74   26.76
  -5   3   8  356.77   27.17
  -5   3   8  385.19   27.63
   4  -3  -8    0.89    0.42
   4  -3  -8    0.64    0.31
  -4   3   8    0.34    0.68
   3  -3  -8  120.67    9.86
   3  -3  -8  155.61    9.99
  -3   3   8  142.88   10.77
   2  -3  -8  280.15   18.33
  -2   3   8  235.35   18.97
   1  -3  -8    0.16    0.19
   1  -3  -8    0.42    0.22
   1  -3  -8    0.38    0.33
  -1   3   8    0.21    0.56
   0  -3  -8   94.32    7.53
   0  -3  -8  105.05    7.16
   0   3   8   96.41    7.79
  -1  -3  -8  178.51   13.51
  -1  -3  -8  203.92   13.33
   1   3   8  178.69   13.90
  -2  -3  -8   58.66    4.25
   2   3   8   58.89    4.55
   2   3   8   51.71    4.76
  -3  -3  -8  322.95   23.34
   3   3   8  301.97   23.84
   3   3   8  364.59   23.93
  -4  -3  -8    7.86    0.92
   4   3   8    8.05    1.34
   4   3   8    6.91    1.30
  -5  -3  -8  284.19   20.18
   5   3   8  292.12   21.08
   5   3   8  276.03   20.64
  -6  -3  -8  182.79   13.48
   6   3   8  190.21   13.92
   6   3   8  190.30   14.53
  -7  -3  -8   25.97    2.33
   7   3   8   26.09    2.61
   7   3   8   30.26    3.39
  -8  -3  -8  169.04   12.64
   8   3   8  169.33   13.90
   8   3   8  184.36   12.95
  -9  -3  -8  285.72   21.10
   9   3   8  316.59   21.39
   9   3   8  282.95   22.55
 -10  -3  -8   54.70    4.59
  10   3   8   57.14    6.00
  10   3   8   61.77    4.83
 -11  -3  -8  159.74   12.45
  11   3   8  173.01   14.30
  11   3   8  178.06   12.69
 -12  -3  -8   24.24    2.43
  12   3   8   28.00    4.06
 -13  -3  -8   89.61    7.22
  13   3   8   98.95    9.38
 -14  -3  -8  112.87    9.06
  14   3   8  127.83   11.45
 -15  -3  -8   23.23    2.47
  15   3   8   27.55    4.63
  11  -4  -8   51.38    4.27
  10  -4  -8    5.19    1.01
 -10   4   8    6.31    1.57
   9  -4  -8  108.45    8.17
  -9   4   8  109.80    8.97
   8  -4  -8   30.44    3.19
   8  -4  -8   32.53    2.75
  -8   4   8   33.36    3.54
   7  -4  -8    1.36    0.72
   7  -4  -8    3.41    0.63
  -7   4   8    2.41    1.10
   6  -4  -8  206.16   16.29
   6  -4  -8  228.21   15.56
   5  -4  -8  271.81   18.35
   5  -4  -8  237.52   18.70
  -5   4   8  265.11   19.15
   4  -4  -8   51.47    3.74
   4  -4  -8   44.96    4.10
  -4   4   8   50.34    4.42
   3  -4  -8  133.11   10.50
   3  -4  -8  151.47   10.10
  -3   4   8  136.32   10.75
   2  -4  -8   78.83    6.70
  -2   4   8   95.26    7.04
   1  -4  -8   88.91    6.09
  -1   4   8   76.80    6.65
   0  -4  -8  100.91    7.16
   0  -4  -8   93.54    7.84
   0  -4  -8  110.24    7.51
   0   4   8   88.80    7.69
  -1  -4  -8   18.02    2.12
  -1  -4  -8   16.70    1.45
   1   4   8   15.71    1.88
  -2  -4  -8  375.53   25.09
   2   4   8  357.91   25.49
   2   4   8  332.67   25.62
  -3  -4  -8  692.67   45.73
   3   4   8  609.09   46.23
  -4  -4  -8   23.44    2.03
   4   4   8   22.62    2.48
   4   4   8   27.39    2.73
  -5  -4  -8  357.09   25.54
   5   4   8  351.80   26.01
   5   4   8  374.17   26.50
  -6  -4  -8  147.59   11.03
   6   4   8  157.37   12.12
   6   4   8  152.78   11.47
  -7  -4  -8   39.37    3.21
   7   4   8   41.30    4.31
   7   4   8   38.79    3.53
  -8  -4  -8  477.40   34.86
   8   4   8  500.62   36.48
   8   4   8  501.08   35.21
  -9  -4  -8  245.67   18.66
   9   4   8  270.45   19.03
   9   4   8  265.67   20.23
 -10  -4  -8  102.26    7.87
  10   4   8  108.54    8.22
  10   4   8  104.76    9.38
 -11  -4  -8  290.13   22.38
  11   4   8  326.79   22.80
  11   4   8  321.89   24.28
 -12  -4  -8   76.47    5.74
  12   4   8   68.81    7.35
  12   4   8   72.39    6.02
 -13  -4  -8   26.10    2.60
  13   4   8   30.97    4.23
 -14  -4  -8   76.79    6.12
  14   4   8   77.63    8.21
 -15  -4  -8    1.04    0.59
  15   4   8    0.84    1.50
  11  -5  -8   50.92    4.22
  10  -5  -8   -0.99    0.96
  10  -5  -8   -0.15    0.36
 -10   5   8   -0.18    0.80
   9  -5  -8   69.52    5.47
   9  -5  -8   72.54    6.42
  -9   5   8   69.43    6.09
   8  -5  -8   77.45    5.61
  -8   5   8   68.29    6.22
   7  -5  -8   12.10    1.25
   7  -5  -8   10.02    1.89
  -7   5   8    9.85    1.85
   6  -5  -8  330.90   24.12
   6  -5  -8  348.00   23.25
  -6   5   8  302.18   23.94
   5  -5  -8   39.10    3.08
   5  -5  -8   40.51    3.89
  -5   5   8   36.51    3.68
   4  -5  -8   70.08    5.49
  -4   5   8   73.98    6.03
   3  -5  -8  226.59   18.60
   3  -5  -8  285.08   17.89
  -3   5   8  243.74   18.49
   2  -5  -8   12.42    1.12
   2  -5  -8   10.97    1.77
  -2   5   8   11.68    1.56
   1  -5  -8  206.36   13.13
   1  -5  -8  162.55   14.01
  -1   5   8  183.28   13.72
   0  -5  -8  465.29   35.56
   0  -5  -8  538.41   34.58
   0   5   8  471.22   35.15
  -1  -5  -8    9.34    0.90
   1   5   8    8.19    1.33
  -2  -5  -8  289.60   19.17
   2   5   8  251.44   19.69
  -3  -5  -8    2.53    0.52
  -3  -5  -8    3.10    1.12
   3   5   8    3.44    0.92
   3   5   8    3.51    0.97
  -4  -5  -8  134.47   10.00
  -4  -5  -8  163.53   11.29
   4   5   8  127.20   10.48
   4   5   8  132.10   10.75
  -5  -5  -8  604.79   42.28
   5   5   8  570.41   42.75
   5   5   8  627.79   43.34
  -6  -5  -8  107.37    8.10
   6   5   8  113.20    9.23
   6   5   8  111.19    8.58
  -7  -5  -8  198.40   15.07
   7   5   8  226.45   16.48
   7   5   8  206.74   15.53
  -8  -5  -8  482.94   35.05
   8   5   8  502.04   36.34
   8   5   8  494.88   35.32
  -9  -5  -8   43.48    3.72
   9   5   8   47.50    5.10
   9   5   8   48.14    4.19
 -10  -5  -8   65.47    5.15
  10   5   8   63.48    6.49
  10   5   8   68.60    5.64
 -11  -5  -8  118.11    9.07
  11   5   8  122.19   10.73
  11   5   8  124.64    9.60
 -12  -5  -8   -0.24    0.50
  12   5   8    0.30    1.57
  12   5   8   -0.66    0.80
 -13  -5  -8  126.37    9.76
  13   5   8  134.00   11.79
 -14  -5  -8  106.49    8.58
  14   5   8  120.08   10.79
  11  -6  -8   40.13    3.45
  10  -6  -8   24.45    2.32
   9  -6  -8  108.14    9.15
   9  -6  -8  101.83    7.79
  -9   6   8  102.88    8.36
   8  -6  -8   47.14    4.98
   8  -6  -8   45.91    3.76
  -8   6   8   49.11    4.39
   7  -6  -8   50.00    3.82
   7  -6  -8   49.92    4.99
  -7   6   8   45.07    4.36
   6  -6  -8  229.69   18.13
   6  -6  -8  234.72   16.92
  -6   6   8  248.00   18.07
   5  -6  -8   38.59    4.17
   5  -6  -8   43.11    3.15
  -5   6   8   37.15    3.68
   4  -6  -8  103.34    8.80
  -4   6   8  106.67    8.27
   3  -6  -8  137.14   12.20
   3  -6  -8  168.64   11.14
  -3   6   8  159.71   11.78
   2  -6  -8    3.82    0.56
   2  -6  -8    2.44    1.17
  -2   6   8    2.87    0.90
   1  -6  -8  389.71   24.27
   1  -6  -8  292.87   25.42
  -1   6   8  347.55   24.87
   0  -6  -8  417.22   28.49
   0  -6  -8  395.37   29.81
   0   6   8  401.90   29.11
  -1  -6  -8    2.37    1.13
  -1  -6  -8    2.36    0.43
   1   6   8    2.17    0.80
  -2  -6  -8  746.64   51.39
   2   6   8  678.06   50.50
  -3  -6  -8   53.27    4.16
  -3  -6  -8   64.60    5.59
   3   6   8   53.63    4.88
   3   6   8   54.01    4.74
  -4  -6  -8  139.92   10.73
  -4  -6  -8  127.02    9.32
   4   6   8  130.21   10.25
   4   6   8  120.44    9.84
  -5  -6  -8  299.63   21.02
  -5  -6  -8  275.73   19.56
   5   6   8  277.83   20.66
   5   6   8  249.17   20.04
  -6  -6  -8  117.67    8.41
   6   6   8  105.41    8.88
   6   6   8  121.85    9.68
  -7  -6  -8  425.64   29.77
   7   6   8  425.35   32.14
   7   6   8  411.52   30.29
  -8  -6  -8  374.73   29.28
   8   6   8  415.00   29.73
   8   6   8  444.83   30.83
  -9  -6  -8    1.26    0.60
   9   6   8    1.27    1.27
   9   6   8    2.22    0.86
 -10  -6  -8   77.43    6.24
  10   6   8   82.26    7.82
  10   6   8   86.48    6.90
 -11  -6  -8   42.72    3.46
  11   6   8   40.26    4.26
  11   6   8   39.07    4.77
 -12  -6  -8   -0.32    0.47
  12   6   8   -0.38    0.91
  12   6   8   -0.26    0.66
 -13  -6  -8  140.90   10.04
  13   6   8  122.76   10.54
  13   6   8  135.61   11.96
 -14  -6  -8   26.87    2.61
  14   6   8   25.48    4.16
  10  -7  -8   33.94    4.31
  10  -7  -8   32.91    2.75
 -10   7   8   27.15    3.03
   9  -7  -8  120.76   10.31
   9  -7  -8  115.79    8.63
  -9   7   8  113.13    9.10
   8  -7  -8   24.81    3.68
   8  -7  -8   26.34    2.32
  -8   7   8   27.76    2.87
   7  -7  -8  176.41   12.97
   7  -7  -8  178.41   14.58
  -7   7   8  185.30   13.62
   6  -7  -8  110.46    9.50
   6  -7  -8  106.82    7.94
   5  -7  -8    1.51    0.41
   5  -7  -8    0.61    1.06
  -5   7   8    0.69    0.60
   4  -7  -8  173.04   14.92
   4  -7  -8  199.13   13.46
  -4   7   8  191.87   14.10
   3  -7  -8  171.76   11.63
   3  -7  -8  144.03   13.12
  -3   7   8  170.47   12.29
   2  -7  -8    4.99    1.76
   2  -7  -8    6.72    0.75
  -2   7   8    7.82    1.29
   1  -7  -8  247.36   20.47
   1  -7  -8  282.40   18.89
  -1   7   8  270.24   19.52
   0  -7  -8  278.74   19.11
   0  -7  -8  260.12   20.69
   0   7   8  272.30   19.76
  -1  -7  -8  143.83   10.01
  -1  -7  -8  136.36   11.55
   1   7   8  139.90   10.66
  -2  -7  -8   77.40    5.88
  -2  -7  -8   86.24    7.52
   2   7   8   81.33    6.55
  -3  -7  -8   19.15    2.84
  -3  -7  -8   15.20    1.40
   3   7   8   16.60    2.02
  -4  -7  -8  209.14   14.66
  -4  -7  -8  176.63   12.84
   4   7   8  170.19   13.83
   4   7   8  166.83   13.44
  -5  -7  -8  349.79   25.30
  -5  -7  -8  344.15   23.68
   5   7   8  315.58   24.28
   5   7   8  328.55   24.86
  -6  -7  -8   10.31    1.10
   6   7   8    8.73    1.48
  -7  -7  -8  391.33   27.95
  -7  -7  -8  373.36   26.19
   7   7   8  367.23   27.67
   7   7   8  347.10   26.80
  -8  -7  -8  190.62   13.75
   8   7   8  172.28   14.17
   8   7   8  202.84   15.30
  -9  -7  -8   17.28    1.81
   9   7   8   18.63    2.75
   9   7   8   21.83    3.09
 -10  -7  -8   94.44    7.04
  10   7   8   98.34    8.77
  10   7   8   86.93    7.75
 -11  -7  -8   38.72    3.13
  11   7   8   32.14    3.73
  11   7   8   36.84    4.51
 -12  -7  -8   63.68    5.12
  12   7   8   64.77    6.89
  12   7   8   64.79    5.96
 -13  -7  -8  150.68   10.82
  13   7   8  135.27   11.65
  13   7   8  149.26   12.81
 -14  -7  -8    5.39    1.05
  14   7   8    3.91    2.00
  10  -8  -8   37.63    3.19
   9  -8  -8   42.33    3.55
   9  -8  -8   45.83    5.43
   8  -8  -8   -0.07    0.42
   8  -8  -8   -1.32    0.84
  -8   8   8    0.00    0.66
   7  -8  -8  108.70   10.27
   7  -8  -8  118.20    8.48
  -7   8   8  119.07    9.11
   6  -8  -8  153.06   10.99
   6  -8  -8  146.63   13.07
  -6   8   8  156.40   11.64
   5  -8  -8    4.09    0.65
   5  -8  -8    1.78    1.56
  -5   8   8    4.72    1.14
   4  -8  -8  144.99   10.30
   4  -8  -8  141.64   12.33
   3  -8  -8   51.00    3.90
   3  -8  -8   56.19    5.91
  -3   8   8   50.63    4.50
   2  -8  -8   66.98    7.33
   2  -8  -8   79.07    5.55
  -2   8   8   79.35    6.22
   1  -8  -8  128.29    8.42
   1  -8  -8   98.34   10.04
  -1   8   8  121.93    9.11
   0  -8  -8   31.28    2.27
   0  -8  -8   24.59    3.67
   0   8   8   30.05    2.93
  -1  -8  -8  439.14   31.85
  -1  -8  -8  411.32   29.80
   1   8   8  424.52   30.53
  -2  -8  -8  315.66   24.50
  -2  -8  -8  320.99   22.56
   2   8   8  324.14   23.32
  -3  -8  -8    0.16    0.86
  -3  -8  -8   -0.31    0.24
   3   8   8    0.74    0.68
  -4  -8  -8  178.90   14.38
  -4  -8  -8  173.93   12.48
   4   8   8  172.53   13.24
  -5  -8  -8   64.39    7.28
  -5  -8  -8   66.69    4.92
   5   8   8   64.58    6.06
   5   8   8   66.80    6.88
  -6  -8  -8  127.26   10.61
  -6  -8  -8  121.39    8.83
   6   8   8  126.13   10.33
   6   8   8  110.28    9.89
  -7  -8  -8  646.71   45.05
  -7  -8  -8  650.13   46.96
   7   8   8  665.85   46.81
   7   8   8  598.47   45.81
  -8  -8  -8   47.98    5.61
  -8  -8  -8   51.02    4.02
   8   8   8   57.30    5.65
   8   8   8   48.62    4.78
  -9  -8  -8   95.55    7.37
  -9  -8  -8  108.03    9.48
   9   8   8  100.60    9.09
   9   8   8   94.04    8.21
 -10  -8  -8  138.38   10.28
 -10  -8  -8  147.23   12.52
  10   8   8  132.26   11.16
  10   8   8  143.25   12.16
 -11  -8  -8   61.14    6.83
 -11  -8  -8   54.86    4.53
  11   8   8   62.23    6.43
  11   8   8   52.09    5.40
 -12  -8  -8  118.37   10.95
  12   8   8  110.87   10.15
  12   8   8   97.98    9.10
 -13  -8  -8   83.96    8.93
 -13  -8  -8   70.83    5.85
  13   8   8   77.58    7.90
  13   8   8   69.06    6.93
  10  -9  -8   55.30    6.63
  10  -9  -8   54.63    4.37
   9  -9  -8   37.54    3.04
   9  -9  -8   34.81    4.88
  -9   9   8   36.27    3.49
   8  -9  -8   33.48    2.73
   8  -9  -8   30.54    4.79
  -8   9   8   32.99    3.22
   7  -9  -8  146.56   12.48
   7  -9  -8  137.54    9.98
  -7   9   8  130.18   10.55
   6  -9  -8   59.64    4.46
   6  -9  -8   55.55    6.58
  -6   9   8   59.63    5.08
   5  -9  -8   47.37    5.99
   5  -9  -8   54.96    4.00
  -5   9   8   53.16    4.63
   4  -9  -8  182.06   16.86
   4  -9  -8  186.75   13.42
  -4   9   8  194.89   14.14
   3  -9  -8   36.43    4.99
   3  -9  -8   40.28    2.99
  -3   9   8   39.39    3.65
   2  -9  -8   89.06    6.39
   2  -9  -8   79.39    8.42
  -2   9   8   94.56    7.15
   1  -9  -8  119.69   11.78
   1  -9  -8  146.41    9.83
  -1   9   8  143.29   10.59
   0  -9  -8   17.16    3.20
   0  -9  -8   17.43    1.49
   0   9   8   21.08    2.27
  -1  -9  -8  314.83   21.84
  -1  -9  -8  293.10   24.00
   1   9   8  321.57   22.68
  -2  -9  -8  388.59   29.06
  -2  -9  -8  433.56   31.50
   2   9   8  423.25   29.93
  -3  -9  -8   28.36    2.33
  -3  -9  -8   29.69    5.98
   3   9   8   34.39    3.26
  -4  -9  -8  307.53   23.59
  -4  -9  -8  299.34   21.32
   4   9   8  300.49   22.23
  -5  -9  -8   16.68    1.51
  -5  -9  -8   16.79    2.98
   5   9   8   18.25    2.39
  -6  -9  -8  150.60   11.06
  -6  -9  -8  161.47   13.19
   6   9   8  155.25   12.71
   6   9   8  149.49   11.97
  -7  -9  -8  269.84   22.04
  -7  -9  -8  286.18   20.08
   7   9   8  280.72   21.08
   7   9   8  293.06   21.96
  -8  -9  -8   73.94    5.49
  -8  -9  -8   72.92    7.41
   8   9   8   65.72    6.37
   8   9   8   77.57    7.34
  -9  -9  -8   40.93    5.15
  -9  -9  -8   40.30    3.33
   9   9   8   43.04    5.08
   9   9   8   40.73    4.34
 -10  -9  -8  128.28   12.58
 -10  -9  -8  121.69    8.93
  10   9   8  131.90   13.75
  10   9   8  107.74    9.91
 -11  -9  -8    4.42    0.86
 -11  -9  -8    3.73    2.13
  11   9   8    2.55    1.48
  11   9   8    2.46    1.79
 -12  -9  -8  143.78   10.68
 -12  -9  -8  150.68   13.32
  12   9   8  128.68   11.55
  12   9   8  141.77   12.54
 -13  -9  -8   36.95    5.57
 -13  -9  -8   34.64    3.05
  13   9   8   30.52    4.64
  13   9   8   31.57    4.22
   9 -10  -8   26.12    2.20
   9 -10  -8   22.96    4.24
  -9  10   8   22.68    2.63
   8 -10  -8    1.10    0.47
   8 -10  -8    1.46    2.04
  -8  10   8    2.03    0.86
   7 -10  -8   57.10    4.40
   7 -10  -8   61.25    7.04
  -7  10   8   55.56    5.00
   6 -10  -8    2.12    1.79
   6 -10  -8    1.35    0.45
  -6  10   8    2.53    0.90
   5 -10  -8  122.22    8.58
   5 -10  -8  106.01   11.10
  -5  10   8  123.67    9.34
   4 -10  -8   80.94    8.62
   4 -10  -8   85.24    6.01
  -4  10   8   78.89    6.70
   3 -10  -8    2.78    0.50
   3 -10  -8    2.91    2.05
  -3  10   8    3.03    0.92
   2 -10  -8  154.94   10.68
   2 -10  -8  134.27   13.06
  -2  10   8  157.12   11.52
   1 -10  -8   58.75    7.16
   1 -10  -8   70.25    5.07
  -1  10   8   78.68    5.96
   0 -10  -8   14.16    3.27
   0 -10  -8   13.35    1.13
   0  10   8   13.37    1.79
  -1 -10  -8   90.69    6.38
  -1 -10  -8   84.66    8.62
   1  10   8   89.82    7.25
  -2 -10  -8    2.13    1.80
  -2 -10  -8    1.05    0.31
   2  10   8    1.28    0.90
  -3 -10  -8  277.62   21.09
  -3 -10  -8  241.86   18.30
   3  10   8  265.25   19.34
  -4 -10  -8  360.53   26.11
  -4 -10  -8  380.33   28.73
   4  10   8  375.03   27.20
  -5 -10  -8   48.11    3.66
  -5 -10  -8   45.28    5.72
   5  10   8   53.19    4.80
  -6 -10  -8  209.72   15.12
  -6 -10  -8  209.58   17.46
   6  10   8  219.27   16.33
  -7 -10  -8  141.45   10.19
  -7 -10  -8  131.97   12.26
   7  10   8  155.36   12.29
   7  10   8  136.36   11.34
  -8 -10  -8    4.08    0.79
  -8 -10  -8    3.25    1.76
   8  10   8    3.66    1.84
   8  10   8    4.22    1.50
  -9 -10  -8   61.74    5.02
   9  10   8   87.44   10.38
   9  10   8   63.14    6.22
 -10 -10  -8   87.26    8.98
 -10 -10  -8   86.38    6.66
  10  10   8   83.70    7.90
  10  10   8   98.67    8.97
 -11 -10  -8   21.96    4.12
 -11 -10  -8   21.68    2.08
  11  10   8   22.68    3.27
  11  10   8   24.18    3.95
 -12 -10  -8  146.54   13.88
  12  10   8  154.70   13.35
   9 -11  -8   -0.26    2.05
   9 -11  -8   -0.33    0.42
  -9  11   8   -1.14    0.63
   8 -11  -8   62.24    4.65
  -8  11   8   57.98    5.27
   7 -11  -8  102.16    7.60
   7 -11  -8  108.30   10.92
  -7  11   8  101.93    8.35
   6 -11  -8    3.43    2.33
   6 -11  -8    4.27    0.68
  -6  11   8    3.37    1.17
   5 -11  -8  104.97    7.42
   5 -11  -8   96.12   10.34
  -5  11   8  102.27    8.24
   4 -11  -8  104.13    7.63
   4 -11  -8  103.66   10.62
  -4  11   8  108.79    8.51
   3 -11  -8   26.06    2.07
   3 -11  -8   23.53    4.39
  -3  11   8   27.99    2.91
   2 -11  -8  224.86   15.66
   2 -11  -8  205.37   18.48
  -2  11   8  231.91   16.62
   1 -11  -8   44.39    3.27
   1 -11  -8   37.91    5.56
  -1  11   8   48.60    4.24
   0 -11  -8   84.20    5.94
   0 -11  -8   75.51    8.44
   0  11   8   86.63    6.95
  -1 -11  -8  195.22   16.77
  -1 -11  -8  191.37   13.82
   1  11   8  202.85   14.91
  -2 -11  -8  112.91   10.80
  -2 -11  -8  112.21    7.96
   2  11   8  110.91    9.04
  -3 -11  -8   67.15    7.59
  -3 -11  -8   67.63    4.97
   3  11   8   72.78    6.12
  -4 -11  -8  138.66   12.52
  -4 -11  -8  128.49    9.79
   4  11   8  151.16   11.14
  -5 -11  -8   12.72    1.13
  -5 -11  -8   12.38    3.09
   5  11   8   12.64    2.02
  -6 -11  -8  121.59   11.59
  -6 -11  -8  128.45    9.17
   6  11   8  133.44   10.54
  -7 -11  -8  105.11    7.67
  -7 -11  -8  111.00   10.29
   7  11   8  102.24    8.97
  -8 -11  -8    0.22    1.02
   8  11   8    0.01    0.89
  -9 -11  -8   99.71    9.79
  -9 -11  -8   98.89    7.35
   9  11   8  101.23    8.88
 -10 -11  -8   18.64    1.76
 -10 -11  -8   15.54    3.80
  10  11   8   20.09    3.91
  10  11   8   22.07    3.78
 -11 -11  -8   30.68    2.55
 -11 -11  -8   23.51    4.57
  11  11   8   29.29    3.90
  11  11   8   29.78    4.53
   8 -12  -8  109.94   10.92
  -8  12   8   85.48    7.66
   7 -12  -8   35.93    5.87
   7 -12  -8   34.37    2.80
  -7  12   8   35.03    3.56
   6 -12  -8    5.94    2.99
   6 -12  -8    7.62    0.89
  -6  12   8    7.24    1.55
   5 -12  -8   77.12    8.91
  -5  12   8   73.52    6.42
   4 -12  -8    8.38    3.08
   4 -12  -8    8.43    0.91
  -4  12   8   10.44    1.69
   3 -12  -8   60.00    4.32
   3 -12  -8   52.64    7.07
  -3  12   8   61.28    5.30
   2 -12  -8  130.18    9.25
   2 -12  -8  118.56   12.21
  -2  12   8  139.49   10.38
   1 -12  -8    3.50    1.91
   1 -12  -8    2.93    0.40
  -1  12   8    3.31    1.15
   0 -12  -8  126.63   11.46
   0 -12  -8  107.77    8.26
  -1 -12  -8   67.49    5.14
  -1 -12  -8   74.80    8.12
   1  12   8   78.68    6.40
  -2 -12  -8    0.76    0.19
  -2 -12  -8    0.21    1.02
   2  12   8    1.14    0.97
  -3 -12  -8   84.68    8.66
  -3 -12  -8   67.56    5.40
   3  12   8   85.18    6.84
  -4 -12  -8   80.46    8.79
   4  12   8   84.54    7.26
  -5 -12  -8   17.69    1.43
  -5 -12  -8   14.97    3.74
   5  12   8   21.19    2.87
  -6 -12  -8  154.28   11.68
  -6 -12  -8  160.70   14.58
   6  12   8  184.86   13.47
  -7 -12  -8   27.83    2.30
  -7 -12  -8   29.56    4.49
   7  12   8   34.07    3.94
  -8 -12  -8   26.18    2.15
  -8 -12  -8   25.70    4.39
   8  12   8   26.98    3.68
  -9 -12  -8   92.62    6.76
  -9 -12  -8   87.83    9.35
   9  12   8   95.13    8.52
 -10 -12  -8   10.30    1.16
 -10 -12  -8   11.03    3.09
  10  12   8    9.31    2.32
   7 -13  -8   15.57    4.19
   7 -13  -8   17.68    1.56
  -7  13   8   16.89    2.44
   6 -13  -8    5.08    3.06
   6 -13  -8    4.45    0.64
  -6  13   8    4.30    1.32
   5 -13  -8   82.31    9.62
  -5  13   8   83.42    7.15
   4 -13  -8    1.11    0.30
  -4  13   8    2.25    1.04
   3 -13  -8   67.27    7.78
   3 -13  -8   55.02    4.37
  -3  13   8   66.41    5.61
   2 -13  -8   88.58    9.62
  -2  13   8   89.18    7.55
   1 -13  -8   20.68    4.12
  -1  13   8   24.27    2.86
   0 -13  -8  136.46   13.58
   0  13   8  153.94   11.66
  -1 -13  -8   55.06    7.21
   1  13   8   59.58    5.41
  -2 -13  -8    8.20    3.10
   2  13   8    8.06    1.72
  -3 -13  -8  100.18   10.55
   3  13   8  103.33    8.67
  -4 -13  -8    8.23    4.87
  -5 -13  -8   18.05    4.31
   5  13   8   29.50    3.52
  -6 -13  -8  110.40   11.51
   6  13   8  130.07   10.46
  -7 -13  -8    2.76    1.96
   7  13   8    4.39    1.60
  -8 -13  -8   29.65    4.99
   8  13   8   37.28    4.30
  -9 -13  -8   31.13    5.13
   9  13   8   33.94    4.29
   6 -14  -8   30.99    5.83
  -6  14   8   29.79    3.52
   5 -14  -8   36.28    6.30
  -5  14   8   41.07    4.18
   4 -14  -8   -1.85    1.40
  -4  14   8   -0.03    0.99
   3 -14  -8   78.24    9.28
  -3  14   8   75.24    7.29
   2 -14  -8   56.95    7.66
  -2  14   8   60.09    5.60
   1 -14  -8   25.35    4.75
  -1  14   8   30.11    3.41
   0 -14  -8   74.05    9.33
   0  14   8   93.55    7.57
  -1 -14  -8    9.35    3.35
   1  14   8    8.36    1.96
  -2 -14  -8   48.09    6.87
   2  14   8   48.05    4.95
  -3 -14  -8   91.28   10.22
   3  14   8   94.27    8.25
  -4 -14  -8   -0.22    1.61
   4  14   8    2.54    1.30
  -5 -14  -8   84.14    9.61
   5  14   8   91.58    8.10
  -6 -14  -8   98.11   10.70
   6  14   8  115.22    9.68
  -7 -14  -8    0.49    1.94
   7  14   8   -0.03    0.84
  -8 -14  -8   48.18    6.63
   8  14   8   52.48    5.86
   5 -15  -8   11.10    3.98
  -5  15   8   16.73    2.50
   4 -15  -8    9.98    3.81
  -4  15   8   16.88    2.51
   3 -15  -8  114.53   12.10
  -3  15   8  107.83    9.36
   2 -15  -8   -1.24    1.72
  -2  15   8    0.25    0.95
   1 -15  -8   67.20    8.66
  -1  15   8   75.44    6.68
   0 -15  -8  139.88   14.03
   0  15   8  138.44   11.43
  -1 -15  -8    0.79    2.07
   1  15   8    2.31    1.14
  -2 -15  -8   77.15    9.12
   2  15   8   72.74    7.91
  -3 -15  -8   54.72    7.53
   3  15   8   60.90    5.95
  -4 -15  -8    1.21    2.06
   4  15   8    1.27    1.24
  -5 -15  -8   80.37    9.79
   5  15   8   98.38    8.48
  -6 -15  -8   62.00    8.04
   6  15   8   66.46    6.75
   2 -16  -8   -0.41    2.06
  -2  16   8    0.19    0.91
   1 -16  -8   61.29    8.23
  -1  16   8   58.96    5.93
   0 -16  -8   78.54   10.03
   0  16   8   89.32    7.84
  -1 -16  -8    1.29    2.24
   1  16   8    3.66    1.60
  -2 -16  -8   39.68    6.61
   2  16   8   45.97    4.86
  -3 -16  -8   12.36    4.14
   3  16   8   16.07    2.66
   0  -9   9   41.72    5.42
   1  -9   9   83.64    8.41
   2  -9   9    0.17    1.49
   3  -9   9   81.18    7.85
   3  -9   9   72.03    7.90
   4  -9   9   26.34    4.04
   4  -9   9   27.08    4.25
   5  -9   9   10.66    2.69
   5  -9   9    8.43    2.72
   6  -9   9   51.39    6.79
   6  -9   9   55.00    5.93
   7  -9   9   14.45    3.85
   7  -9   9   13.89    3.17
  -2  -8   9   28.13    4.09
   1   8  -9   -0.55    0.34
  -1  -8   9   -0.61    1.23
   0   8  -9  107.25    7.68
   0  -8   9  102.32    9.81
  -1   8  -9   21.68    1.93
   1  -8   9   27.85    3.88
  -2   8  -9   10.10    1.09
   2  -8   9   12.70    2.87
   2  -8   9    9.63    2.49
  -3   8  -9  165.98   11.99
   3  -8   9  176.93   14.12
   3  -8   9  161.76   14.23
  -4   8  -9   25.02    2.07
   4  -8   9   22.80    4.07
   4  -8   9   26.50    3.77
  -5   8  -9    5.55    0.75
   5  -8   9    3.50    2.25
  -6   8  -9   63.76    5.40
   6  -8   9   85.21    7.39
   6  -8   9   78.31    8.22
  -7   8  -9    2.33    0.55
   7  -8   9    2.41    1.83
   7  -8   9    2.90    1.56
   8  -8   9   59.15    7.51
  -9   8  -9   71.68    6.19
   9  -8   9   97.76    7.80
   9  -8   9   88.38    9.54
   4   7  -9    0.05    0.53
  -4  -7   9    1.37    1.71
   3   7  -9   73.30    5.47
  -3  -7   9   72.00    7.45
   2   7  -9   22.23    1.95
  -2  -7   9   23.63    3.76
   1   7  -9   18.41    1.73
  -1  -7   9   24.27    3.47
   0   7  -9  187.57   13.64
   0  -7   9  196.23   15.78
  -1   7  -9   27.79    2.30
   1  -7   9   29.49    4.03
  -2   7  -9   31.15    2.52
   2  -7   9   29.45    4.02
   2  -7   9   37.29    4.91
  -3   7  -9   82.25    6.40
   3  -7   9   88.33    9.31
   3  -7   9   95.79    8.34
  -4   7  -9    1.71    0.47
   4  -7   9    1.30    1.36
   4  -7   9    0.04    1.27
  -5   7  -9   60.23    4.77
   5  -7   9   72.54    6.56
   5  -7   9   62.11    7.02
  -6   7  -9  127.34    9.95
   6  -7   9  153.68   11.73
   6  -7   9  137.55   12.55
  -7   7  -9   -0.35    0.34
   7  -7   9    0.17    1.05
   7  -7   9    1.17    1.57
   8  -7   9   74.40    6.58
   8  -7   9   61.94    7.68
  -9   7  -9   39.78    3.44
   9  -7   9   50.13    6.39
 -10   7  -9   -0.76    0.43
  10  -7   9    1.03    1.84
 -11   7  -9   48.15    3.93
  11  -7   9   51.27    7.03
   5   6  -9   57.88    4.61
  -5  -6   9   64.60    6.85
  -4  -6   9   30.12    4.22
   3   6  -9   93.42    7.01
  -3  -6   9   98.20    9.05
   2   6  -9   58.84    4.56
  -2  -6   9   63.19    6.45
   1   6  -9   26.86    2.26
  -1  -6   9   27.45    3.90
   0   6  -9  166.04   11.91
  -1   6  -9    3.67    0.62
   1  -6   9    2.31    1.20
   1  -6   9    1.35    1.39
  -2   6  -9  144.59   10.64
   2  -6   9  152.97   12.44
  -3   6  -9  114.81    8.42
   3  -6   9  110.85   10.01
   3  -6   9  124.41   10.17
  -4   6  -9    5.01    0.75
   4  -6   9    6.22    1.73
   4  -6   9    5.14    1.86
  -5   6  -9   74.80    5.88
   5  -6   9   91.90    7.53
   5  -6   9   76.00    7.84
  -6   6  -9   64.23    5.09
   6  -6   9   76.08    6.57
   6  -6   9   65.52    7.13
  -7   6  -9   31.26    2.77
   7  -6   9   32.98    4.76
   7  -6   9   39.62    4.03
  -8   6  -9  108.70    8.62
   8  -6   9  117.13   11.18
   8  -6   9  130.38    9.87
  -9   6  -9   28.70    2.63
   9  -6   9   34.04    5.02
   9  -6   9   33.85    3.69
 -10   6  -9   11.46    1.28
  10  -6   9   11.11    3.37
  10  -6   9    9.07    1.86
 -11   6  -9   41.73    3.72
  11  -6   9   56.95    6.89
 -12   6  -9   -0.04    0.56
  12  -6   9    0.27    1.81
   6   5  -9   40.54    3.44
  -6  -5   9   47.64    5.57
   5   5  -9   14.18    1.48
  -5  -5   9   16.57    3.36
   4   5  -9   52.88    4.22
  -4  -5   9   58.16    6.12
   3   5  -9   71.28    5.23
  -3  -5   9   65.99    6.82
   2   5  -9    9.76    1.07
   1   5  -9   62.82    4.58
  -1  -5   9   56.09    6.08
   0   5  -9   45.55    3.31
   0  -5   9   39.59    4.61
   0  -5   9   40.50    3.88
  -1   5  -9   25.43    2.02
   1  -5   9   30.68    3.60
   1  -5   9   19.67    2.72
  -2   5  -9  184.78   13.55
   2  -5   9  196.12   15.18
  -3   5  -9   88.35    6.32
   3  -5   9   89.09    7.78
   3  -5   9   79.80    7.58
  -4   5  -9    4.55    0.70
   4  -5   9    5.27    1.69
   4  -5   9    4.42    1.54
  -5   5  -9   93.96    7.10
   5  -5   9   97.39    8.86
   5  -5   9   99.77    8.41
  -6   5  -9    1.00    0.45
   6  -5   9    0.61    0.99
   6  -5   9   -0.12    0.91
  -7   5  -9   75.92    5.72
   7  -5   9   73.14    7.76
   7  -5   9   79.08    6.78
  -8   5  -9  131.03    9.95
   8  -5   9  149.68   11.49
   8  -5   9  131.43   12.20
  -9   5  -9   -0.48    0.46
   9  -5   9   -1.52    0.77
   9  -5   9    0.20    1.14
 -10   5  -9  100.63    8.14
  10  -5   9  117.03    8.80
  10  -5   9  112.86   10.90
  11  -5   9   90.08    9.55
 -12   5  -9   -0.61    0.45
  12  -5   9   -1.35    1.46
 -13   5  -9   67.62    5.86
  13  -5   9   91.70    9.33
   7   4  -9   13.20    1.45
  -7  -4   9   11.71    2.88
   6   4  -9  114.64    8.64
  -6  -4   9  120.85   10.63
   5   4  -9    0.25    0.43
  -5  -4   9    0.35    1.22
   4   4  -9   51.96    4.20
  -4  -4   9   59.25    5.99
   3   4  -9   67.48    5.23
  -3  -4   9   72.42    6.84
   2   4  -9   39.35    3.19
  -2  -4   9   42.68    4.76
   1   4  -9  256.48   18.00
  -1  -4   9  248.66   19.58
   0   4  -9  192.72   13.12
   0  -4   9  189.28   14.68
   0  -4   9  169.68   13.38
  -1   4  -9   72.07    4.95
   1  -4   9   60.57    5.47
   1  -4   9   64.21    6.30
  -2   4  -9  236.81   16.46
   2  -4   9  220.96   17.32
   2  -4   9  236.16   17.87
  -3   4  -9   66.83    4.82
   3  -4   9   65.53    6.08
   3  -4   9   59.54    5.80
  -4   4  -9   66.89    5.04
   4  -4   9   70.24    6.26
   4  -4   9   65.12    6.30
  -5   4  -9  231.70   17.12
   5  -4   9  257.54   18.35
   5  -4   9  233.78   18.68
  -6   4  -9   -0.25    0.36
   6  -4   9   -0.14    0.87
   6  -4   9    0.25    0.98
  -7   4  -9  181.47   13.38
   7  -4   9  185.72   15.35
   7  -4   9  191.23   14.32
  -8   4  -9  239.24   17.72
   8  -4   9  261.31   18.56
   8  -4   9  242.79   19.89
  -9   4  -9   20.15    2.02
   9  -4   9   24.14    3.79
   9  -4   9   22.12    2.61
 -10   4  -9   23.30    2.33
  10  -4   9   27.42    4.36
  10  -4   9   28.73    2.87
 -11   4  -9   26.65    2.45
  11  -4   9   27.70    4.57
 -12   4  -9   30.47    2.83
  12  -4   9   35.49    5.14
 -13   4  -9   77.14    6.42
  13  -4   9   94.11    9.63
   8   3  -9    1.17    0.62
  -8  -3   9    1.39    1.69
   7   3  -9   38.32    3.34
  -7  -3   9   43.42    5.04
   6   3  -9   97.98    7.33
  -6  -3   9   97.77    9.12
   5   3  -9    4.94    0.80
   4   3  -9   90.74    6.62
  -4  -3   9   85.74    8.06
   3   3  -9   77.23    6.01
  -3  -3   9   86.15    7.62
   2   3  -9   33.05    2.60
  -2  -3   9   28.97    3.68
   1   3  -9  124.76    9.15
  -1  -3   9  127.76   10.59
   0   3  -9   26.24    2.28
   0  -3   9   29.64    2.55
   0  -3   9   26.32    3.46
   0  -3   9   26.96    2.15
  -1   3  -9   92.76    6.55
   1  -3   9   87.91    7.74
   1  -3   9   85.36    6.87
   2  -3   9  352.04   27.53
   2  -3   9  414.99   28.33
  -3   3  -9   41.17    3.18
   3  -3   9   36.46    4.04
   3  -3   9   36.45    3.83
   4  -3   9  179.89   13.55
   4  -3   9  167.12   13.54
  -5   3  -9   94.10    7.15
   5  -3   9  102.56    8.18
   5  -3   9   96.25    8.50
  -6   3  -9    9.12    1.08
   6  -3   9    9.13    2.28
   6  -3   9    9.53    1.85
  -7   3  -9  162.73   12.11
   7  -3   9  172.63   12.94
   7  -3   9  168.01   13.91
  -8   3  -9   74.32    5.81
   8  -3   9   80.49    7.72
   8  -3   9   76.08    6.44
  -9   3  -9   48.60    4.17
   9  -3   9   53.18    5.99
   9  -3   9   56.82    4.73
 -10   3  -9  188.89   14.79
  10  -3   9  221.41   15.20
  10  -3   9  203.53   17.18
 -11   3  -9   43.83    3.67
  11  -3   9   45.33    5.85
 -12   3  -9   36.14    3.07
  12  -3   9   32.88    5.09
 -13   3  -9   74.80    6.42
  13  -3   9   97.81    9.58
 -14   3  -9   -0.97    0.48
  14  -3   9   -0.22    1.45
   8   2  -9   -0.10    0.48
  -8  -2   9   -0.43    1.07
   7   2  -9  123.05    8.92
  -7  -2   9  115.95   10.51
  -6  -2   9   25.77    4.17
   5   2  -9   34.91    2.92
  -5  -2   9   35.25    4.25
   4   2  -9  127.15    9.18
  -4  -2   9  123.08   10.61
   3   2  -9   15.26    1.45
  -3  -2   9   12.50    2.50
   2   2  -9  105.58    7.49
  -2  -2   9   96.72    8.78
   1   2  -9  246.27   16.94
  -1  -2   9  227.42   18.21
   0   2  -9    0.36    0.30
   0  -2   9   -0.24    0.87
  -1   2  -9  160.99   11.86
   1  -2   9  171.74   12.00
   1  -2   9  160.11   12.98
  -2   2  -9  341.69   23.92
   2  -2   9  332.90   25.04
   2  -2   9  338.60   24.40
  -3   2  -9    0.32    0.36
   3  -2   9    1.45    0.75
   3  -2   9    1.44    1.01
  -4   2  -9   84.72    6.26
   4  -2   9   80.83    7.16
   4  -2   9   88.87    7.21
   5  -2   9  248.63   17.89
   5  -2   9  227.16   18.11
  -6   2  -9   49.31    4.06
   6  -2   9   58.03    5.49
   6  -2   9   51.15    4.79
  -7   2  -9   63.67    4.97
   7  -2   9   65.76    5.62
   7  -2   9   65.53    6.48
  -8   2  -9   81.70    6.25
   8  -2   9   84.78    7.99
   8  -2   9   81.79    6.78
  -9   2  -9   38.97    3.36
   9  -2   9   43.77    3.77
   9  -2   9   38.47    4.99
 -10   2  -9  113.37    9.14
  10  -2   9  125.28   11.33
  10  -2   9  131.86    9.42
 -11   2  -9    2.57    0.77
  11  -2   9    3.35    1.89
 -12   2  -9   58.99    5.07
  12  -2   9   73.05    7.71
 -13   2  -9   77.11    6.44
  13  -2   9   92.96    9.34
 -14   2  -9    3.41    0.88
  14  -2   9    5.18    2.62
   9   1  -9   47.98    4.10
  -9  -1   9   51.94    5.66
   8   1  -9   14.86    1.60
  -8  -1   9   13.80    2.92
   7   1  -9  129.16    9.57
  -7  -1   9  129.51   11.08
   6   1  -9   39.87    3.40
  -6  -1   9   43.99    4.70
   5   1  -9   40.45    3.26
  -5  -1   9   39.02    4.42
   4   1  -9  108.26    8.13
  -4  -1   9  113.74    9.54
   3   1  -9   -0.13    0.37
  -3  -1   9    1.34    0.96
   2   1  -9  141.54   10.26
  -2  -1   9  141.84   11.55
   1   1  -9  107.50    7.70
  -1  -1   9  101.94    8.86
   0   1  -9   12.32    1.33
   0  -1   9   10.77    2.16
  -1   1  -9  237.96   18.10
  -1   1  -9  275.15   18.15
   1  -1   9  223.67   19.56
   1  -1   9  272.81   18.12
  -2   1  -9  247.39   17.72
   2  -1   9  265.76   18.08
   2  -1   9  231.01   18.65
  -3   1  -9  164.10   11.69
   3  -1   9  166.75   12.31
   3  -1   9  155.67   12.60
  -4   1  -9  131.10    9.74
   4  -1   9  140.16   10.64
   4  -1   9  132.38   10.59
  -5   1  -9  141.15   10.24
   5  -1   9  142.00   11.32
   5  -1   9  140.63   11.02
  -6   1  -9   80.59    6.34
   6  -1   9   83.52    6.90
   6  -1   9   85.06    7.51
  -7   1  -9  202.22   14.19
   7  -1   9  186.06   14.73
   7  -1   9  202.59   15.74
  -8   1  -9    1.13    0.57
   8  -1   9    0.94    0.77
   8  -1   9    1.41    1.15
  -9   1  -9  166.40   12.82
   9  -1   9  183.23   14.82
   9  -1   9  181.33   13.20
 -10   1  -9   71.11    6.25
  10  -1   9   82.88    8.25
  10  -1   9   92.51    6.54
 -11   1  -9   -0.03    0.36
  11  -1   9    0.87    1.40
  11  -1   9    0.09    0.51
 -12   1  -9  152.46   11.53
 -13   1  -9   51.76    4.62
  13  -1   9   66.13    7.33
 -14   1  -9   56.39    4.97
  14  -1   9   68.99    7.82
   9   0  -9   39.59    3.35
  -9   0   9   36.17    4.55
   8   0  -9   35.52    3.15
  -8   0   9   38.09    4.41
   7   0  -9   72.98    5.53
  -7   0   9   69.04    6.77
   6   0  -9    4.94    0.79
  -6   0   9    3.40    1.46
   5   0  -9   78.70    5.86
  -5   0   9   75.98    7.11
   4   0  -9   77.86    5.99
  -4   0   9   82.90    7.29
   3   0  -9   37.24    2.89
  -3   0   9   32.13    3.91
   2   0  -9  278.64   19.36
  -2   0   9  264.81   20.53
   1   0  -9   40.54    3.34
  -1   0   9   40.89    4.19
   0   0  -9  112.28    7.82
   0   0   9   98.92    9.29
  -1   0  -9  357.47   24.64
   1   0   9  337.96   25.61
  -2   0  -9   16.44    1.53
   2   0   9   17.62    1.73
   2   0   9   16.40    2.24
  -3   0  -9    8.56    1.03
   3   0   9    8.51    1.75
   3   0   9    9.95    1.38
  -4   0  -9  563.50   39.89
   4   0   9  533.57   40.64
   4   0   9  601.71   40.72
  -5   0  -9   32.28    2.65
   5   0   9   30.69    3.29
   5   0   9   34.51    3.55
  -6   0  -9  257.31   17.86
   6   0   9  243.99   18.85
   6   0   9  241.59   18.29
  -7   0  -9  471.18   33.52
   7   0   9  473.04   34.96
   7   0   9  477.97   34.07
  -8   0  -9   20.71    1.88
   8   0   9   19.08    2.23
  -9   0  -9   88.74    6.90
   9   0   9   89.15    8.57
   9   0   9   96.08    7.21
 -10   0  -9  100.28    8.18
  10   0   9  104.68    9.98
  10   0   9  121.66    8.38
 -11   0  -9   23.68    2.42
  11   0   9   30.81    2.52
  11   0   9   25.05    4.13
 -12   0  -9  207.70   16.32
  12   0   9  237.24   18.72
 -13   0  -9   53.48    4.68
  13   0   9   64.39    7.20
 -14   0  -9   21.64    2.44
  14   0   9   31.82    5.03
 -15   0  -9   92.22    7.75
  15   0   9  111.54   10.88
   9  -1  -9   -0.59    0.53
  -9   1   9    1.55    1.22
   8  -1  -9  107.81    7.90
  -8   1   9  101.14    9.13
  -7   1   9  153.69   12.53
   6  -1  -9   -0.40    0.39
  -6   1   9    0.19    0.89
   5  -1  -9  106.28    7.59
  -5   1   9   97.05    8.66
   4  -1  -9   64.75    4.93
  -4   1   9   64.63    6.07
   3  -1  -9  159.66   11.76
  -3   1   9  167.48   12.95
   2  -1  -9  388.69   28.98
  -2   1   9  434.88   30.22
   1  -1  -9   66.27    5.05
  -1   1   9   68.27    6.10
   0  -1  -9  217.03   15.25
   0   1   9  210.06   16.24
  -1  -1  -9  339.83   23.46
   1   1   9  322.04   24.36
  -2  -1  -9   43.87    3.50
   2   1   9   49.08    3.68
   2   1   9   39.64    4.21
  -3  -1  -9   56.07    4.21
   3   1   9   48.95    4.87
   3   1   9   58.89    4.66
  -4  -1  -9  171.36   12.23
   4   1   9  183.30   12.97
   4   1   9  153.82   12.86
  -5  -1  -9   20.72    1.82
   5   1   9   20.06    2.41
   5   1   9   20.74    2.54
  -6  -1  -9  339.88   24.68
   6   1   9  345.17   25.28
   6   1   9  358.60   25.85
  -7  -1  -9  154.83   11.71
   7   1   9  167.90   12.24
   7   1   9  161.46   13.00
  -8  -1  -9   13.12    1.37
   8   1   9   11.73    1.62
   8   1   9   12.29    2.92
  -9  -1  -9   18.65    1.81
   9   1   9   18.81    2.07
   9   1   9   18.33    3.18
 -10  -1  -9   60.00    5.00
  10   1   9   67.60    5.16
  10   1   9   61.73    6.69
 -11  -1  -9   69.86    5.81
  11   1   9   81.20    7.83
 -12  -1  -9  110.64    9.05
  12   1   9  132.65   11.50
 -13  -1  -9    3.52    0.91
  13   1   9    4.98    2.26
 -14  -1  -9   69.21    6.07
  14   1   9   88.10    8.89
 -15  -1  -9   61.66    5.30
  15   1   9   70.22    8.01
  10  -2  -9   79.74    6.09
 -10   2   9   73.33    7.66
   9  -2  -9    5.00    1.04
  -9   2   9    4.80    1.54
   8  -2  -9   59.66    4.66
  -8   2   9   56.15    5.65
   7  -2  -9   29.11    2.55
  -7   2   9   28.02    3.48
   6  -2  -9   32.58    2.83
  -6   2   9   34.69    3.89
   5  -2  -9  114.27    8.36
  -5   2   9  112.80    9.44
   4  -2  -9   72.62    5.56
  -4   2   9   76.16    6.67
   3  -2  -9  123.79    8.81
  -3   2   9  117.31    9.79
   2  -2  -9   68.84    4.93
  -2   2   9   60.27    6.21
   1  -2  -9  112.49    8.12
  -1   2   9  110.36    9.06
   0   2   9  812.29   57.91
  -1  -2  -9  285.81   19.19
   1   2   9  253.63   19.95
  -2  -2  -9  127.56    9.14
   2   2   9  115.06    9.82
   2   2   9  133.15    9.32
  -3  -2  -9  472.24   34.29
   3   2   9  453.13   34.97
   3   2   9  532.63   34.81
  -4  -2  -9  214.76   15.73
   4   2   9  241.91   16.49
   4   2   9  202.92   16.34
  -5  -2  -9  142.63   10.55
   5   2   9  141.56   11.15
   5   2   9  152.42   11.44
  -6  -2  -9  272.40   19.13
   6   2   9  259.94   19.65
   6   2   9  271.86   20.20
  -7  -2  -9   31.51    2.56
   7   2   9   30.17    3.56
   7   2   9   26.55    2.86
  -8  -2  -9  100.18    7.79
   8   2   9  108.86    8.18
  -9  -2  -9  333.75   24.76
   9   2   9  334.13   26.35
   9   2   9  373.02   25.06
 -10  -2  -9   30.55    2.98
  10   2   9   38.88    3.23
  10   2   9   34.63    4.50
 -11  -2  -9  116.83    9.71
  11   2   9  135.29   11.78
  11   2   9  140.31    9.87
 -12  -2  -9   88.65    7.39
  12   2   9   97.91    9.52
  12   2   9  105.61    8.25
 -13  -2  -9    2.19    0.66
  13   2   9    0.57    1.34
 -14  -2  -9   89.70    7.54
  14   2   9  108.48   10.22
 -15  -2  -9   68.56    5.87
  15   2   9   78.56    8.58
  10  -3  -9   84.59    6.32
 -10   3   9   76.09    7.19
   9  -3  -9   38.26    3.31
  -9   3   9   38.55    4.17
   8  -3  -9  112.84    8.42
  -8   3   9  112.03    9.47
   7  -3  -9   14.38    1.56
  -7   3   9   13.43    2.30
   6  -3  -9  115.59    7.99
   6  -3  -9  108.93    8.15
  -6   3   9  102.71    9.10
   5  -3  -9  219.66   15.58
  -5   3   9  214.57   16.61
   4  -3  -9   13.20    1.33
  -4   3   9   14.64    2.21
   3  -3  -9  260.62   17.51
  -3   3   9  228.18   18.82
  -2   3   9  215.77   16.29
   1  -3  -9   39.62    3.00
  -1   3   9   36.19    3.76
   0  -3  -9  214.77   16.04
   0  -3  -9  200.72   15.79
   0   3   9  259.50   16.83
  -1  -3  -9  161.11   11.09
  -1  -3  -9  143.96   10.55
   1   3   9  133.59   11.22
  -2  -3  -9    8.88    1.38
  -2  -3  -9    7.25    0.87
   2   3   9    7.00    0.97
   2   3   9    4.92    1.33
  -3  -3  -9  247.32   18.39
   3   3   9  233.85   19.00
   3   3   9  295.05   19.35
  -4  -3  -9  109.16    8.07
   4   3   9  119.67    8.79
   4   3   9  101.13    8.60
  -5  -3  -9  213.59   15.46
   5   3   9  201.09   15.99
   5   3   9  232.80   16.41
  -6  -3  -9  241.92   17.31
   6   3   9  254.38   18.43
   6   3   9  229.87   17.79
  -7  -3  -9    2.20    0.75
   7   3   9    1.88    1.10
   7   3   9    2.71    0.91
  -8  -3  -9   30.84    2.60
   8   3   9   27.87    2.89
   8   3   9   31.43    4.50
  -9  -3  -9  151.73   11.57
   9   3   9  166.46   11.90
   9   3   9  156.30   13.11
 -10  -3  -9   -0.28    0.49
  10   3   9    0.66    1.18
  10   3   9    1.13    0.69
 -11  -3  -9  132.87   10.46
  11   3   9  151.78   10.72
  11   3   9  138.43   12.32
 -12  -3  -9   18.43    1.98
  12   3   9   21.31    2.23
  12   3   9   16.41    3.14
 -13  -3  -9   32.87    3.07
  13   3   9   34.66    4.89
 -14  -3  -9  157.28   12.53
  14   3   9  182.67   15.17
 -15  -3  -9   28.27    2.98
  15   3   9   35.50    5.31
  10  -4  -9    8.21    1.26
 -10   4   9    8.81    1.87
   9  -4  -9   29.18    2.53
  -9   4   9   24.64    3.28
   8  -4  -9  129.80    9.96
  -8   4   9  141.81   11.04
   7  -4  -9    0.31    0.47
  -7   4   9    0.71    0.91
   6  -4  -9   60.79    4.61
   6  -4  -9   55.13    4.69
  -6   4   9   66.39    5.63
   5  -4  -9  163.79   11.34
   5  -4  -9  143.85   11.37
  -5   4   9  165.23   12.32
   4  -4  -9    4.75    0.77
   4  -4  -9    3.52    0.73
  -4   4   9    5.25    1.07
  -4   4   9    5.00    1.44
   3  -4  -9  221.86   14.67
   3  -4  -9  184.75   14.74
  -3   4   9  212.94   16.07
   2  -4  -9   62.32    5.24
   2  -4  -9   79.62    5.08
  -2   4   9   61.56    5.74
   1  -4  -9  148.36   10.22
   1  -4  -9  130.99   10.58
  -1   4   9  148.66   11.05
   0  -4  -9  314.25   20.80
   0  -4  -9  307.32   21.03
   0  -4  -9  253.54   21.33
   0   4   9  300.52   21.56
  -1  -4  -9  133.68    9.82
  -1  -4  -9  120.04    9.01
   1   4   9  121.05    9.71
  -2  -4  -9  242.46   16.01
   2   4   9  218.33   16.65
   2   4   9  213.94   16.30
  -3  -4  -9  309.23   21.68
   3   4   9  326.64   22.26
   3   4   9  280.57   22.26
  -4  -4  -9    0.28    0.31
   4   4   9   -0.01    0.57
   4   4   9    1.04    0.67
  -5  -4  -9  361.05   26.89
   5   4   9  416.36   27.93
   5   4   9  362.41   27.45
  -6  -4  -9  204.82   14.78
   6   4   9  209.97   15.87
   6   4   9  202.37   15.29
   7   4   9    0.76    0.71
   7   4   9    0.61    0.73
  -8  -4  -9  313.92   22.92
   8   4   9  327.43   23.34
   8   4   9  323.26   24.34
  -9  -4  -9   73.57    5.77
   9   4   9   77.30    7.27
   9   4   9   74.30    6.07
 -10  -4  -9   74.58    6.02
  10   4   9   77.68    7.60
  10   4   9   82.25    6.38
 -11  -4  -9  209.94   16.01
  11   4   9  226.74   17.96
  11   4   9  226.28   16.36
 -12  -4  -9   37.75    3.35
  12   4   9   36.14    3.59
  12   4   9   42.69    5.32
 -13  -4  -9   12.30    1.72
  13   4   9   16.10    3.07
 -14  -4  -9  133.39   10.74
  14   4   9  154.99   13.31
 -15  -4  -9   11.34    1.70
  15   4   9   11.19    3.12
  10  -5  -9    9.64    1.40
 -10   5   9    9.27    1.92
   9  -5  -9   82.56    6.26
  -9   5   9   80.20    7.04
   8  -5  -9   38.66    3.34
  -8   5   9   42.00    4.18
   7  -5  -9    6.82    1.05
   7  -5  -9    7.60    1.48
  -7   5   9    8.02    1.77
   6  -5  -9   86.74    6.53
   6  -5  -9   84.66    7.07
  -6   5   9   92.38    7.46
   5  -5  -9   48.93    3.86
  -5   5   9   50.93    4.69
   4  -5  -9   75.59    5.59
   4  -5  -9   71.82    6.15
  -4   5   9   78.23    6.43
   3  -5  -9  167.83   11.35
   3  -5  -9  145.56   11.90
  -3   5   9  160.87   12.21
   2  -5  -9   51.02    3.72
  -2   5   9   45.61    4.33
   1  -5  -9  185.47   11.71
   1  -5  -9  141.05   12.43
  -1   5   9  163.40   12.41
   0  -5  -9  223.41   15.17
   0  -5  -9  206.65   16.13
   0   5   9  209.29   15.87
  -1  -5  -9   43.44    3.10
   1   5   9   35.79    3.61
  -2  -5  -9  414.46   26.71
  -2  -5  -9  347.25   25.39
   2   5   9  319.31   25.99
  -3  -5  -9  159.12   11.33
   3   5   9  152.96   11.96
   3   5   9  160.33   11.96
  -4  -5  -9    1.63    0.95
  -4  -5  -9    0.90    0.44
   4   5   9    1.59    0.83
   4   5   9    1.45    0.82
  -5  -5  -9  290.89   21.04
   5   5   9  306.94   22.06
   5   5   9  290.03   21.62
  -6  -5  -9  117.05    8.92
   6   5   9  122.02    9.48
   6   5   9  126.95   10.08
  -7  -5  -9   33.62    2.97
   7   5   9   35.40    3.98
   7   5   9   32.59    3.27
  -8  -5  -9  433.53   32.13
   8   5   9  462.67   33.66
   8   5   9  465.19   32.63
  -9  -5  -9   42.34    3.82
   9   5   9   51.29    4.32
   9   5   9   48.51    5.26
 -10  -5  -9   88.56    6.79
  10   5   9   90.17    8.39
  10   5   9   88.12    7.19
 -11  -5  -9   74.06    6.06
  11   5   9   78.54    6.54
  11   5   9   83.58    7.85
 -12  -5  -9    0.00    0.54
  12   5   9   -0.97    0.82
  12   5   9   -0.30    1.09
 -13  -5  -9  157.03   12.42
  13   5   9  180.31   14.73
 -14  -5  -9  121.87    9.89
  14   5   9  141.54   12.27
  10  -6  -9   -0.44    0.50
 -10   6   9   -1.21    0.68
   9  -6  -9  160.56   12.26
   9  -6  -9  138.88   11.00
  -9   6   9  150.61   11.77
   8  -6  -9   40.74    3.52
   8  -6  -9   45.89    4.55
  -8   6   9   42.99    4.30
   7  -6  -9   23.43    2.06
   7  -6  -9   21.86    2.90
  -7   6   9   20.39    2.72
   6  -6  -9  118.25    8.72
   6  -6  -9  114.55    9.65
  -6   6   9  124.89    9.58
   5  -6  -9    4.07    1.38
   5  -6  -9    5.69    0.82
  -5   6   9    3.87    1.14
   4  -6  -9  137.56    9.21
   4  -6  -9  118.49   10.10
  -4   6   9  123.72    9.93
   3  -6  -9   96.97    9.03
   3  -6  -9  127.16    8.17
   2  -6  -9   -0.21    0.30
   2  -6  -9    0.27    0.75
  -2   6   9    0.02    0.41
   1  -6  -9  269.13   17.38
   1  -6  -9  226.16   18.57
  -1   6   9  237.67   18.04
   0  -6  -9  313.72   25.35
   0  -6  -9  361.52   24.16
   0   6   9  350.93   24.88
  -1  -6  -9   22.12    2.94
  -1  -6  -9   19.86    1.75
   1   6   9   22.01    2.35
  -2  -6  -9  336.24   24.09
  -2  -6  -9  359.29   25.55
   2   6   9  329.21   24.77
  -3  -6  -9   46.87    3.64
  -3  -6  -9   54.63    5.05
   3   6   9   48.62    4.31
   3   6   9   42.83    4.24
  -4  -6  -9   86.07    6.65
  -4  -6  -9  100.65    8.11
   4   6   9   90.73    7.28
   4   6   9   85.72    7.47
  -5  -6  -9  303.56   21.50
  -5  -6  -9  330.80   23.00
   5   6   9  294.40   22.53
   5   6   9  282.47   22.06
  -6  -6  -9  286.70   19.85
   6   6   9  262.34   20.37
   6   6   9  285.58   21.10
  -7  -6  -9  216.90   16.63
   7   6   9  242.59   17.93
   7   6   9  229.43   17.06
  -8  -6  -9  289.45   21.51
   8   6   9  291.91   22.05
   8   6   9  324.60   23.20
  -9  -6  -9   19.57    2.00
   9   6   9   22.78    2.49
   9   6   9   20.32    3.21
 -10  -6  -9  101.91    7.89
  10   6   9  107.29    8.45
  10   6   9  105.68    9.55
 -11  -6  -9   71.96    5.57
  11   6   9   72.91    7.21
  11   6   9   67.72    6.10
 -12  -6  -9    2.22    0.80
  12   6   9    2.46    1.50
  12   6   9   -0.24    0.97
 -13  -6  -9  138.26   10.34
  13   6   9  141.17   12.38
  13   6   9  134.03   10.91
 -14  -6  -9   56.35    4.88
  14   6   9   61.89    6.99
  10  -7  -9   46.78    3.88
   9  -7  -9   97.04    8.42
   9  -7  -9   85.77    6.88
  -9   7   9   90.91    7.53
   8  -7  -9    2.90    0.64
  -8   7   9    3.15    1.15
   7  -7  -9   76.78    7.41
   7  -7  -9   83.66    6.18
  -7   7   9   85.54    6.98
   6  -7  -9  124.75    8.77
   6  -7  -9  113.76   10.03
  -6   7   9  119.99    9.51
   5  -7  -9    0.00    0.89
   5  -7  -9    0.39    0.38
  -5   7   9    0.40    0.62
   4  -7  -9  171.03   14.89
   4  -7  -9  200.43   13.63
  -4   7   9  199.10   14.40
   3  -7  -9  125.74   11.57
   3  -7  -9  154.06   10.42
  -3   7   9  147.94   11.00
   2  -7  -9    9.97    0.96
   2  -7  -9    6.90    1.91
   1  -7  -9  268.24   19.19
  -1   7   9  274.65   19.92
   0  -7  -9  222.30   18.72
   0  -7  -9  250.01   17.27
   0   7   9  258.13   18.03
  -1  -7  -9   15.50    1.32
  -1  -7  -9   13.99    2.46
   1   7   9   14.34    1.96
  -2  -7  -9  399.73   29.96
  -2  -7  -9  397.05   28.31
   2   7   9  409.67   29.06
  -3  -7  -9   60.24    4.72
  -3  -7  -9   67.08    6.30
   3   7   9   64.31    5.44
  -4  -7  -9   77.97    7.13
  -4  -7  -9   77.30    5.58
   4   7   9   70.32    6.21
   4   7   9   74.63    6.55
  -5  -7  -9  128.90    9.05
  -5  -7  -9  135.58   10.70
   5   7   9  115.39   10.10
   5   7   9  117.18    9.66
  -6  -7  -9   87.79    6.73
  -6  -7  -9   89.70    8.17
   6   7   9   86.51    7.35
   6   7   9   98.90    8.26
  -7  -7  -9  400.53   28.43
  -7  -7  -9  414.71   30.14
   7   7   9  407.44   29.94
   7   7   9  380.72   29.10
  -8  -7  -9  166.87   12.65
   8   7   9  183.45   14.35
  -9  -7  -9   -0.78    0.45
   9   7   9    0.25    0.76
   9   7   9    1.75    1.28
 -10  -7  -9  175.30   12.68
  10   7   9  167.52   13.35
  10   7   9  178.22   14.49
 -11  -7  -9   66.15    5.38
  11   7   9   69.58    7.36
  11   7   9   70.23    6.17
  12   7   9    3.47    1.49
  12   7   9    5.23    1.94
 -13  -7  -9   85.03    6.82
  13   7   9   86.96    7.70
  13   7   9   91.71    8.91
 -14  -7  -9    8.49    1.40
  14   7   9    8.48    2.77
  10  -8  -9   46.13    5.41
  10  -8  -9   43.66    3.71
   9  -8  -9   74.76    5.95
  -9   8   9   81.06    6.59
   8  -8  -9    0.63    0.50
   8  -8  -9    0.30    1.38
  -8   8   9   -0.26    0.68
   7  -8  -9  127.12   11.21
   7  -8  -9  125.84    9.49
  -7   8   9  137.06   10.28
   6  -8  -9   85.15    8.34
   6  -8  -9   87.39    6.70
  -6   8   9   99.17    7.52
   5  -8  -9    0.39    0.37
   5  -8  -9   -0.69    1.05
  -5   8   9    1.89    0.89
   4  -8  -9   85.19    6.05
   4  -8  -9   75.70    7.73
  -4   8   9   83.40    6.77
   3  -8  -9    7.40    2.27
  -3   8   9    8.61    1.37
   2  -8  -9   38.17    2.91
   2  -8  -9   34.19    4.48
  -2   8   9   39.51    3.63
   1  -8  -9  247.43   21.68
   1  -8  -9  305.15   19.94
  -1   8   9  290.06   20.68
   0  -8  -9   64.28    7.00
   0  -8  -9   80.90    5.46
   0   8   9   75.83    6.16
  -1  -8  -9    5.88    0.66
  -1  -8  -9    5.96    1.93
   1   8   9    4.32    1.17
  -2  -8  -9   41.37    3.33
  -2  -8  -9   50.02    5.22
   2   8   9   44.25    4.41
  -3  -8  -9   14.33    2.76
  -3  -8  -9   13.58    1.26
   3   8   9   14.74    1.99
  -4  -8  -9  112.41    8.43
  -4  -8  -9  125.66   10.34
   4   8   9  113.02    9.20
  -5  -8  -9  282.16   22.18
  -5  -8  -9  299.96   20.39
   5   8   9  279.62   21.15
   5   8   9  285.68   21.73
  -6  -8  -9   17.52    1.74
  -6  -8  -9   19.75    3.01
   6   8   9   18.48    2.32
   6   8   9   18.85    2.82
  -7  -8  -9   84.36    7.76
  -7  -8  -9   79.61    6.03
   7   8   9   79.17    7.48
   7   8   9   78.40    6.80
  -8  -8  -9   80.87    7.63
  -8  -8  -9   67.29    5.65
   8   8   9   79.67    7.41
   8   8   9   73.99    6.45
  -9  -8  -9   82.46    8.06
  -9  -8  -9   75.93    6.06
   9   8   9   78.32    7.75
   9   8   9   83.60    6.93
 -10  -8  -9  195.11   16.01
 -10  -8  -9  184.42   13.67
  10   8   9  181.03   14.52
  10   8   9  193.65   15.64
 -11  -8  -9   23.95    2.27
 -11  -8  -9   30.10    4.54
  11   8   9   20.45    2.97
  11   8   9   24.70    3.82
 -12  -8  -9   99.87    7.80
  12   8   9  104.27    9.65
  12   8   9   93.35    8.48
 -13  -8  -9  216.46   16.91
 -13  -8  -9  172.26   13.16
  13   8   9  175.25   15.33
  13   8   9  161.10   14.06
   9  -9  -9   23.21    2.15
  -9   9   9   23.20    2.67
   8  -9  -9   14.14    1.41
   8  -9  -9   13.84    3.22
  -8   9   9   11.22    1.93
   7  -9  -9  121.21   11.24
   7  -9  -9  126.41    9.14
  -7   9   9  126.42    9.87
   6  -9  -9   59.74    4.81
   6  -9  -9   63.50    6.93
  -6   9   9   68.86    5.61
   5  -9  -9   39.70    5.23
   5  -9  -9   44.91    3.42
  -5   9   9   45.41    4.13
   4  -9  -9  114.01    8.29
   4  -9  -9  109.81   10.74
  -4   9   9  118.39    9.08
   3  -9  -9    1.28    0.41
   3  -9  -9    0.64    1.24
  -3   9   9    1.53    0.74
   2  -9  -9  171.54   15.41
   2  -9  -9  190.22   13.26
  -2   9   9  194.89   14.07
   1  -9  -9  122.66    8.26
   1  -9  -9  102.62   10.25
  -1   9   9  115.26    9.00
   0  -9  -9   10.96    1.03
   0  -9  -9    9.87    2.61
   0   9   9   12.34    1.66
  -1  -9  -9  269.14   21.20
  -1  -9  -9  268.21   18.97
   1   9   9  268.76   19.79
  -2  -9  -9  158.63   11.73
  -2  -9  -9  159.03   13.86
   2   9   9  177.84   12.67
  -3  -9  -9   18.07    1.48
  -3  -9  -9   17.12    4.15
   3   9   9   16.07    2.13
  -4  -9  -9  148.73   12.78
  -4  -9  -9  143.56   10.64
   4   9   9  154.64   11.59
  -5  -9  -9  103.07    7.41
  -5  -9  -9  100.39    9.34
   5   9   9  100.81    8.30
  -6  -9  -9   81.38    8.02
  -6  -9  -9   77.53    6.10
   6   9   9   85.00    7.02
   6   9   9   87.26    7.79
  -7  -9  -9  225.36   15.43
  -7  -9  -9  205.66   17.35
   7   9   9  214.88   16.36
   7   9   9  213.92   17.19
  -8  -9  -9   54.51    4.53
  -8  -9  -9   59.10    6.45
   8   9   9   64.81    6.46
   8   9   9   59.17    5.43
  -9  -9  -9   93.48    7.21
  -9  -9  -9  100.01    9.41
   9   9   9  105.98    9.31
   9   9   9   88.79    8.11
 -10  -9  -9  171.00   14.24
 -10  -9  -9  153.35   11.67
  10   9   9  151.93   12.67
  10   9   9  166.12   14.12
 -11  -9  -9   21.44    3.77
 -11  -9  -9   22.13    2.11
  11   9   9   18.74    3.05
  11   9   9   23.55    3.81
 -12  -9  -9   72.59    5.74
 -12  -9  -9   80.02    8.51
  12   9   9   66.15    6.72
  12   9   9   76.25    7.84
 -13  -9  -9   61.79    4.95
 -13  -9  -9   65.46    7.80
  13   9   9   54.11    5.98
  13   9   9   62.46    7.01
   9 -10  -9    4.50    0.84
   9 -10  -9    3.72    2.14
  -9  10   9    3.22    1.12
   8 -10  -9   54.38    6.51
   8 -10  -9   50.14    4.05
  -8  10   9   51.33    4.70
   7 -10  -9  117.00   11.30
   7 -10  -9  120.09    8.78
  -7  10   9  121.34    9.52
   6 -10  -9    3.68    0.67
   6 -10  -9    4.30    2.20
  -6  10   9    3.73    1.18
   5 -10  -9   81.72    5.96
   5 -10  -9   83.98    8.59
  -5  10   9   76.17    6.66
   4 -10  -9   81.43    8.89
   4 -10  -9   83.69    6.35
  -4  10   9   94.32    7.22
   3 -10  -9    0.90    1.62
   3 -10  -9    1.53    0.42
  -3  10   9    2.04    0.92
   2 -10  -9  162.92   14.56
   2 -10  -9  171.90   12.02
  -2  10   9  169.62   12.83
   1 -10  -9  113.58    7.60
   1 -10  -9   89.78    9.74
  -1  10   9  108.62    8.45
   0 -10  -9    0.19    0.25
   0  10   9    0.80    0.74
  -1 -10  -9   76.13    8.11
  -1 -10  -9   80.71    5.87
   1  10   9   85.72    6.81
  -2 -10  -9    4.28    0.58
  -2 -10  -9    4.81    2.14
   2  10   9    5.79    1.37
  -3 -10  -9   24.40    2.06
  -3 -10  -9   27.68    4.20
   3  10   9   28.90    2.98
  -4 -10  -9  517.48   37.10
  -4 -10  -9  466.74   34.39
   4  10   9  488.10   35.43
  -5 -10  -9    1.59    1.59
   5  10   9    1.94    1.10
  -6 -10  -9   43.25    3.31
  -6 -10  -9   41.73    5.29
   6  10   9   42.69    4.36
  -7 -10  -9  258.21   18.97
  -7 -10  -9  254.99   21.22
   7  10   9  263.76   20.09
   7  10   9  292.09   21.22
  -8 -10  -9   19.70    1.96
  -8 -10  -9   20.42    3.71
   8  10   9   22.88    2.97
   8  10   9   26.67    3.86
  -9 -10  -9   87.59    9.33
  -9 -10  -9   94.81    7.06
   9  10   9   89.60    8.17
   9  10   9  111.65   10.90
 -10 -10  -9   84.96    6.52
 -10 -10  -9   92.14    9.01
  10  10   9   86.64    8.60
  10  10   9   81.57    7.65
 -11 -10  -9    9.08    1.25
 -11 -10  -9    7.26    2.73
  11  10   9    8.29    2.61
  11  10   9   10.13    2.23
 -12 -10  -9  156.60   14.24
 -12 -10  -9  151.22   11.28
  12  10   9  151.30   13.56
   8 -11  -9   49.53    3.89
  -8  11   9   48.36    4.52
   7 -11  -9  146.87   13.23
   7 -11  -9  130.56    9.94
  -7  11   9  136.79   10.73
   6 -11  -9    6.34    2.72
   6 -11  -9    6.93    0.89
  -6  11   9    5.67    1.40
   5 -11  -9  127.03   12.63
   5 -11  -9  133.44    9.65
  -5  11   9  138.76   10.53
   4 -11  -9   75.03    5.61
   4 -11  -9   72.96    8.37
  -4  11   9   79.69    6.49
   3 -11  -9   16.24    1.39
   3 -11  -9   15.55    3.83
  -3  11   9   14.42    2.06
   2 -11  -9  137.98   13.50
   2 -11  -9  156.15   10.85
  -2  11   9  159.03   11.80
   1 -11  -9  118.23    8.09
   1 -11  -9   98.44   10.54
  -1  11   9  117.68    9.03
   0 -11  -9   27.61    4.44
   0 -11  -9   29.03    2.22
   0  11   9   29.39    3.11
  -1 -11  -9  162.83   15.13
  -1 -11  -9  185.69   12.49
   1  11   9  176.07   13.49
  -2 -11  -9   18.89    3.69
  -2 -11  -9   19.31    1.58
   2  11   9   21.39    2.49
  -3 -11  -9   19.90    1.62
  -3 -11  -9   17.87    3.70
   3  11   9   22.05    2.57
  -4 -11  -9   70.99    7.36
  -4 -11  -9   60.38    4.75
   4  11   9   68.38    5.94
  -5 -11  -9    0.98    1.45
   5  11   9    0.47    0.87
  -6 -11  -9   85.45    6.58
  -6 -11  -9   90.21    9.05
   6  11   9   98.53    7.96
  -7 -11  -9  129.43    9.54
  -7 -11  -9  122.32   11.91
   7  11   9  146.20   11.02
  -8 -11  -9    0.96    1.65
  -8 -11  -9    0.17    0.43
   8  11   9    1.26    1.14
  -9 -11  -9   52.16    6.45
  -9 -11  -9   49.81    4.20
   9  11   9   55.31    5.58
   9  11   9   63.97    6.62
 -10 -11  -9   50.48    6.23
 -10 -11  -9   46.49    3.99
  10  11   9   55.05    6.05
  10  11   9   54.80    6.17
 -11 -11  -9   14.44    1.50
 -11 -11  -9   11.32    3.45
  11  11   9   13.01    2.84
  11  11   9   15.31    3.59
   8 -12  -9   91.78    9.82
   8 -12  -9   79.04    6.21
   7 -12  -9   68.49    5.44
   7 -12  -9   92.17    9.38
  -7  12   9   68.34    6.26
   6 -12  -9    5.97    0.77
   6 -12  -9    8.49    3.27
  -6  12   9    4.73    1.32
   5 -12  -9   66.18    8.02
   5 -12  -9   62.88    4.79
  -5  12   9   65.15    5.73
   4 -12  -9   23.71    4.60
   4 -12  -9   24.45    2.13
  -4  12   9   26.20    2.87
   3 -12  -9   21.60    1.85
   3 -12  -9   25.52    4.61
  -3  12   9   23.88    2.75
   2 -12  -9  159.06   15.15
   2 -12  -9  172.94   12.11
  -2  12   9  176.96   13.18
   1 -12  -9   32.63    2.42
   1 -12  -9   27.80    4.77
  -1  12   9   32.74    3.39
   0 -12  -9   50.32    6.77
   0 -12  -9   57.93    4.23
   0  12   9   64.74    5.35
  -1 -12  -9   67.57    7.94
   1  12   9   78.90    6.50
  -2 -12  -9    6.47    0.65
  -2 -12  -9    7.00    2.69
   2  12   9    6.87    1.61
  -3 -12  -9  118.03   11.85
  -3 -12  -9  124.26    8.90
   3  12   9  132.49   10.20
  -4 -12  -9   13.37    1.16
  -4 -12  -9   12.21    3.26
   4  12   9   15.55    2.39
  -5 -12  -9   11.79    3.13
  -5 -12  -9   11.24    1.05
   5  12   9   12.81    2.12
  -6 -12  -9  130.38   14.06
  -6 -12  -9  137.39   10.31
   6  12   9  167.68   12.04
  -7 -12  -9   57.67    6.62
  -7 -12  -9   47.63    3.79
  -8 -12  -9   31.25    2.54
  -8 -12  -9   31.75    4.97
   8  12   9   32.99    4.04
  -9 -12  -9  102.93   10.51
  -9 -12  -9  104.17    7.81
   9  12   9  114.99    9.56
 -10 -12  -9   -0.63    1.41
 -10 -12  -9    0.38    0.40
  10  12   9    0.98    1.21
   7 -13  -9   28.03    5.25
   6 -13  -9   31.50    5.78
  -6  13   9   32.51    3.86
   5 -13  -9   68.54    8.50
   5 -13  -9   64.31    4.97
  -5  13   9   71.37    6.17
   4 -13  -9    0.92    0.36
   4 -13  -9    2.42    3.35
  -4  13   9    0.84    0.73
   3 -13  -9   27.57    4.91
   3 -13  -9   25.46    2.06
  -3  13   9   27.66    3.10
   2 -13  -9   82.82    9.78
  -2  13   9  104.07    8.05
   1 -13  -9    6.74    0.67
   1 -13  -9    5.63    2.64
  -1  13   9    7.86    1.76
   0 -13  -9   63.16    4.87
   0 -13  -9   65.81    7.98
   0  13   9   78.12    6.23
  -1 -13  -9   42.43    6.36
   1  13   9   52.30    4.81
  -2 -13  -9   13.02    3.83
   2  13   9   14.76    2.30
  -3 -13  -9   44.15    6.40
   3  13   9   55.11    5.61
   4  13   9   20.64    3.23
  -5 -13  -9   36.54    2.97
  -5 -13  -9   32.79    5.39
   5  13   9   42.48    4.40
  -6 -13  -9  179.55   16.72
   6  13   9  204.60   15.40
  -7 -13  -9    7.23    2.47
   7  13   9    4.96    1.78
  -8 -13  -9   30.48    5.10
   8  13   9   39.48    4.51
  -9 -13  -9   70.34    8.43
   9  13   9   83.94    7.67
   6 -14  -9   50.25    7.43
  -6  14   9   42.01    4.42
   5 -14  -9  104.77   11.67
  -5  14   9  111.62    9.14
   4 -14  -9    1.17    2.09
  -4  14   9    1.00    0.88
   3 -14  -9   61.78    8.20
  -3  14   9   72.07    6.24
   2 -14  -9   49.95    7.13
  -2  14   9   57.83    5.30
   1 -14  -9    0.64    1.51
  -1  14   9    0.48    0.57
   0 -14  -9   86.91   10.34
   0  14   9  107.69    8.49
  -1 -14  -9   58.40    7.65
   1  14   9   58.02    5.57
  -2 -14  -9   15.12    4.22
   2  14   9   18.13    2.53
  -3 -14  -9   69.66    8.40
   3  14   9   71.65    6.56
  -4 -14  -9    6.04    2.53
   4  14   9    4.95    1.78
  -5 -14  -9   31.24    5.40
   5  14   9   40.60    4.45
  -6 -14  -9   47.67    6.93
   6  14   9   64.94    6.01
  -7 -14  -9    2.07    2.05
   7  14   9    1.60    1.39
  -8 -14  -9   96.43   10.48
   8  14   9  111.28    9.65
   4 -15  -9    8.78    3.58
  -4  15   9    8.35    1.91
   3 -15  -9   50.43    7.47
  -3  15   9   58.46    5.47
   2 -15  -9   19.59    4.90
  -2  15   9   32.01    3.51
   1 -15  -9    2.35    2.00
  -1  15   9    4.21    1.43
   0 -15  -9   43.53    6.77
   0  15   9   47.74    4.85
  -1 -15  -9    1.24    1.97
   1  15   9    1.11    1.09
  -2 -15  -9   33.20    5.63
   2  15   9   39.45    5.28
  -3 -15  -9   99.11   11.23
   3  15   9  109.75    9.24
  -4 -15  -9    1.13    1.54
   4  15   9    1.58    1.26
  -5 -15  -9   77.51    9.53
   5  15   9   92.31    8.13
  -6 -15  -9   37.50    6.02
   6  15   9   40.73    4.85
   1 -16  -9    8.16    3.36
  -1  16   9    5.01    1.72
   0 -16  -9   33.59    6.11
   0  16   9   37.41    4.27
  -1 -16  -9    2.83    2.47
   1  16   9    2.77    1.43
  -2 -16  -9   13.67    4.31
   2  16   9   20.74    2.87
  -3 -16  -9   22.83    5.56
   3  16   9   26.13    3.58
   0  -8  10   62.75    7.01
  -1   8 -10   62.10    4.90
   1  -8  10   74.32    7.42
  -2   8 -10   16.76    1.58
   2  -8  10   17.23    3.54
  -3   8 -10   93.06    6.93
   3  -8  10   97.52    9.18
  -4   8 -10   51.63    4.07
   4  -8  10   61.59    6.29
   4  -8  10   50.90    6.04
  -5   8 -10   17.45    1.70
   5  -8  10   21.44    3.52
   5  -8  10   19.32    3.67
   6  -8  10  115.21   11.68
   6  -8  10  138.19   11.34
  -7   8 -10   17.40    1.71
   7  -8  10   21.84    3.36
   7  -8  10   16.17    3.98
   8  -8  10   48.85    5.90
   2   7 -10   44.37    3.51
  -2  -7  10   39.37    5.35
   1   7 -10    0.39    0.40
  -1  -7  10    0.95    1.33
   0   7 -10   62.62    4.89
   0  -7  10   70.14    7.04
  -1   7 -10    8.06    0.98
   1  -7  10    8.17    2.32
  -2   7 -10   15.15    1.43
   2  -7  10   16.04    3.30
  -3   7 -10  103.64    7.82
   3  -7  10  113.64    9.95
  -4   7 -10   23.85    2.01
   4  -7  10   26.64    3.83
   4  -7  10   20.13    3.57
  -5   7 -10   37.02    3.21
   5  -7  10   48.67    5.76
   5  -7  10   42.74    5.29
  -6   7 -10   85.73    6.78
   6  -7  10   89.90    9.13
   6  -7  10  105.73    8.73
  -7   7 -10    2.80    0.61
   7  -7  10    3.05    1.75
   7  -7  10    1.11    1.30
  -8   7 -10   59.17    4.96
   8  -7  10   76.14    6.62
   9  -7  10   59.35    7.49
   9  -7  10   60.71    6.02
  10  -7  10    5.92    2.75
   3   6 -10   62.95    5.02
  -3  -6  10   71.72    7.28
   2   6 -10   33.06    2.71
  -2  -6  10   31.88    4.33
   1   6 -10   29.71    2.52
  -1  -6  10   32.32    4.41
   0   6 -10  119.19    8.92
   0  -6  10  128.72   11.06
  -1   6 -10    7.60    1.02
   1  -6  10   12.20    2.80
  -2   6 -10   61.38    4.80
   2  -6  10   68.66    6.74
  -3   6 -10   84.01    6.31
   3  -6  10   87.56    8.23
  -4   6 -10    0.40    0.39
   4  -6  10    1.73    1.10
  -5   6 -10  113.47    8.52
   5  -6  10  125.51   10.26
   5  -6  10  113.21   10.42
  -6   6 -10  160.82   12.59
   6  -6  10  191.87   14.33
   6  -6  10  178.01   14.94
  -7   6 -10    6.74    0.95
   7  -6  10    7.76    2.07
   7  -6  10    8.64    2.59
  -8   6 -10   80.52    6.33
   8  -6  10   89.99    8.92
  -9   6 -10   74.28    6.12
   9  -6  10   90.96    7.41
 -10   6 -10   10.38    1.28
  10  -6  10   10.66    3.37
 -11   6 -10   42.13    3.55
  11  -6  10   45.87    6.38
   5   5 -10   60.89    4.81
  -5  -5  10   64.61    6.97
   4   5 -10    1.69    0.59
  -4  -5  10   -0.57    1.27
   3   5 -10   33.41    2.88
  -3  -5  10   39.01    4.66
   2   5 -10    5.03    0.82
  -2  -5  10    4.59    1.96
   1   5 -10   52.35    4.10
  -1  -5  10   55.33    5.94
   0   5 -10  156.60   11.69
   0  -5  10  171.32   13.78
  -1   5 -10    5.46    0.83
   1  -5  10    7.51    2.30
  -2   5 -10   50.05    3.77
   2  -5  10   57.04    5.84
   2  -5  10   43.75    4.58
  -3   5 -10   81.98    6.26
   3  -5  10   88.68    7.92
  -4   5 -10   12.07    1.27
   4  -5  10   10.57    2.38
   4  -5  10   11.55    2.43
  -5   5 -10  130.51    9.62
   5  -5  10  135.01   11.10
  -6   5 -10   76.98    6.19
   6  -5  10   93.28    7.68
   6  -5  10   82.65    8.03
  -7   5 -10   19.67    1.93
   7  -5  10   21.59    3.72
   7  -5  10   24.00    3.09
  -8   5 -10  117.14    9.36
   8  -5  10  129.31   11.71
   8  -5  10  140.23   10.59
  -9   5 -10    6.38    1.01
   9  -5  10    6.56    1.73
   9  -5  10    7.42    2.55
  10  -5  10   54.01    6.70
 -11   5 -10   79.49    6.47
  11  -5  10   93.85    9.43
 -12   5 -10    3.46    0.80
  12  -5  10    6.66    2.69
   6   4 -10   42.27    3.54
  -6  -4  10   45.66    5.55
   5   4 -10    1.92    0.61
  -5  -4  10    3.50    1.81
   4   4 -10   61.63    4.76
  -4  -4  10   52.60    6.18
   3   4 -10   70.13    5.35
  -3  -4  10   71.26    7.05
   2   4 -10    2.02    0.56
  -2  -4  10    1.32    1.25
   1   4 -10   65.26    5.16
  -1  -4  10   74.34    6.95
   0   4 -10   65.68    4.98
   0  -4  10   66.32    6.56
  -1   4 -10    6.52    0.91
   1  -4  10    7.26    1.19
   1  -4  10    7.26    2.12
  -2   4 -10  139.23   10.04
   2  -4  10  145.28   11.66
   2  -4  10  132.96   11.06
  -3   4 -10   81.44    6.03
   3  -4  10   88.69    7.57
   3  -4  10   75.69    6.94
  -4   4 -10   47.02    3.84
   4  -4  10   48.22    5.11
   4  -4  10   52.85    5.07
  -5   4 -10  135.30    9.68
   5  -4  10  131.99   10.90
   5  -4  10  129.64   11.07
  -6   4 -10   19.40    1.92
   6  -4  10   22.73    2.96
   6  -4  10   23.57    3.55
  -7   4 -10  107.63    8.41
   7  -4  10  125.76    9.60
   7  -4  10  111.85   10.31
  -8   4 -10  265.31   19.55
   8  -4  10  275.27   21.79
   8  -4  10  280.70   20.53
  -9   4 -10   46.67    3.90
   9  -4  10   48.00    5.07
   9  -4  10   51.19    6.01
 -10   4 -10   49.60    4.38
  10  -4  10   58.42    6.72
  10  -4  10   59.79    5.13
 -11   4 -10   63.76    5.20
  11  -4  10   70.12    7.79
 -12   4 -10    6.31    1.08
  12  -4  10   11.14    3.12
 -13   4 -10   63.12    5.33
  13  -4  10   74.99    8.44
   6   3 -10   67.45    5.41
  -6  -3  10   75.03    7.40
   5   3 -10    1.75    0.59
  -5  -3  10    2.05    1.57
   4   3 -10   89.55    6.56
  -4  -3  10   83.65    8.20
   3   3 -10   39.40    3.19
   2   3 -10   22.21    1.98
  -2  -3  10   22.22    3.31
   1   3 -10  145.00   10.33
  -1  -3  10  138.57   11.87
   0   3 -10   81.65    6.15
   0  -3  10   84.01    7.65
  -1   3 -10   52.04    4.25
   1  -3  10   58.40    4.36
   1  -3  10   54.64    5.55
  -2   3 -10  161.94   11.80
   2  -3  10  166.03   13.23
  -3   3 -10   28.76    2.29
   3  -3  10   26.21    2.94
   3  -3  10   24.53    3.21
  -4   3 -10  107.29    7.96
   4  -3  10  117.18    9.28
   4  -3  10  103.38    8.95
  -5   3 -10  150.44   11.45
   5  -3  10  170.06   12.70
   5  -3  10  157.24   12.77
  -6   3 -10    1.04    0.50
   6  -3  10    1.20    1.08
   6  -3  10    1.73    1.13
  -7   3 -10  116.67    8.87
   7  -3  10  122.94   10.68
   7  -3  10  123.49    9.85
  -8   3 -10   96.19    7.54
   8  -3  10  104.43    8.39
   8  -3  10  103.85    9.48
  -9   3 -10    6.25    0.99
   9  -3  10    5.58    2.09
   9  -3  10    6.12    1.44
 -10   3 -10  120.65    9.74
  10  -3  10  131.66   12.05
  10  -3  10  143.55   10.34
 -11   3 -10   30.14    2.96
 -12   3 -10   37.88    3.16
  12  -3  10   32.60    5.22
 -13   3 -10  131.25   10.90
  13  -3  10  170.90   14.35
   7   2 -10   48.44    4.07
  -7  -2  10   52.88    5.85
   6   2 -10   62.09    4.91
  -6  -2  10   63.20    6.61
   5   2 -10    9.13    1.49
  -5  -2  10   14.64    2.83
   4   2 -10  100.78    7.55
  -4  -2  10  102.69    9.33
   3   2 -10   47.92    3.83
  -3  -2  10   49.76    5.34
   2   2 -10   59.34    4.69
  -2  -2  10   64.41    6.19
   1   2 -10  112.30    8.01
  -1  -2  10  104.00    9.32
   0   2 -10   11.89    1.30
   0  -2  10   14.56    2.70
  -1   2 -10  145.17   10.59
   1  -2  10  147.40   11.95
  -2   2 -10  409.77   29.53
   2  -2  10  449.68   29.90
   2  -2  10  390.37   30.73
  -3   2 -10    8.76    1.01
   3  -2  10    6.27    1.67
  -4   2 -10   73.49    5.62
   4  -2  10   75.55    6.49
   4  -2  10   76.15    6.73
  -5   2 -10  113.70    8.57
   5  -2  10  119.39    9.74
   5  -2  10  118.33    9.57
  -6   2 -10    1.11    0.50
   6  -2  10    2.33    1.29
  -7   2 -10  254.83   17.66
   7  -2  10  229.36   21.27
   7  -2  10  250.86   18.51
  -8   2 -10  129.58    9.69
   8  -2  10  136.98   11.54
   8  -2  10  129.75   10.40
  -9   2 -10   28.97    2.77
   9  -2  10   37.32    3.46
   9  -2  10   30.49    4.39
 -10   2 -10   72.26    5.85
  10  -2  10   77.08    7.91
  10  -2  10   78.13    6.29
  11  -2  10   13.96    1.86
  11  -2  10   12.73    3.31
 -12   2 -10   76.84    6.47
  12  -2  10   95.29    9.25
 -13   2 -10  158.10   12.86
  13  -2  10  198.42   16.13
 -14   2 -10   -0.76    0.54
  14  -2  10   -0.80    1.59
   8   1 -10   31.32    2.86
  -8  -1  10   31.80    4.30
   7   1 -10  139.87   10.44
  -7  -1  10  143.29   12.16
   6   1 -10   50.49    4.07
  -6  -1  10   49.72    5.56
   5   1 -10   41.28    3.46
  -5  -1  10   43.82    4.93
   4   1 -10  114.32    8.16
  -4  -1  10  104.15    9.52
   3   1 -10   20.37    1.84
  -3  -1  10   17.70    2.95
   2   1 -10   84.11    6.27
  -2  -1  10   83.37    7.59
   1   1 -10  292.02   20.88
  -1  -1  10  295.17   22.30
   0   1 -10    0.99    0.40
   0  -1  10    2.21    1.18
  -1   1 -10  157.43   11.47
   1  -1  10  160.51   12.75
  -2   1 -10  124.40    8.93
   2  -1  10  119.52   10.06
  -3   1 -10    3.51    0.67
   3  -1  10    4.13    1.00
   3  -1  10    2.47    1.31
  -4   1 -10  106.62    7.96
   4  -1  10  105.65    9.38
   4  -1  10  111.68    8.75
  -5   1 -10   87.38    6.89
   5  -1  10   92.54    7.83
   5  -1  10   99.23    7.99
  -6   1 -10   81.80    6.30
   6  -1  10   83.91    7.18
   6  -1  10   86.90    7.55
  -7   1 -10  270.81   19.96
   7  -1  10  283.87   21.51
   7  -1  10  284.22   20.75
  -8   1 -10   54.59    4.48
   8  -1  10   58.79    5.08
   8  -1  10   57.19    5.98
  -9   1 -10   18.90    2.02
   9  -1  10   23.37    2.54
   9  -1  10   21.63    3.51
 -10   1 -10   26.56    2.59
  10  -1  10   30.42    2.98
  10  -1  10   29.33    4.29
 -11   1 -10    1.73    0.58
  11  -1  10    1.78    1.68
  11  -1  10    1.23    0.78
 -12   1 -10  141.27   10.95
  12  -1  10  156.06   13.56
 -13   1 -10   93.40    7.80
  13  -1  10  115.79   10.67
 -14   1 -10    3.34    1.02
  14  -1  10    5.52    2.62
   8   0 -10    0.09    0.59
  -8   0  10    1.18    1.32
   7   0 -10   61.21    4.93
  -7   0  10   63.39    6.38
   6   0 -10    1.79    0.53
  -6   0  10    1.01    1.29
   5   0 -10   82.38    6.10
  -5   0  10   77.15    7.47
   4   0 -10   76.95    5.84
  -4   0  10   77.41    7.19
   3   0 -10    9.25    1.13
  -3   0  10    9.79    2.32
   2   0 -10  159.79   11.47
  -2   0  10  156.50   12.82
   1   0 -10  122.82    8.97
  -1   0  10  122.68   10.27
   0   0 -10   16.32    1.52
   0   0  10   15.65    2.57
  -1   0 -10  333.84   23.20
   1   0  10  319.15   24.34
  -2   0 -10   24.44    2.22
   2   0  10   23.71    3.02
   2   0  10   27.86    2.29
  -3   0 -10  166.89   12.79
   3   0  10  188.02   13.28
  -4   0 -10  112.76    8.69
   4   0  10  126.63    9.44
   4   0  10  116.41    9.62
  -5   0 -10   87.96    6.89
   5   0  10   85.96    7.68
   5   0  10  104.71    7.95
  -6   0 -10  232.99   17.52
   6   0  10  263.65   18.84
   6   0  10  238.47   18.30
  -7   0 -10  184.35   13.95
   7   0  10  196.72   15.38
   7   0  10  198.89   14.68
  -8   0 -10   41.65    3.41
   8   0  10   40.83    3.93
   8   0  10   40.10    4.74
  -9   0 -10  285.05   20.88
   9   0  10  291.08   21.30
   9   0  10  298.44   22.80
 -10   0 -10   76.75    6.41
  10   0  10   88.08    6.74
  10   0  10   85.86    8.34
 -11   0 -10    4.57    0.94
  11   0  10    4.93    2.17
  11   0  10    5.65    1.11
 -12   0 -10  146.98   11.31
  12   0  10  161.77   15.63
 -13   0 -10   45.44    4.14
  13   0  10   57.25    6.59
 -14   0 -10   36.92    3.69
  14   0  10   51.98    6.30
   9  -1 -10   12.96    1.62
  -9   1  10    7.66    2.13
   8  -1 -10   62.10    5.10
  -8   1  10   66.94    6.57
   7  -1 -10   66.81    5.18
  -7   1  10   64.23    6.47
   6  -1 -10   17.12    1.93
  -6   1  10   12.98    2.63
   5  -1 -10  135.66   10.04
  -5   1  10  138.26   11.41
   4  -1 -10   27.63    2.35
  -4   1  10   25.61    3.44
   3  -1 -10    6.01    0.92
  -3   1  10    6.85    1.78
   2  -1 -10  487.25   33.93
  -2   1  10  473.34   35.22
   1  -1 -10  157.75   11.18
  -1   1  10  150.63   12.33
   0  -1 -10  128.77    9.37
   0   1  10  128.82   10.52
  -1  -1 -10  300.87   20.91
   1   1  10  286.60   21.96
   2   1  10   33.56    2.72
   2   1  10   31.17    3.90
   3   1  10  107.68    7.69
   3   1  10   86.02    8.05
   4   1  10  499.90   33.19
   4   1  10  416.60   33.23
  -5  -1 -10    3.33    0.67
   5   1  10    3.08    1.11
   5   1  10    3.49    1.19
  -6  -1 -10  312.39   21.99
   6   1  10  307.24   23.40
   6   1  10  305.85   22.70
  -7  -1 -10  204.28   15.00
   7   1  10  219.63   16.40
   7   1  10  200.28   15.59
  -8  -1 -10    3.84    0.82
   8   1  10    4.74    1.73
   8   1  10    2.94    1.12
  -9  -1 -10  210.81   16.21
   9   1  10  227.16   18.00
   9   1  10  235.47   16.65
 -10  -1 -10   17.67    2.13
  10   1  10   26.45    2.50
  10   1  10   24.40    3.74
 -11  -1 -10   58.29    5.39
  11   1  10   71.32    7.45
  11   1  10   77.96    5.68
 -12  -1 -10  181.49   13.73
  12   1  10  197.90   19.71
 -13  -1 -10   23.76    2.49
  13   1  10   26.94    4.44
 -14  -1 -10   47.38    4.48
  14   1  10   63.77    7.08
   9  -2 -10    0.01    0.44
  -9   2  10   -1.21    0.99
   8  -2 -10  143.28   10.18
  -8   2  10  127.58   12.05
   7  -2 -10  156.65   11.44
  -7   2  10  155.08   12.77
   6  -2 -10    5.56    1.07
  -6   2  10    7.47    1.95
   5  -2 -10   70.40    5.45
  -5   2  10   72.13    6.69
   4  -2 -10   35.40    2.72
  -4   2  10   28.21    3.59
   3  -2 -10   99.15    7.34
  -3   2  10   99.27    8.54
   2  -2 -10  196.88   14.04
  -2   2  10  194.16   15.23
   1  -2 -10   64.04    4.64
  -1   2  10   56.28    5.55
   0  -2 -10  432.48   29.40
   0   2  10  398.32   30.42
  -1  -2 -10  290.95   20.57
  -2  -2 -10   11.22    1.26
   2   2  10    9.34    1.93
   2   2  10   12.73    1.28
  -3  -2 -10  142.42   10.08
   3   2  10  121.72   10.77
   3   2  10  149.12   10.48
  -4  -2 -10  203.17   14.88
   4   2  10  187.23   15.59
   4   2  10  229.99   15.62
  -5  -2 -10   34.33    3.24
   5   2  10   36.30    3.79
   5   2  10   43.57    3.98
  -6  -2 -10  314.41   22.61
   6   2  10  334.88   23.75
   6   2  10  303.13   23.25
  -7  -2 -10   73.00    5.50
   7   2  10   67.71    6.02
   7   2  10   74.33    6.71
  -8  -2 -10   63.67    5.47
   8   2  10   75.54    6.03
   8   2  10   74.41    6.89
  -9  -2 -10  169.04   13.05
   9   2  10  186.63   14.77
   9   2  10  182.02   13.44
 -10  -2 -10   22.83    2.37
  10   2  10   27.08    2.66
  10   2  10   26.12    3.68
 -11  -2 -10  150.62   12.54
  11   2  10  172.15   14.66
  11   2  10  189.63   12.82
 -12  -2 -10   73.07    6.12
  12   2  10   82.33    6.22
  12   2  10   78.47    8.44
 -13  -2 -10    0.07    0.56
  13   2  10    0.39    1.36
 -14  -2 -10  106.47    8.84
  14   2  10  128.57   11.62
   9  -3 -10    5.74    1.00
   8  -3 -10   99.06    7.45
  -8   3  10   96.74    8.61
   7  -3 -10   47.52    3.99
  -7   3  10   51.82    5.16
   6  -3 -10   32.59    2.77
  -6   3  10   33.10    3.86
   5  -3 -10   87.85    6.64
  -5   3  10   89.85    7.85
   4  -3 -10   20.83    1.83
  -4   3  10   18.81    2.64
   3  -3 -10  185.71   13.30
  -3   3  10  183.85   14.41
   2  -3 -10  263.05   18.24
  -2   3  10  248.00   19.27
   1  -3 -10   34.12    2.65
  -1   3  10   29.60    3.47
   0  -3 -10  218.49   14.32
   0   3  10  174.02   15.37
  -1  -3 -10  184.86   12.60
  -1  -3 -10  170.25   12.92
   1   3  10  170.34   13.45
  -2  -3 -10   32.24    2.48
   2   3  10   29.34    2.57
   2   3  10   26.67    3.08
  -3  -3 -10  531.09   36.37
   3   3  10  499.72   37.15
  -4  -3 -10   90.64    6.83
   4   3  10   85.91    7.51
   4   3  10   98.05    7.49
  -5  -3 -10  175.73   12.47
   5   3  10  182.64   13.20
   5   3  10  150.45   12.86
  -6  -3 -10  111.04    8.43
   6   3  10  123.63    9.54
   6   3  10  107.67    9.02
  -7  -3 -10   63.58    5.11
   7   3  10   65.20    5.64
   7   3  10   69.67    6.32
  -8  -3 -10  115.41    9.08
   8   3  10  133.27    9.65
   8   3  10  119.67   10.43
  -9  -3 -10  164.93   12.69
   9   3  10  174.14   14.28
   9   3  10  182.58   13.11
 -10  -3 -10   25.71    2.44
  10   3  10   25.08    2.65
  10   3  10   26.25    3.81
 -11  -3 -10  328.46   25.79
  11   3  10  391.68   26.12
  11   3  10  361.52   27.88
 -12  -3 -10   52.68    4.76
  12   3  10   64.86    5.06
 -13  -3 -10   18.85    2.19
  13   3  10   23.64    4.08
 -14  -3 -10   69.55    5.97
  14   3  10   80.98    8.50
   9  -4 -10   21.79    2.11
  -9   4  10   20.99    3.09
   8  -4 -10   50.83    4.12
  -8   4  10   49.90    5.13
   7  -4 -10    3.58    0.76
  -7   4  10    4.82    1.57
   6  -4 -10  123.03    9.16
  -6   4  10  125.81   10.28
   5  -4 -10  110.55    8.51
  -5   4  10  122.51    9.69
   4  -4 -10    3.77    0.67
  -4   4  10    3.63    1.37
   3  -4 -10  155.24   11.26
  -3   4  10  156.57   12.30
   2  -4 -10   78.50    6.00
  -2   4  10   83.94    7.01
   1  -4 -10   36.20    2.54
   1  -4 -10   25.82    2.51
   1  -4 -10   30.79    2.42
  -1   4  10   33.61    3.34
   0  -4 -10  250.62   16.80
   0  -4 -10  216.80   17.09
  -1  -4 -10  174.64   11.98
  -1  -4 -10  162.99   12.63
   1   4  10  161.97   12.79
  -2  -4 -10   47.06    3.86
  -2  -4 -10   60.77    4.86
   2   4  10   43.84    4.50
  -3  -4 -10  295.18   20.67
   3   4  10  301.10   21.16
   3   4  10  274.73   21.39
  -4  -4 -10   20.69    1.94
   4   4  10   19.31    2.53
   4   4  10   25.88    2.63
  -5  -4 -10  347.75   25.35
   5   4  10  342.90   26.00
   5   4  10  380.33   26.33
  -6  -4 -10  229.89   16.65
   6   4  10  240.98   17.77
   6   4  10  224.78   17.24
  -7  -4 -10    8.15    1.23
   7   4  10   10.19    2.22
   7   4  10   11.48    1.73
  -8  -4 -10   93.11    7.34
   8   4  10   99.33    7.83
   8   4  10  100.38    8.73
  -9  -4 -10  106.54    8.22
   9   4  10  113.20    8.64
   9   4  10  108.51    9.67
 -10  -4 -10   96.83    7.65
  10   4  10  100.21    8.00
  10   4  10  107.63    9.46
 -11  -4 -10  459.76   34.91
  11   4  10  534.36   35.32
  11   4  10  478.42   36.90
 -12  -4 -10   71.08    6.22
  12   4  10   82.47    9.47
 -13  -4 -10   66.29    5.53
  13   4  10   70.94    7.50
 -14  -4 -10  118.24    9.47
  14   4  10  131.78   12.03
   9  -5 -10   33.90    2.96
  -9   5  10   31.42    3.76
   8  -5 -10   49.85    4.00
  -8   5  10   48.42    4.94
   7  -5 -10   -0.77    0.42
  -7   5  10   -0.78    0.71
   6  -5 -10   94.16    7.26
   6  -5 -10   95.01    7.10
  -6   5  10   95.65    8.12
   5  -5 -10   80.93    5.73
   5  -5 -10   70.32    5.84
  -5   5  10   77.41    6.69
   4  -5 -10   18.46    1.62
   4  -5 -10   15.09    1.73
  -4   5  10   16.81    2.26
   3  -5 -10  229.38   18.12
   3  -5 -10  274.85   17.85
  -3   5  10  248.16   18.75
   2  -5 -10   13.41    1.19
   2  -5 -10    8.47    1.43
  -2   5  10   12.98    1.85
   1  -5 -10   86.26    5.95
   1  -5 -10   68.98    6.46
  -1   5  10   88.51    6.88
   0  -5 -10  286.95   19.11
   0  -5 -10  251.10   19.94
  -1  -5 -10  131.85    9.37
  -1  -5 -10  136.81   10.50
   1   5  10  119.09   10.08
  -2  -5 -10  243.50   17.66
  -2  -5 -10  279.64   18.93
   2   5  10  222.21   18.34
  -3  -5 -10  333.30   22.25
   3   5  10  287.19   22.90
   3   5  10  318.43   22.81
  -4  -5 -10    2.78    1.29
  -4  -5 -10    3.23    0.62
   4   5  10    3.59    1.16
   4   5  10    2.23    0.98
  -5  -5 -10  265.32   19.60
   5   5  10  295.70   20.66
   5   5  10  262.95   20.24
  -6  -5 -10  136.24   10.46
   6   5  10  147.69   11.44
   6   5  10  137.30   10.89
  -7  -5 -10    6.85    1.05
   7   5  10    5.68    1.38
  -8  -5 -10  305.84   22.10
   8   5  10  312.64   23.58
   8   5  10  308.96   22.61
  -9  -5 -10   22.01    2.17
   9   5  10   24.62    3.35
   9   5  10   20.76    2.47
 -10  -5 -10   82.96    6.53
  10   5  10   86.06    6.97
  10   5  10   86.42    8.20
 -11  -5 -10  304.82   23.11
  11   5  10  335.19   23.58
  11   5  10  326.15   25.14
 -12  -5 -10    4.71    0.98
  12   5  10    2.30    1.20
  12   5  10    4.05    1.94
 -13  -5 -10   50.38    4.68
  13   5  10   65.31    6.93
 -14  -5 -10  129.33    9.92
  14   5  10  131.78   12.19
   9  -6 -10   71.02    5.64
  -9   6  10   73.52    6.51
   8  -6 -10   42.30    3.63
  -8   6  10   45.83    4.53
   7  -6 -10   18.04    1.94
   7  -6 -10   20.60    2.56
  -7   6  10   24.17    2.87
   6  -6 -10   85.75    7.21
   6  -6 -10   90.97    6.60
  -6   6  10   86.73    7.50
   5  -6 -10   38.76    3.83
   5  -6 -10   39.48    3.18
  -5   6  10   39.71    4.03
   4  -6 -10   74.28    6.53
   4  -6 -10   82.99    5.86
  -4   6  10   76.95    6.70
   3  -6 -10  211.80   14.42
  -3   6  10  190.06   15.22
   2  -6 -10    1.46    0.47
  -2   6  10    1.06    0.70
   1  -6 -10  171.19   13.94
  -1   6  10  188.22   13.71
   0  -6 -10  347.98   27.73
   0  -6 -10  405.15   26.57
   0   6  10  374.63   27.37
  -1  -6 -10   80.44    7.20
  -1  -6 -10   81.51    5.96
  -2  -6 -10   61.82    5.85
  -2  -6 -10   59.86    4.60
   2   6  10   62.35    5.41
  -3  -6 -10   77.33    6.05
  -3  -6 -10   93.24    7.56
   3   6  10   76.10    6.75
  -4  -6 -10  105.25    8.28
  -4  -6 -10   89.27    6.74
   4   6  10   82.04    7.37
   4   6  10   88.74    7.54
  -5  -6 -10  642.74   42.91
  -5  -6 -10  569.51   41.31
   5   6  10  586.20   42.38
   5   6  10  547.32   41.95
  -6  -6 -10  296.91   21.65
   6   6  10  267.66   20.71
   6   6  10  279.93   21.30
  -7  -6 -10   24.73    2.35
   7   6  10   25.00    2.92
   7   6  10   30.33    3.62
  -8  -6 -10  115.63    8.42
   8   6  10  115.30    9.88
   8   6  10  108.50    8.95
  -9  -6 -10   24.82    2.36
   9   6  10   26.52    3.57
   9   6  10   24.84    3.15
 -10  -6 -10  101.34    8.02
  10   6  10  112.40    9.88
 -11  -6 -10  111.28    8.87
  11   6  10  126.54   10.87
 -12  -6 -10    7.03    1.18
  12   6  10    7.96    2.39
 -13  -6 -10  206.43   15.53
  13   6  10  217.68   17.78
 -14  -6 -10  101.28    8.26
  14   6  10  114.12   10.71
   9  -7 -10  119.12    9.24
  -9   7  10  129.79   10.11
   8  -7 -10   17.00    1.84
   8  -7 -10   17.54    2.90
  -8   7  10   21.39    2.67
   7  -7 -10   20.96    2.48
   7  -7 -10   26.85    3.37
  -7   7  10   32.64    3.34
   6  -7 -10   64.63    4.90
   6  -7 -10   63.77    5.97
  -6   7  10   63.19    5.75
   5  -7 -10    8.47    1.01
   5  -7 -10    6.38    1.77
  -5   7  10    7.68    1.64
   4  -7 -10  221.35   15.34
   4  -7 -10  201.30   16.43
  -4   7  10  221.00   16.25
   3  -7 -10   62.33    6.62
   3  -7 -10   85.36    5.67
  -3   7  10   79.86    6.49
   2  -7 -10   15.51    2.59
   2  -7 -10   14.64    1.38
  -2   7  10   14.36    2.03
   1  -7 -10  356.56   24.63
   1  -7 -10  310.14   25.93
  -1   7  10  374.06   25.40
   0  -7 -10  232.27   15.83
   0  -7 -10  202.78   17.25
   0   7  10  231.79   16.66
  -1  -7 -10    5.69    0.74
  -1  -7 -10    5.63    1.75
   1   7  10    5.67    1.33
  -2  -7 -10  180.04   14.05
  -2  -7 -10  164.03   12.37
   2   7  10  176.83   13.21
  -3  -7 -10   53.99    5.56
  -3  -7 -10   50.54    4.02
   3   7  10   54.76    4.82
  -4  -7 -10   49.76    5.14
  -4  -7 -10   46.58    3.61
   4   7  10   46.41    4.35
   4   7  10   42.53    4.42
  -5  -7 -10  192.27   14.02
  -5  -7 -10  207.63   15.72
   5   7  10  190.74   15.15
   5   7  10  190.18   14.75
  -6  -7 -10    7.09    2.03
   6   7  10    6.13    1.41
   6   7  10    6.08    1.75
  -7  -7 -10  304.63   22.75
  -7  -7 -10  277.53   20.95
   7   7  10  286.14   21.64
   7   7  10  307.52   22.57
  -8  -7 -10  101.54    7.83
  -8  -7 -10  111.41    9.65
   8   7  10  100.96    8.45
   8   7  10  106.58    9.37
  -9  -7 -10    1.14    0.59
   9   7  10    0.80    0.96
   9   7  10    0.50    0.88
 -10  -7 -10  184.07   13.29
  10   7  10  194.06   15.29
  10   7  10  168.70   13.85
 -11  -7 -10  110.91    8.01
  11   7  10   99.68    8.57
 -12  -7 -10    2.62    0.89
  12   7  10    2.57    1.64
  12   7  10    2.23    1.22
 -13  -7 -10  174.56   12.72
  13   7  10  185.69   15.13
  13   7  10  156.11   13.35
 -14  -7 -10   26.96    2.69
  14   7  10   27.23    4.51
   9  -8 -10   66.20    5.31
  -9   8  10   69.55    6.05
   8  -8 -10    0.61    0.47
   8  -8 -10    0.15    1.37
  -8   8  10    1.17    0.89
  -7   8  10   55.30    5.13
   6  -8 -10  125.39   11.05
   6  -8 -10  124.99    9.59
  -6   8  10  145.57   10.58
   5  -8 -10   -0.42    0.32
   5  -8 -10   -0.04    1.04
  -5   8  10   -0.35    0.57
   4  -8 -10  184.34   13.16
   4  -8 -10  167.05   14.67
  -4   8  10  199.06   14.09
   3  -8 -10  144.98    9.82
   3  -8 -10  125.53   11.45
  -3   8  10  135.04   10.61
   2  -8 -10   13.65    2.97
   2  -8 -10   14.88    1.33
  -2   8  10   12.64    1.95
   1  -8 -10  184.07   12.39
   1  -8 -10  151.49   14.04
  -1   8  10  181.76   13.22
   0  -8 -10   23.92    3.57
   0  -8 -10   24.83    1.98
   0   8  10   22.71    2.60
  -1  -8 -10   87.53    8.07
  -1  -8 -10   86.15    6.26
   1   8  10   83.52    7.02
  -2  -8 -10  465.53   34.64
  -2  -8 -10  494.96   36.63
   2   8  10  519.30   35.57
  -3  -8 -10   64.05    4.68
  -3  -8 -10   61.32    6.41
   3   8  10   61.19    5.43
  -4  -8 -10   62.74    6.34
  -4  -8 -10   58.49    4.53
   4   8  10   59.18    5.29
  -5  -8 -10  167.12   12.46
  -5  -8 -10  188.03   14.46
   5   8  10  165.31   13.70
   5   8  10  173.84   13.28
  -6  -8 -10   11.71    1.40
  -6  -8 -10   10.35    2.56
   6   8  10   11.02    2.49
   6   8  10   11.47    2.05
  -7  -8 -10  160.53   11.78
  -7  -8 -10  159.83   13.59
   7   8  10  167.24   13.44
   7   8  10  161.15   12.57
  -8  -8 -10   79.92    7.63
  -8  -8 -10   71.35    5.71
   8   8  10   78.76    7.37
   8   8  10   70.71    6.43
  -9  -8 -10   53.54    4.26
  -9  -8 -10   58.39    6.28
   9   8  10   53.08    5.93
   9   8  10   48.74    4.90
 -10  -8 -10  186.75   15.00
 -10  -8 -10  164.68   12.46
  10   8  10  176.79   14.49
  10   8  10  157.25   13.18
 -11  -8 -10   54.29    6.34
 -11  -8 -10   39.30    3.71
  11   8  10   40.28    4.44
  11   8  10   51.55    5.80
 -12  -8 -10   55.24    4.61
 -12  -8 -10   64.88    7.27
  12   8  10   56.35    6.44
  12   8  10   51.57    5.39
 -13  -8 -10  149.33   12.84
 -13  -8 -10  115.61    9.16
  13   8  10  124.35   11.39
  13   8  10  104.94    9.94
   9  -9 -10   97.83    8.94
   9  -9 -10   85.80    6.86
  -9   9  10   90.25    7.57
   8  -9 -10    0.66    0.47
   8  -9 -10   -1.52    1.17
  -8   9  10   -1.21    0.58
   7  -9 -10   74.47    7.45
  -7   9  10   74.67    6.46
   6  -9 -10   81.78    8.17
   6  -9 -10   83.69    6.33
  -6   9  10   88.54    7.19
   5  -9 -10   17.55    1.60
   5  -9 -10   16.22    3.22
  -5   9  10   16.75    2.24
   4  -9 -10  129.96    9.10
   4  -9 -10  112.24   11.00
  -4   9  10  131.72    9.98
   3  -9 -10   17.62    1.55
   3  -9 -10   14.43    3.29
  -3   9  10   18.05    2.18
   2  -9 -10   89.65    6.29
   2  -9 -10   76.39    8.26
  -2   9  10   88.57    7.12
   1  -9 -10  312.55   20.14
   1  -9 -10  247.28   22.09
  -1   9  10  288.78   20.96
   0  -9 -10    6.32    0.74
   0  -9 -10    5.25    2.01
   0   9  10    6.04    1.39
  -1  -9 -10   35.88    4.75
  -1  -9 -10   40.89    3.04
   1   9  10   40.33    3.85
  -2  -9 -10  142.26   12.45
  -2  -9 -10  139.07   10.28
   2   9  10  150.46   11.21
  -3  -9 -10    5.14    0.72
  -3  -9 -10    4.70    1.90
   3   9  10    6.05    1.51
  -4  -9 -10  242.98   18.07
  -4  -9 -10  251.82   20.23
   4   9  10  270.82   19.08
  -5  -9 -10  127.47   11.22
  -5  -9 -10  124.06    9.16
   5   9  10  127.34   10.06
  -6  -9 -10    8.74    2.40
  -6  -9 -10    9.80    1.17
   6   9  10    9.67    2.26
   6   9  10   10.46    1.98
  -7  -9 -10  137.97    9.61
  -7  -9 -10  120.82   11.36
   7   9  10  126.24   10.46
   7   9  10  138.27   11.39
  -8  -9 -10   17.67    3.37
  -8  -9 -10   20.06    1.92
   8   9  10   21.35    2.78
   8   9  10   21.56    3.49
  -9  -9 -10   70.28    7.32
  -9  -9 -10   61.57    5.12
   9   9  10   75.39    7.26
   9   9  10   61.03    5.94
 -10  -9 -10  218.21   17.33
 -10  -9 -10  195.42   14.63
  10   9  10  182.33   15.49
  10   9  10  215.57   16.94
 -11  -9 -10    0.48    0.65
 -11  -9 -10    1.32    1.45
  11   9  10    2.75    1.65
  11   9  10    0.91    1.19
 -12  -9 -10   86.22    8.86
 -12  -9 -10   72.15    5.86
  12   9  10   66.73    6.75
  12   9  10   76.43    8.01
 -13  -9 -10  134.68   12.20
 -13  -9 -10  106.29    8.53
  13   9  10  103.34    9.59
  13   9  10  113.30   10.85
   8 -10 -10   -0.47    1.51
   8 -10 -10    0.07    0.40
  -8  10  10   -0.02    0.81
   7 -10 -10   63.35    5.57
   7 -10 -10   74.37    7.78
  -7  10  10   76.77    6.31
   6 -10 -10   15.19    1.55
   6 -10 -10   13.79    3.49
  -6  10  10   16.99    2.22
   5 -10 -10   40.53    5.69
   5 -10 -10   44.80    3.50
  -5  10  10   47.51    4.35
   4 -10 -10  137.01   13.07
   4 -10 -10  147.46   10.65
  -4  10  10  157.32   11.58
   3 -10 -10    0.70    0.35
   3 -10 -10   -1.61    1.28
  -3  10  10    0.17    0.70
   2 -10 -10  176.82   12.23
   2 -10 -10  157.29   14.50
  -2  10  10  171.25   12.96
   1 -10 -10  107.27   11.10
   1 -10 -10  126.97    8.92
  -1  10  10  134.71    9.87
   0 -10 -10    5.57    0.67
   0 -10 -10    4.04    2.15
   0  10  10    5.00    1.25
  -1 -10 -10  171.28   15.00
  -1 -10 -10  177.39   12.58
   1  10  10  180.86   13.52
  -2 -10 -10   68.54    5.08
  -2 -10 -10   61.67    7.18
   2  10  10   76.64    6.12
  -3 -10 -10  105.15    8.02
  -3 -10 -10  117.10   10.49
   3  10  10  114.30    9.06
  -4 -10 -10  217.26   16.26
  -4 -10 -10  223.29   18.70
   4  10  10  248.91   17.42
  -5 -10 -10   14.93    1.36
  -5 -10 -10   13.30    3.19
   5  10  10   13.26    2.06
  -6 -10 -10   87.74    6.68
  -6 -10 -10   90.78    8.88
   6  10  10   94.13    7.74
  -7 -10 -10  196.84   14.23
  -7 -10 -10  187.65   16.42
   7  10  10  197.18   15.32
   7  10  10  211.52   16.38
  -8 -10 -10    6.79    2.36
  -8 -10 -10    6.90    0.99
   8  10  10    8.61    2.58
   8  10  10    7.54    1.71
  -9 -10 -10  121.93    9.22
  -9 -10 -10  121.22   11.46
   9  10  10  128.99   11.39
   9  10  10  130.17   10.39
 -10 -10 -10   92.91    9.37
 -10 -10 -10   85.98    6.92
  10  10  10  102.78    9.34
  10  10  10   88.94    8.05
 -11 -10 -10    8.30    1.23
 -11 -10 -10   11.66    3.42
  11  10  10    7.41    2.56
  11  10  10   10.24    2.20
 -12 -10 -10   83.13    6.69
 -12 -10 -10   87.55    9.41
  12  10  10   91.64    9.09
   7 -11 -10   76.43    5.90
   7 -11 -10   75.10    8.42
  -7  11  10   74.57    6.49
   6 -11 -10   -1.40    1.19
   6 -11 -10    0.04    0.39
  -6  11  10    0.47    0.71
   5 -11 -10   94.55    7.06
   5 -11 -10   93.11    9.81
  -5  11  10  100.30    8.00
   4 -11 -10  101.44    7.46
   4 -11 -10   97.92   10.24
  -4  11  10  106.39    8.39
   3 -11 -10   -0.46    0.30
   3 -11 -10   -0.28    1.25
  -3  11  10    0.40    0.54
   2 -11 -10  227.06   16.17
   2 -11 -10  210.57   18.81
  -2  11  10  238.74   17.05
   1 -11 -10   78.11    9.12
   1 -11 -10   97.12    6.83
  -1  11  10  104.03    7.86
   0 -11 -10    0.63    1.53
   0 -11 -10    0.27    0.30
   0  11  10    0.99    0.81
  -1 -11 -10  141.74   13.74
  -1 -11 -10  157.37   11.19
   1  11  10  170.07   12.29
  -2 -11 -10   49.52    6.19
  -2 -11 -10   49.91    3.78
   2  11  10   53.11    4.82
  -3 -11 -10  101.22    7.43
  -3 -11 -10  100.39    9.98
   3  11  10  107.98    8.57
  -4 -11 -10  342.18   26.66
  -4 -11 -10  309.81   23.74
   4  11  10  363.63   25.04
  -5 -11 -10   28.48    2.33
  -5 -11 -10   28.76    4.51
   5  11  10   30.88    3.37
  -6 -11 -10   13.56    1.37
  -6 -11 -10   15.06    3.46
   6  11  10   18.17    2.60
  -7 -11 -10   70.75    7.63
  -7 -11 -10   68.04    5.38
   7  11  10   80.79    6.80
  -8 -11 -10   -0.68    1.33
  -8 -11 -10    1.03    0.43
   8  11  10    1.30    0.99
  -9 -11 -10  191.41   14.07
  -9 -11 -10  190.52   16.68
   9  11  10  222.34   16.84
   9  11  10  177.41   15.98
 -10 -11 -10   31.57    2.57
 -10 -11 -10   26.55    4.63
  10  11  10   28.37    4.57
  10  11  10   29.32    3.75
 -11 -11 -10    9.12    1.43
 -11 -11 -10   12.54    3.44
  11  11  10   10.79    3.01
  11  11  10   11.95    2.56
   7 -12 -10   93.43    9.41
   7 -12 -10   69.30    5.96
   6 -12 -10    0.54    0.35
   6 -12 -10    1.13    1.98
  -6  12  10    0.27    0.73
   5 -12 -10   58.22    7.44
   5 -12 -10   58.25    4.56
  -5  12  10   65.27    5.57
   4 -12 -10   20.21    4.30
   4 -12 -10   24.32    1.98
  -4  12  10   24.71    2.85
   3 -12 -10   51.19    6.59
   3 -12 -10   46.47    3.66
  -3  12  10   49.87    4.64
   2 -12 -10  126.17   13.01
   2 -12 -10  145.44   10.16
  -2  12  10  150.93   11.26
   1 -12 -10   62.49    4.37
   1 -12 -10   51.66    6.73
  -1  12  10   59.90    5.33
   0 -12 -10   30.08    5.02
   0 -12 -10   36.91    2.78
   0  12  10   41.17    3.88
  -1 -12 -10  142.73   14.26
  -1 -12 -10  164.68   11.46
   1  12  10  173.02   12.66
  -2 -12 -10    1.06    1.59
  -2 -12 -10    0.10    0.23
   2  12  10    0.42    0.75
  -3 -12 -10   56.78    7.23
  -3 -12 -10   60.68    4.60
   3  12  10   72.60    5.95
  -4 -12 -10   99.02   10.62
  -4 -12 -10  106.15    7.80
   4  12  10  121.51    9.22
  -5 -12 -10    1.24    0.39
  -5 -12 -10    2.23    1.66
   5  12  10    2.69    1.33
  -6 -12 -10  117.25    8.88
  -6 -12 -10  137.29   14.61
   6  12  10  125.82   11.02
  -7 -12 -10   87.56    8.88
  -7 -12 -10   74.72    5.99
   7  12  10   87.95    7.56
  -8 -12 -10   22.38    2.03
  -8 -12 -10   22.59    3.96
   8  12  10   30.51    3.63
  -9 -12 -10  109.23    8.07
  -9 -12 -10  100.34   10.57
   9  12  10  121.75    9.77
 -10 -12 -10   26.24    2.20
 -10 -12 -10   21.55    4.09
   6 -13 -10    1.53    2.15
   6 -13 -10    0.76    0.37
  -6  13  10    0.49    0.96
   5 -13 -10   49.61    3.82
   5 -13 -10   52.00    7.26
  -5  13  10   50.37    4.85
   4 -13 -10   26.79    2.16
  -4  13  10   26.38    3.14
   3 -13 -10   37.42    5.79
   2 -13 -10  118.45   11.99
   2 -13 -10  121.77    8.64
   1 -13 -10   14.91    3.80
   1 -13 -10   15.48    1.32
  -1  13  10   17.36    2.61
   0 -13 -10   31.48    2.53
   0 -13 -10   33.47    5.33
   0  13  10   41.24    4.31
  -1 -13 -10   47.12    6.46
  -1 -13 -10   46.01    3.40
  -2 -13 -10    0.59    1.29
  -2 -13 -10    0.05    0.20
  -3 -13 -10   91.10    6.98
  -3 -13 -10   90.41   10.05
   3  13  10  116.74    8.68
  -4 -13 -10   28.88    5.69
  -4 -13 -10   25.52    2.13
   4  13  10   35.60    3.73
  -5 -13 -10    9.15    2.98
  -5 -13 -10    9.80    0.91
   5  13  10    7.74    1.87
  -6 -13 -10  112.28   11.15
  -6 -13 -10  102.23    8.00
   6  13  10  128.24    9.88
  -7 -13 -10   13.28    3.51
  -7 -13 -10   13.41    1.25
   7  13  10   14.52    2.86
  -8 -13 -10   55.02    7.12
  -8 -13 -10   58.18    4.48
   8  13  10   69.95    6.37
  -9 -13 -10   34.71    5.10
  -9 -13 -10   22.30    2.51
   5 -14 -10   17.03    4.61
  -5  14  10   16.99    2.52
   4 -14 -10    6.00    2.77
  -4  14  10    4.62    1.40
   3 -14 -10   70.82    8.70
  -3  14  10   71.14    6.39
   2 -14 -10   74.27    9.30
  -2  14  10   92.02    7.45
   1 -14 -10   -0.42    1.56
  -1  14  10    0.42    0.88
   0 -14 -10   83.11   10.12
   0  14  10  109.21    8.45
  -1 -14 -10    7.46    2.93
   1  14  10   11.34    2.13
  -2 -14 -10   24.10    4.93
   2  14  10   28.93    3.33
  -3 -14 -10   79.81    9.28
   3  14  10   87.11    7.51
  -4 -14 -10   46.80    6.56
   4  14  10   52.32    5.16
  -5 -14 -10   49.30    6.71
   5  14  10   55.97    5.59
  -6 -14 -10  134.39   13.97
   6  14  10  170.12   12.85
  -7 -14 -10    0.81    1.36
   7  14  10    0.68    1.33
  -8 -14 -10   54.12    7.28
   8  14  10   64.38    6.41
   3 -15 -10   64.49    8.37
  -3  15  10   59.74    5.81
   2 -15 -10   13.99    3.97
  -2  15  10   18.93    2.67
   1 -15 -10   20.42    5.05
  -1  15  10   21.27    2.90
   0 -15 -10   77.63    9.67
   0  15  10   90.48    7.59
  -1 -15 -10    6.29    3.07
   1  15  10    5.77    1.76
  -2 -15 -10   61.03    8.05
   2  15  10   69.05    6.34
  -3 -15 -10   80.37   10.08
   3  15  10  106.11    8.55
  -4 -15 -10   15.60    4.33
   4  15  10   22.84    3.26
  -5 -15 -10   35.77    5.71
   5  15  10   39.71    4.63
  -6 -15 -10   50.05    7.20
   6  15  10   65.84    6.22
   0 -16 -10   50.73    7.52
   0  16  10   56.70    5.55
  -1 -16 -10    0.15    2.10
   1  16  10    0.36    0.94
  -2 -16 -10   14.23    4.33
   2  16  10   18.44    2.89
  -3 -16 -10   31.75    5.85
   3  16  10   32.80    4.10
  -1   7 -11  115.54    9.02
   1  -7  11  139.97   11.61
  -2   7 -11   16.10    1.63
   2  -7  11   23.19    3.80
  -3   7 -11   38.81    3.25
   3  -7  11   48.36    5.52
  -4   7 -11   36.86    3.13
   4  -7  11   45.80    5.31
  -5   7 -11   23.80    2.25
   5  -7  11   30.42    4.18
   5  -7  11   26.88    4.02
  -6   7 -11   80.12    6.01
  -7   7 -11    1.58    0.72
   7  -7  11    0.89    1.60
   7  -7  11    0.31    1.51
  -8   7 -11   24.26    2.24
   8  -7  11   28.09    4.67
   8  -7  11   26.81    3.99
  -2  -6  11   85.15    8.53
   1   6 -11    5.27    0.83
  -1  -6  11    5.48    2.30
   0   6 -11   38.02    3.07
   0  -6  11   38.22    5.07
  -1   6 -11   18.83    1.69
   1  -6  11   16.50    3.29
  -2   6 -11   30.00    2.56
   2  -6  11   33.13    4.47
  -3   6 -11   72.16    5.66
   3  -6  11   82.20    7.75
   4  -6  11    9.70    2.53
  -5   6 -11   85.15    6.75
   5  -6  11   99.06    8.63
   5  -6  11   93.15    8.59
  -6   6 -11   56.10    4.49
   6  -6  11   61.93    6.53
  -7   6 -11    2.91    0.66
   7  -6  11    1.96    1.52
   7  -6  11    7.40    2.25
   8  -6  11   52.14    5.48
   8  -6  11   46.80    6.10
  -9   6 -11   22.04    2.14
   9  -6  11   24.22    4.39
   9  -6  11   26.39    3.53
 -10   6 -11   20.14    2.02
  10  -6  11   23.95    4.61
  -3  -5  11   80.79    8.14
   2   5 -11    1.17    0.46
  -2  -5  11    0.64    1.53
   1   5 -11   29.29    2.55
  -1  -5  11   33.39    4.50
   0   5 -11  110.00    8.13
   0  -5  11  111.64   10.16
  -1   5 -11   -0.74    0.27
   1  -5  11   -0.66    1.22
  -2   5 -11   41.01    3.26
   2  -5  11   40.10    4.95
  -3   5 -11   57.54    4.57
   3  -5  11   66.42    7.17
  -4   5 -11    4.71    0.79
   4  -5  11    4.75    1.62
   4  -5  11    6.53    2.01
  -5   5 -11   94.83    7.52
   5  -5  11  105.11    9.19
   5  -5  11  109.71   10.16
  -6   5 -11   27.52    2.48
   6  -5  11   35.04    4.05
   6  -5  11   27.12    3.98
  -7   5 -11   23.98    2.31
   7  -5  11   26.80    3.62
   7  -5  11   29.65    4.12
  -8   5 -11   74.02    6.13
   8  -5  11   84.13    8.36
   8  -5  11   88.34    7.48
  -9   5 -11   42.06    3.70
   9  -5  11   53.70    4.93
   9  -5  11   42.49    5.88
 -10   5 -11   21.57    2.21
  10  -5  11   24.91    4.49
  10  -5  11   23.21    3.22
 -11   5 -11   37.83    3.41
  11  -5  11   47.11    6.24
   4   4 -11   43.78    3.66
  -4  -4  11   49.25    5.76
   3   4 -11   97.26    7.23
  -3  -4  11   96.25    9.14
   2   4 -11    0.97    0.53
  -2  -4  11    2.27    1.61
   1   4 -11  102.64    7.36
  -1  -4  11   93.42    9.13
   0   4 -11  117.72    8.72
   0  -4  11  121.07   10.59
  -1   4 -11    0.36    0.40
  -2   4 -11   91.08    7.11
   2  -4  11  104.93    8.98
  -3   4 -11   68.32    5.33
   3  -4  11   70.74    6.12
   3  -4  11   74.30    6.99
  -4   4 -11   80.42    6.03
   4  -4  11   79.26    7.50
   4  -4  11   81.22    7.13
  -5   4 -11  108.53    8.59
   5  -4  11  129.73   10.23
   5  -4  11  117.56   10.00
  -6   4 -11   29.94    2.65
   6  -4  11   35.06    3.97
   6  -4  11   31.25    4.09
  -7   4 -11   54.92    4.87
   7  -4  11   75.17    6.37
   7  -4  11   65.25    6.67
  -8   4 -11  152.49   11.88
   8  -4  11  169.91   14.11
   8  -4  11  169.69   13.06
  -9   4 -11   10.01    1.34
   9  -4  11    9.87    1.99
   9  -4  11   10.27    2.78
 -10   4 -11   49.79    4.26
  10  -4  11   56.66    5.15
 -11   4 -11   91.29    7.32
  11  -4  11  103.62   10.05
 -12   4 -11    0.41    0.56
  12  -4  11   -1.29    1.22
   5   3 -11    6.74    1.05
  -5  -3  11    6.81    2.45
   4   3 -11  103.36    7.93
  -4  -3  11  111.38    9.95
   3   3 -11   45.37    3.56
  -3  -3  11   40.13    4.94
   2   3 -11   16.23    1.57
  -2  -3  11   12.50    2.88
   1   3 -11  143.71   10.68
  -1  -3  11  151.39   12.62
   0   3 -11   72.80    5.50
   0  -3  11   72.18    7.10
  -1   3 -11    3.03    0.69
   1  -3  11    5.36    1.90
  -2   3 -11  117.69    9.36
   2  -3  11  145.24    9.72
   2  -3  11  117.94   10.78
  -3   3 -11    5.44    0.87
   3  -3  11    6.82    1.38
   3  -3  11    5.37    1.80
  -4   3 -11  132.76   10.44
   4  -3  11  141.17   11.39
   4  -3  11  163.34   12.08
  -5   3 -11  109.74    8.55
   5  -3  11  117.43    9.85
   5  -3  11  123.85    9.87
  -6   3 -11   14.59    1.58
   6  -3  11   14.42    2.48
   6  -3  11   19.47    2.91
  -7   3 -11   72.90    5.93
   7  -3  11   80.45    7.59
   7  -3  11   83.12    7.07
  -8   3 -11   93.85    7.25
   8  -3  11   98.26    8.22
   8  -3  11   98.16    9.12
  -9   3 -11    0.18    0.50
   9  -3  11   -0.37    1.07
   9  -3  11   -0.11    0.92
 -10   3 -11   79.93    6.26
  10  -3  11   74.65    7.03
  10  -3  11   76.76    8.09
 -11   3 -11   38.55    3.47
  11  -3  11   43.94    5.68
 -12   3 -11   21.86    2.32
  12  -3  11   28.20    4.65
  13  -3  11   91.99    9.86
   6   2 -11   81.61    6.60
  -6  -2  11   94.86    8.73
   5   2 -11    1.52    0.60
  -5  -2  11    0.42    1.46
   4   2 -11  163.15   12.01
  -4  -2  11  167.06   13.87
   3   2 -11   32.46    2.78
  -3  -2  11   33.15    4.31
   2   2 -11   17.85    1.71
  -2  -2  11   19.29    3.88
   1   2 -11  144.70   10.32
  -1  -2  11  136.86   11.85
   0   2 -11   36.94    3.01
   0  -2  11   36.31    4.30
  -1   2 -11   90.15    6.79
   1  -2  11   93.08    8.25
  -2   2 -11  189.14   15.10
   2  -2  11  198.11   16.49
   2  -2  11  239.15   15.24
  -3   2 -11    1.55    0.49
   3  -2  11    1.83    1.04
   3  -2  11    1.75    1.30
  -4   2 -11  170.43   12.62
   4  -2  11  180.22   13.97
  -5   2 -11  118.11    9.15
   5  -2  11  121.66   10.27
   5  -2  11  135.06   10.33
  -6   2 -11    6.89    1.02
   6  -2  11    7.46    1.84
   6  -2  11    7.23    1.92
  -7   2 -11   87.89    6.69
   7  -2  11   84.82    7.60
   7  -2  11   93.42    8.24
  -8   2 -11    9.27    1.21
   8  -2  11    8.86    2.39
   8  -2  11    7.96    1.87
  -9   2 -11   38.38    3.37
   9  -2  11   42.10    5.11
 -10   2 -11  154.07   12.26
  10  -2  11  173.89   14.54
  10  -2  11  173.48   12.86
 -11   2 -11   31.71    3.04
  11  -2  11   37.03    3.51
 -12   2 -11    5.12    1.00
  12  -2  11    6.24    2.68
 -13   2 -11   29.14    2.78
  13  -2  11   30.11    5.13
   7   1 -11   73.93    5.99
  -7  -1  11   81.64    7.86
   6   1 -11   61.68    5.06
  -6  -1  11   68.19    6.80
   5   1 -11   30.01    2.66
  -5  -1  11   31.56    4.28
   4   1 -11  130.39    9.81
  -4  -1  11  136.24   11.56
   3   1 -11   29.42    2.54
  -3  -1  11   28.91    3.83
   2   1 -11   64.54    5.13
  -2  -1  11   71.55    6.79
   1   1 -11   97.25    7.21
  -1  -1  11   96.02    8.70
   0   1 -11   32.01    2.71
   0  -1  11   32.47    3.98
  -1   1 -11  137.28    9.84
   1  -1  11  131.32   11.16
  -2   1 -11   79.71    6.23
  -2   1 -11   79.11    6.28
   2  -1  11   78.08    7.45
   2  -1  11   92.21    6.14
  -3   1 -11   70.46    5.77
   3  -1  11   88.21    6.28
   3  -1  11   67.50    6.86
  -4   1 -11  233.31   16.83
   4  -1  11  236.92   18.05
  -5   1 -11  119.36    9.25
   5  -1  11  121.97   10.33
   5  -1  11  137.52   10.34
  -6   1 -11   34.63    3.11
   6  -1  11   40.96    4.23
   6  -1  11   38.10    4.06
  -7   1 -11  269.27   19.92
   7  -1  11  287.60   21.66
   7  -1  11  279.03   20.86
  -8   1 -11   48.50    4.29
   8  -1  11   57.14    5.89
   8  -1  11   58.36    5.63
  -9   1 -11   75.90    6.16
   9  -1  11   81.70    7.97
   9  -1  11   83.24    6.85
 -10   1 -11   93.57    7.52
  10  -1  11  104.47    8.06
  10  -1  11   98.76    9.50
 -11   1 -11    0.23    0.43
  11  -1  11    0.79    1.52
  11  -1  11   -0.01    0.91
 -12   1 -11   96.07    8.07
  12  -1  11  120.25   10.80
 -13   1 -11  107.89    8.89
  13  -1  11  130.23   11.72
   7   0 -11  160.23   11.85
  -7   0  11  161.30   13.61
   6   0 -11   86.53    6.60
  -6   0  11   86.25    8.26
   5   0 -11   40.79    3.49
  -5   0  11   44.05    4.94
   4   0 -11   31.90    2.92
  -4   0  11   39.02    4.49
   3   0 -11    0.38    0.43
  -3   0  11    0.02    0.83
   2   0 -11  189.70   13.74
  -2   0  11  191.34   15.31
   1   0 -11  224.76   16.04
  -1   0  11  222.00   17.52
   0   0 -11    0.42    0.45
   0   0  11    0.07    0.77
  -1   0 -11  159.29   11.25
   1   0  11  149.49   12.51
  -2   0 -11   10.07    1.28
  -2   0 -11   11.00    1.20
   2   0  11   12.13    1.04
   2   0  11   10.62    2.18
  -3   0 -11   15.89    1.73
   3   0  11   22.10    2.12
   3   0  11   15.68    2.51
  -4   0 -11  261.66   19.80
   4   0  11  309.87   20.57
   4   0  11  259.11   20.85
  -5   0 -11    6.35    1.01
   5   0  11    7.31    1.72
   5   0  11    8.12    1.65
  -6   0 -11  138.95   11.03
   6   0  11  171.79   12.38
   6   0  11  144.07   11.93
  -7   0 -11  317.03   23.59
   7   0  11  356.24   25.14
   7   0  11  319.19   24.96
  -8   0 -11   33.33    3.16
   8   0  11   39.20    3.86
   8   0  11   40.86    4.57
  -9   0 -11   44.86    3.86
   9   0  11   47.40    5.43
   9   0  11   47.82    4.44
 -10   0 -11   31.08    2.91
  10   0  11   34.38    4.55
 -11   0 -11    3.68    0.86
  11   0  11    2.97    1.01
  11   0  11    3.86    2.00
 -12   0 -11  157.65   12.52
  12   0  11  184.55   15.18
 -13   0 -11   65.40    5.59
  13   0  11   75.77    8.20
 -14   0 -11    1.55    0.70
  14   0  11    2.26    2.06
  -8   1  11   14.42    3.09
   7  -1 -11   98.65    7.27
  -7   1  11   90.00    8.70
   6  -1 -11    2.83    0.74
  -6   1  11    3.44    1.67
   5  -1 -11  107.84    8.12
  -5   1  11  109.59    9.63
   4  -1 -11  101.15    7.72
  -4   1  11  106.61    9.27
   3  -1 -11   -0.10    0.41
  -3   1  11    0.46    0.79
   2  -1 -11  119.33    8.49
  -2   1  11  109.24    9.77
   1  -1 -11   83.32    6.16
  -1   1  11   80.21    7.42
   0  -1 -11   36.23    3.01
   0   1  11   37.18    4.21
  -1  -1 -11  183.05   13.17
   1   1  11  182.06   14.40
  -2  -1 -11   10.97    1.19
   2   1  11   10.53    2.20
  -3  -1 -11  214.18   15.81
   3   1  11  247.88   16.19
   3   1  11  193.94   16.76
  -4  -1 -11  199.25   14.86
   4   1  11  186.38   15.78
   4   1  11  231.66   15.59
  -5  -1 -11   23.08    2.28
   5   1  11   30.34    3.12
   5   1  11   24.00    3.08
  -6  -1 -11  345.76   25.53
   6   1  11  383.14   26.72
   6   1  11  347.00   26.92
  -7  -1 -11  186.19   14.05
   7   1  11  202.74   15.41
   7   1  11  193.39   14.84
  -8  -1 -11    0.57    0.55
   8   1  11    1.88    1.30
   8   1  11    0.55    0.80
  -9  -1 -11  157.56   11.51
   9   1  11  152.14   11.98
   9   1  11  159.27   13.25
 -10  -1 -11   49.78    4.37
  10   1  11   55.35    4.77
  10   1  11   56.31    6.16
  11   1  11   16.58    3.39
  11   1  11   19.46    2.25
 -12  -1 -11  116.51    9.38
  12   1  11  134.68   11.91
 -13  -1 -11   22.60    2.35
  13   1  11   25.61    4.35
 -14  -1 -11   43.33    4.09
  14   1  11   54.21    6.69
   8  -2 -11   82.42    6.31
  -8   2  11   78.78    7.65
   7  -2 -11   53.83    4.47
  -7   2  11   57.28    5.89
   6  -2 -11    9.49    1.30
  -6   2  11    8.51    2.39
  -5   2  11  128.99   11.00
   4  -2 -11   29.94    2.54
  -4   2  11   27.56    3.68
   3  -2 -11    8.19    1.09
  -3   2  11    8.14    2.06
   2  -2 -11  181.08   13.16
  -2   2  11  183.97   14.56
   1  -2 -11    4.80    0.81
  -1   2  11    3.67    1.49
   0  -2 -11  179.32   12.85
   0   2  11  176.69   14.06
  -1  -2 -11   33.50    2.58
   1   2  11   25.34    3.43
  -2  -2 -11   35.05    2.76
   2   2  11   29.59    3.64
  -3  -2 -11  436.41   30.76
   3   2  11  478.46   31.11
   3   2  11  384.46   31.63
  -4  -2 -11  213.88   15.88
   4   2  11  201.51   16.75
   4   2  11  245.76   16.58
  -5  -2 -11    0.69    0.44
   5   2  11    2.16    1.05
  -6  -2 -11  407.39   30.16
   6   2  11  461.52   31.36
   6   2  11  406.87   30.95
  -7  -2 -11  109.49    8.28
   7   2  11  108.39    8.98
   7   2  11  115.55    9.53
  -8  -2 -11    0.47    0.60
   8   2  11    3.13    1.09
   8   2  11    2.34    1.34
  -9  -2 -11  299.16   22.39
   9   2  11  324.76   22.94
   9   2  11  313.35   24.11
 -10  -2 -11   81.65    6.91
  10   2  11   89.82    8.61
  10   2  11   98.30    7.37
 -11  -2 -11   32.62    3.64
  11   2  11   44.16    3.88
  11   2  11   44.91    5.40
 -12  -2 -11  108.53    9.47
  12   2  11  134.84   11.92
  12   2  11  136.39    9.74
 -13  -2 -11    6.55    1.33
  13   2  11   12.85    3.32
 -14  -2 -11   62.78    5.21
   8  -3 -11  197.00   15.00
  -8   3  11  216.87   16.55
   7  -3 -11   94.37    7.19
   6  -3 -11   10.59    1.24
  -6   3  11    9.50    2.33
   5  -3 -11  147.32   11.13
  -5   3  11  157.67   12.53
   4  -3 -11   19.60    1.80
  -4   3  11   16.64    2.78
   3  -3 -11   76.96    5.76
  -3   3  11   75.11    6.99
   2  -3 -11  217.84   15.37
  -2   3  11  209.84   16.61
   1  -3 -11    0.15    0.30
  -1   3  11    0.14    0.84
   0  -3 -11  123.43    8.56
   0   3  11  108.47    9.54
  -1  -3 -11  148.29   11.51
  -1  -3 -11  170.54   11.64
  -2  -3 -11   12.34    1.33
  -2  -3 -11   16.81    1.98
   2   3  11    9.96    2.02
  -3  -3 -11   44.53    3.41
   3   3  11   39.10    4.22
  -4  -3 -11  130.72    9.37
   4   3  11  117.52   10.55
   4   3  11  131.70    9.96
  -5  -3 -11  107.09    8.63
   5   3  11  131.56    9.60
   5   3  11  111.36    9.90
  -6  -3 -11  269.58   20.59
   6   3  11  281.25   21.37
   6   3  11  313.35   21.77
  -7  -3 -11   36.88    3.21
   7   3  11   41.15    4.34
   7   3  11   35.92    3.78
  -8  -3 -11   34.01    3.00
   8   3  11   37.83    3.62
   8   3  11   33.40    4.15
  -9  -3 -11  162.01   12.22
   9   3  11  170.69   12.72
   9   3  11  166.65   13.81
 -10  -3 -11    6.52    1.15
  10   3  11    5.91    1.34
  10   3  11    4.59    1.91
 -11  -3 -11   57.03    5.09
  11   3  11   62.40    6.93
  11   3  11   70.68    5.51
 -12  -3 -11  103.12    9.01
  12   3  11  130.00    9.36
  12   3  11  124.99   11.33
 -13  -3 -11    0.53    0.58
  13   3  11    1.60    1.71
 -14  -3 -11   67.71    6.22
  14   3  11   94.02    9.15
   8  -4 -11  103.33    8.05
  -8   4  11  110.18    9.38
   7  -4 -11    8.53    1.21
  -7   4  11    8.96    2.21
   6  -4 -11   59.49    4.70
  -6   4  11   60.56    5.91
   5  -4 -11   86.89    6.49
  -5   4  11   84.51    7.64
   4  -4 -11   12.41    1.38
  -4   4  11   14.35    2.40
   3  -4 -11  134.34    9.96
  -3   4  11  139.68   11.21
   2  -4 -11  129.09    9.27
  -2   4  11  124.34   10.38
   1  -4 -11   18.81    1.70
  -1   4  11   18.81    2.66
   0  -4 -11   45.70    3.47
   0  -4 -11   41.15    3.50
   0   4  11   47.79    4.52
  -1  -4 -11    9.83    1.25
  -1  -4 -11   14.95    1.33
  -1  -4 -11   12.36    1.72
   1   4  11   13.10    1.97
  -2  -4 -11  146.88   10.88
  -2  -4 -11  164.69   11.80
   2   4  11  138.07   11.74
  -3  -4 -11  465.91   32.12
   3   4  11  451.84   33.02
   3   4  11  445.19   32.50
  -4  -4 -11   77.00    6.30
   4   4  11   81.53    7.17
   4   4  11   92.55    7.02
  -5  -4 -11  175.98   13.47
   5   4  11  196.54   14.40
  -6  -4 -11  216.31   16.51
   6   4  11  247.55   17.71
   6   4  11  225.04   17.35
  -7  -4 -11   45.06    3.82
   7   4  11   47.04    4.89
   7   4  11   48.13    4.46
  -8  -4 -11  160.67   12.02
   8   4  11  162.06   12.58
   8   4  11  169.35   13.48
  -9  -4 -11  122.50    9.79
   9   4  11  130.30   11.37
   9   4  11  142.62   10.38
 -10  -4 -11    2.10    0.69
  10   4  11    2.63    1.55
  10   4  11    1.75    0.97
 -11  -4 -11  159.86   12.53
  11   4  11  183.46   14.71
  11   4  11  168.32   12.88
 -12  -4 -11   57.88    5.21
  12   4  11   69.30    5.61
  12   4  11   65.79    7.21
 -13  -4 -11   13.98    1.97
  13   4  11   20.12    3.77
 -14  -4 -11  117.92    9.89
  14   4  11  146.76   12.81
   8  -5 -11  146.99   10.87
   7  -5 -11    3.74    0.81
  -7   5  11    6.04    1.74
   6  -5 -11   82.62    6.25
  -6   5  11   81.45    7.39
   5  -5 -11   39.82    3.28
  -5   5  11   40.09    4.24
   4  -5 -11    1.54    0.57
  -4   5  11    1.16    1.08
   3  -5 -11  184.94   12.69
   3  -5 -11  168.78   12.75
   3  -5 -11  176.06   12.69
  -3   5  11  172.97   13.78
   2  -5 -11   33.09    2.91
   2  -5 -11   38.65    2.88
  -2   5  11   36.33    3.85
   1  -5 -11    2.75    0.66
   1  -5 -11    1.29    0.66
   1  -5 -11    2.51    0.57
  -1   5  11    1.94    0.93
   0  -5 -11  158.09   13.95
   0  -5 -11  200.94   13.42
   0   5  11  206.00   14.51
  -1  -5 -11   76.82    5.45
  -1  -5 -11   70.11    6.29
   1   5  11   69.48    6.29
  -2  -5 -11   92.56    6.82
  -2  -5 -11  101.89    7.98
   2   5  11   81.65    7.55
  -3  -5 -11  162.58   11.21
   3   5  11  149.95   12.02
   3   5  11  150.54   11.66
  -4  -5 -11   -0.06    0.85
  -4  -5 -11    0.48    0.50
   4   5  11    0.75    0.69
   4   5  11    0.90    0.75
  -5  -5 -11  254.06   18.61
   5   5  11  262.89   19.55
   5   5  11  262.83   19.43
  -6  -5 -11  231.56   17.45
   6   5  11  230.43   18.57
   6   5  11  266.04   18.72
  -7  -5 -11    8.01    1.20
   7   5  11   10.50    2.13
  -8  -5 -11  167.99   12.80
   8   5  11  182.69   14.33
  -9  -5 -11   44.28    3.87
   9   5  11   49.16    5.37
 -10  -5 -11   15.34    1.74
  10   5  11   14.55    2.74
 -11  -5 -11  211.85   15.74
  11   5  11  207.29   16.61
  11   5  11  228.78   17.89
 -12  -5 -11   50.78    4.39
  12   5  11   49.88    4.77
  12   5  11   56.58    6.38
 -13  -5 -11   43.22    4.09
  13   5  11   53.41    6.30
 -14  -5 -11   58.04    5.16
  14   5  11   69.03    7.50
   8  -6 -11   60.99    4.91
  -8   6  11   63.84    6.60
   7  -6 -11   11.06    1.36
  -7   6  11   10.53    2.19
   6  -6 -11  102.73    7.66
  -6   6  11  102.24    8.76
   5  -6 -11   21.47    1.87
   5  -6 -11   18.46    2.12
  -5   6  11   21.78    2.79
   4  -6 -11   47.02    3.65
   4  -6 -11   43.85    4.02
  -4   6  11   49.61    4.65
   3  -6 -11  296.50   20.62
  -3   6  11  282.38   21.61
   2  -6 -11   19.46    2.54
   2  -6 -11   27.65    2.11
  -2   6  11   26.90    2.92
   1  -6 -11   73.38    5.34
  -1   6  11   68.31    6.21
   0  -6 -11  152.23    9.66
   0  -6 -11  111.38   10.55
   0   6  11  135.45   10.56
  -1  -6 -11   41.52    4.50
  -1  -6 -11   46.27    3.44
   1   6  11   43.12    4.19
  -2  -6 -11  416.23   28.90
  -2  -6 -11  376.85   27.40
   2   6  11  370.24   28.26
  -3  -6 -11  184.43   13.51
  -3  -6 -11  205.19   15.09
   3   6  11  174.88   14.27
  -4  -6 -11   25.35    3.26
  -4  -6 -11   19.34    1.92
   4   6  11   19.90    2.60
   4   6  11   19.89    2.54
  -5  -6 -11  324.81   23.50
  -5  -6 -11  381.07   25.25
   5   6  11  302.35   24.19
   5   6  11  314.51   24.45
  -6  -6 -11  307.70   22.24
  -6  -6 -11  284.90   20.37
   6   6  11  277.90   21.68
   6   6  11  269.28   21.06
  -7  -6 -11   86.47    6.62
   7   6  11   83.68    7.21
   7   6  11   90.42    7.93
  -8  -6 -11  318.49   22.87
   8   6  11  321.74   24.44
   8   6  11  318.63   23.51
  -9  -6 -11   62.32    5.27
   9   6  11   72.97    6.93
   9   6  11   66.69    5.83
 -10  -6 -11   11.48    1.44
  10   6  11   13.98    3.13
  10   6  11   12.45    2.16
 -11  -6 -11  138.02    9.89
  11   6  11  132.26   10.39
  11   6  11  122.39   12.55
 -12  -6 -11   10.72    1.60
  12   6  11   12.64    3.13
  12   6  11   10.16    1.98
 -13  -6 -11   23.33    2.58
  13   6  11   24.72    3.28
  13   6  11   29.62    4.57
 -14  -6 -11   80.35    6.58
  14   6  11   84.53    8.92
   8  -7 -11   73.90    6.20
  -8   7  11   90.38    7.48
   7  -7 -11   26.44    2.37
  -7   7  11   25.48    3.29
   6  -7 -11   86.31    6.52
   6  -7 -11   82.09    7.22
  -6   7  11   90.84    7.57
   5  -7 -11    3.72    1.24
   5  -7 -11    5.80    0.85
  -5   7  11    4.09    1.39
   4  -7 -11   46.22    4.76
   4  -7 -11   52.45    3.98
  -4   7  11   55.29    4.99
   3  -7 -11  106.07    9.98
   3  -7 -11  132.25    9.17
  -3   7  11  142.51   10.28
   2  -7 -11    4.67    1.46
   2  -7 -11    5.90    0.83
  -2   7  11    4.27    1.33
   1  -7 -11  232.76   19.26
   1  -7 -11  258.98   17.96
  -1   7  11  265.70   18.93
   0  -7 -11  154.86   14.37
   0  -7 -11  191.77   13.11
   0   7  11  203.18   14.12
  -1  -7 -11    0.44    0.31
  -1  -7 -11    0.12    0.85
   1   7  11    1.69    0.84
  -2  -7 -11   69.93    6.73
  -2  -7 -11   68.00    5.33
   2   7  11   70.61    6.05
  -3  -7 -11   29.74    2.59
  -3  -7 -11   29.30    3.90
   3   7  11   28.08    3.19
  -4  -7 -11   54.95    4.35
  -4  -7 -11   63.37    6.10
   4   7  11   51.32    5.06
  -5  -7 -11  556.98   36.64
  -5  -7 -11  476.86   34.66
   5   7  11  472.58   35.46
   5   7  11  458.43   35.72
  -6  -7 -11   94.95    7.31
  -6  -7 -11  105.65    9.04
   6   7  11   97.05    8.09
   6   7  11   93.93    8.49
  -7  -7 -11   37.94    3.28
  -7  -7 -11   39.81    4.64
   7   7  11   39.28    4.45
   7   7  11   39.75    3.99
  -8  -7 -11   94.32    7.61
  -8  -7 -11  110.78    9.61
   8   7  11  105.57    9.25
   8   7  11   96.84    8.28
  -9  -7 -11    0.71    0.59
   9   7  11   -0.66    0.68
   9   7  11   -0.55    0.90
 -10  -7 -11   72.92    5.94
  10   7  11   73.26    6.56
  10   7  11   84.66    7.96
 -11  -7 -11  108.52    8.48
  11   7  11  118.46   10.53
  11   7  11  110.44    9.15
 -12  -7 -11   16.84    2.00
  12   7  11   17.80    2.60
  12   7  11   17.45    3.49
 -13  -7 -11   77.84    6.48
  13   7  11   87.33    8.82
   8  -8 -11   30.15    2.93
  -8   8  11   41.46    4.38
   7  -8 -11   35.01    3.07
  -7   8  11   39.72    4.07
   6  -8 -11   80.94    6.40
  -6   8  11   82.52    7.17
   5  -8 -11    2.39    0.61
   5  -8 -11    2.08    1.33
  -5   8  11    2.31    1.06
   4  -8 -11   93.30    6.74
   4  -8 -11   81.33    7.96
  -4   8  11   98.08    7.73
   3  -8 -11   62.14    4.29
   3  -8 -11   43.72    5.42
  -3   8  11   60.42    5.17
   2  -8 -11    1.54    0.51
   2  -8 -11    2.15    1.24
  -2   8  11    2.49    1.10
   1  -8 -11  142.72    9.74
   1  -8 -11  124.52   11.38
  -1   8  11  135.14   10.63
   0  -8 -11   23.23    3.44
   0  -8 -11   26.41    2.08
   0   8  11   23.87    2.84
  -1  -8 -11   57.90    4.54
  -1  -8 -11   59.87    6.31
   1   8  11   64.98    5.49
  -2  -8 -11  170.85   14.77
   2   8  11  192.06   13.98
  -3  -8 -11   -0.25    1.27
   3   8  11    2.06    0.94
  -4  -8 -11  124.29   11.29
  -4  -8 -11  129.22    9.42
   4   8  11  126.39   10.13
  -5  -8 -11  295.94   22.58
  -5  -8 -11  299.44   20.64
   5   8  11  275.49   21.83
   5   8  11  286.89   21.50
  -6  -8 -11    0.14    1.11
  -6  -8 -11   -0.35    0.42
   6   8  11   -1.28    0.74
   6   8  11    0.02    0.89
  -7  -8 -11  110.64   10.01
  -7  -8 -11  105.91    8.16
   7   8  11  111.24    9.00
   7   8  11  111.27    9.73
  -8  -8 -11  107.77    9.60
  -8  -8 -11   94.64    7.54
   8   8  11  107.89    9.37
   8   8  11   93.95    8.27
  -9  -8 -11   13.43    1.57
  -9  -8 -11   15.79    2.95
   9   8  11   15.86    2.85
   9   8  11   11.56    2.21
 -10  -8 -11  166.68   12.65
 -10  -8 -11  206.40   16.82
  10   8  11  162.88   13.39
  10   8  11  164.93   14.79
 -11  -8 -11   60.02    5.23
 -11  -8 -11   74.00    7.80
  11   8  11   56.68    5.64
  11   8  11   61.69    6.92
 -12  -8 -11    9.57    3.14
  12   8  11    8.66    2.77
 -13  -8 -11   90.86    9.36
 -13  -8 -11   70.67    5.87
  13   8  11   65.02    6.62
  13   8  11   75.31    8.01
   8  -9 -11    4.88    0.89
   7  -9 -11   97.14    7.65
   7  -9 -11   99.32    9.27
  -7   9  11  113.35    8.76
   6  -9 -11   64.59    5.50
   6  -9 -11   74.91    7.11
   5  -9 -11   -0.34    1.22
   5  -9 -11    1.12    0.47
  -5   9  11    1.64    0.96
   4  -9 -11   99.67    9.82
   4  -9 -11  118.70    8.19
  -4   9  11  114.58    9.12
   3  -9 -11   51.22    3.91
   3  -9 -11   46.26    5.69
  -3   9  11   53.84    4.81
   2  -9 -11   33.92    4.73
   2  -9 -11   36.47    2.91
  -2   9  11   39.13    3.80
   1  -9 -11  125.62    8.60
   1  -9 -11  105.97   10.48
  -1   9  11  121.56    9.51
   0  -9 -11    6.94    0.87
   0  -9 -11    6.26    2.10
   0   9  11   10.35    1.58
  -1  -9 -11   93.78    9.08
   1   9  11   97.61    7.90
  -2  -9 -11  273.91   19.64
  -2  -9 -11  266.04   22.01
   2   9  11  290.27   20.63
  -3  -9 -11    0.44    0.35
  -3  -9 -11   -0.13    1.15
   3   9  11    0.56    0.91
  -4  -9 -11  335.19   25.40
   4   9  11  316.59   24.01
  -5  -9 -11  141.54   10.42
  -5  -9 -11  138.16   12.43
   5   9  11  151.60   11.46
  -6  -9 -11   -0.61    1.16
  -6  -9 -11   -0.06    0.38
   6   9  11    0.33    1.07
   6   9  11    0.89    0.82
  -7  -9 -11  132.15    9.51
  -7  -9 -11  125.12   11.45
   7   9  11  134.37   11.30
   7   9  11  124.76   10.38
  -8  -9 -11   78.83    6.16
  -8  -9 -11   81.49    8.16
   8   9  11   82.87    7.98
   8   9  11   80.66    7.06
  -9  -9 -11   41.83    3.63
  -9  -9 -11   41.93    5.53
   9   9  11   41.20    4.42
   9   9  11   54.06    5.76
 -10  -9 -11  276.68   21.88
 -10  -9 -11  249.15   19.15
  10   9  11  298.03   21.70
  10   9  11  246.38   20.02
 -11  -9 -11    9.59    3.02
  11   9  11    6.99    2.28
  11   9  11    7.50    1.85
 -12  -9 -11   37.65    5.72
 -12  -9 -11   31.04    3.16
  12   9  11   41.66    5.39
  12   9  11   36.67    4.16
   7 -10 -11   35.25    4.91
   7 -10 -11   37.44    3.06
   6 -10 -11   15.39    3.53
  -6  10  11   20.04    2.57
   5 -10 -11   36.52    3.06
   5 -10 -11   35.87    5.04
  -5  10  11   41.47    4.02
   4 -10 -11   74.17    7.86
   4 -10 -11   74.92    5.71
  -4  10  11   80.55    6.70
   3 -10 -11    1.72    1.70
   3 -10 -11    2.43    0.54
  -3  10  11    3.28    1.12
   2 -10 -11   51.07    6.40
   2 -10 -11   55.56    4.15
  -2  10  11   56.15    5.07
   1 -10 -11   75.64    5.37
   1 -10 -11   63.39    7.38
  -1  10  11   75.17    6.30
   0 -10 -11   -0.78    1.19
   0  10  11    0.64    0.77
  -1 -10 -11   79.17    5.90
  -1 -10 -11   71.80    7.92
   1  10  11   83.74    6.75
  -2 -10 -11  101.18   10.04
  -2 -10 -11  103.67    7.74
   2  10  11  116.26    8.83
  -3 -10 -11   16.87    1.56
  -3 -10 -11   15.08    3.47
   3  10  11   20.07    2.55
  -4 -10 -11  283.85   21.85
  -4 -10 -11  251.81   19.29
   4  10  11  277.80   20.28
  -5 -10 -11   12.63    3.02
  -5 -10 -11   12.73    1.29
   5  10  11   12.19    2.23
  -6 -10 -11   13.25    1.40
  -6 -10 -11   12.09    3.03
   6  10  11   14.51    2.31
  -7 -10 -11  235.89   17.25
  -7 -10 -11  233.24   19.54
   7  10  11  252.86   19.33
   7  10  11  242.40   18.37
  -8 -10 -11   54.20    4.37
  -8 -10 -11   55.79    6.48
   8  10  11   53.58    5.35
   8  10  11   60.47    6.44
  -9 -10 -11   57.86    6.98
  -9 -10 -11   67.74    5.11
   9  10  11   66.74    6.18
   9  10  11   68.09    7.09
 -10 -10 -11  154.74   14.05
 -10 -10 -11  161.54   11.50
  10  10  11  165.08   13.92
  10  10  11  144.59   12.46
 -11 -10 -11   -0.63    1.42
 -11 -10 -11   -0.39    0.50
  11  10  11   -1.95    1.06
  11  10  11   -0.54    1.03
 -12 -10 -11   80.61    6.34
 -12 -10 -11   84.08    9.14
  12  10  11   88.77    8.72
  12  10  11   73.17    7.29
   7 -11 -11   70.43    5.33
   7 -11 -11   64.53    7.71
  -7  11  11   72.33    6.28
   6 -11 -11    0.30    1.82
   6 -11 -11    1.04    0.74
   5 -11 -11   68.55    5.12
   5 -11 -11   64.75    7.76
  -5  11  11   68.41    6.08
   4 -11 -11  143.92   10.47
   4 -11 -11  136.02   13.23
  -4  11  11  153.52   11.53
   3 -11 -11    1.09    1.72
   3 -11 -11    2.24    0.49
  -3  11  11    2.15    1.05
   2 -11 -11   70.44    5.34
   2 -11 -11   72.55    7.96
  -2  11  11   74.00    6.33
   1 -11 -11   86.55    6.04
   1 -11 -11   77.06    8.48
  -1  11  11   80.02    6.92
   0 -11 -11   -0.87    1.07
   0  11  11    2.49    1.09
  -1 -11 -11  112.60    8.16
  -1 -11 -11   98.42   10.54
   1  11  11  126.83    9.32
  -2 -11 -11   98.46    7.04
  -2 -11 -11   86.24    9.46
   2  11  11  104.42    8.18
  -3 -11 -11  118.34   11.44
  -3 -11 -11  116.23    8.74
   3  11  11  131.27    9.97
  -4 -11 -11  183.02   13.42
  -4 -11 -11  181.96   16.10
   4  11  11  200.47   14.67
  -5 -11 -11   74.91    8.39
   5  11  11   90.93    7.40
  -6 -11 -11    8.09    1.02
  -6 -11 -11    7.21    2.48
   6  11  11    9.56    2.09
  -7 -11 -11   75.69    8.31
  -7 -11 -11   80.45    5.98
   7  11  11   83.46    7.26
  -8 -11 -11   13.20    1.47
  -8 -11 -11   14.19    3.46
   8  11  11   16.19    2.58
  -9 -11 -11   58.34    7.13
  -9 -11 -11   61.88    4.89
   9  11  11   59.81    6.54
   9  11  11   74.99    7.46
 -10 -11 -11   29.29    2.56
 -10 -11 -11   30.14    4.85
  10  11  11   24.87    3.54
  10  11  11   31.94    4.78
 -11 -11 -11   10.63    3.39
 -11 -11 -11   13.29    1.56
  11  11  11   10.99    3.03
  11  11  11   13.68    2.71
   6 -12 -11    0.36    0.57
   6 -12 -11    0.26    2.16
  -6  12  11   -0.65    0.75
   5 -12 -11   49.86    6.85
   5 -12 -11   44.18    3.75
  -5  12  11   55.52    4.89
   4 -12 -11   23.79    4.84
   4 -12 -11   22.09    1.93
  -4  12  11   22.77    3.16
   3 -12 -11    4.22    2.47
   3 -12 -11    4.72    0.70
   2 -12 -11   86.18    6.38
   2 -12 -11   79.71    9.08
  -2  12  11   95.19    7.52
   1 -12 -11    9.33    3.12
   1 -12 -11   13.19    1.22
  -1  12  11   15.17    2.06
   0 -12 -11   11.94    3.51
   0 -12 -11   19.53    1.57
   0  12  11   21.43    2.61
  -1 -12 -11   77.08    5.59
  -1 -12 -11   66.00    8.02
   1  12  11   84.96    6.80
  -2 -12 -11   29.65    4.81
  -2 -12 -11   30.15    2.38
   2  12  11   31.04    3.44
  -3 -12 -11   88.66    9.36
  -3 -12 -11   84.71    6.58
   3  12  11  102.96    7.96
  -4 -12 -11   32.69    2.61
  -4 -12 -11   30.12    4.99
   4  12  11   38.54    3.94
  -5 -12 -11    0.60    1.35
  -6 -12 -11  155.20   14.62
  -6 -12 -11  156.00   11.48
   6  12  11  171.24   13.06
  -7 -12 -11   93.97    7.37
  -7 -12 -11  102.90   10.20
   7  12  11  110.22    8.96
  -8 -12 -11    0.43    0.47
  -8 -12 -11    0.78    1.21
   8  12  11    0.28    1.08
  -9 -12 -11  104.45   10.97
  -9 -12 -11  118.85    8.49
   9  12  11  122.16   10.02
 -10 -12 -11   20.20    1.88
 -10 -12 -11   21.17    4.02
  10  12  11   18.91    3.09
   5 -13 -11  118.96    8.92
   5 -13 -11  123.79   12.54
  -5  13  11  127.61   10.11
   4 -13 -11    9.94    4.08
   4 -13 -11   10.68    1.12
  -4  13  11   12.49    2.06
   3 -13 -11   19.66    4.55
   3 -13 -11   19.42    1.73
  -3  13  11   23.06    2.80
   2 -13 -11   76.41    8.88
   2 -13 -11   74.79    5.71
  -2  13  11   84.44    6.92
   1 -13 -11    4.98    2.52
  -1  13  11    6.07    1.48
   0 -13 -11   47.28    6.60
   0 -13 -11   48.14    3.74
   0  13  11   57.39    5.02
  -1 -13 -11  138.78   13.33
  -1 -13 -11  129.68    9.96
   1  13  11  155.42   11.37
  -2 -13 -11    2.20    0.43
  -2 -13 -11    3.95    2.47
   2  13  11    4.09    1.28
  -3 -13 -11   17.63    1.48
  -3 -13 -11   13.05    3.77
   3  13  11   23.57    2.90
  -4 -13 -11  102.40   11.28
   4  13  11  129.42    9.95
  -5 -13 -11   -0.46    1.30
  -5 -13 -11   -0.41    0.27
   5  13  11    1.18    0.96
  -6 -13 -11   31.09    5.34
   6  13  11   45.64    4.68
  -7 -13 -11   14.20    1.37
  -7 -13 -11   13.63    3.59
   7  13  11   18.75    2.76
  -8 -13 -11   37.14    5.53
   8  13  11   37.62    4.36
  -9 -13 -11   97.10   10.01
  -9 -13 -11   90.09    6.92
   9  13  11   97.82    8.64
   4 -14 -11    4.57    2.56
  -4  14  11    5.66    1.61
   3 -14 -11   44.80    6.54
  -3  14  11   43.82    4.50
   2 -14 -11   40.57    6.41
  -2  14  11   51.43    4.82
   1 -14 -11    0.27    1.34
  -1  14  11    0.29    0.66
   0 -14 -11   52.15    7.28
   0  14  11   59.27    5.47
  -1 -14 -11   47.74    7.04
   1  14  11   61.43    5.44
  -2 -14 -11   11.92    3.75
   2  14  11   19.24    2.55
  -3 -14 -11   71.76    8.66
   3  14  11   72.82    6.65
  -4 -14 -11   48.39    6.73
   4  14  11   56.34    5.39
  -5 -14 -11   12.29    3.51
   5  14  11   14.85    2.80
  -6 -14 -11   33.28    5.79
   6  14  11   49.14    5.02
  -7 -14 -11    4.94    2.40
   7  14  11    4.58    1.87
  -8 -14 -11   47.12    6.57
   8  14  11   49.26    5.36
   2 -15 -11   34.54    6.14
  -2  15  11   44.10    4.42
   1 -15 -11   -1.99    1.43
  -1  15  11    1.12    1.04
   0 -15 -11   64.04    8.69
   0  15  11   81.08    6.84
  -1 -15 -11   -0.78    1.65
   1  15  11    0.28    1.03
  -2 -15 -11   24.57    5.14
   2  15  11   31.84    3.70
  -3 -15 -11   97.39   11.34
   3  15  11  121.44    9.64
  -4 -15 -11   17.37    4.54
   4  15  11   20.20    3.05
  -5 -15 -11   29.66    5.25
   5  15  11   41.14    4.53
  -6 -15 -11   44.76    6.92
   6  15  11   65.80    6.09
  -1   6 -12   40.14    3.43
   1  -6  12   50.79    5.83
  -2   6 -12    9.88    1.20
   2  -6  12   12.96    3.09
  -3   6 -12   14.28    1.66
   3  -6  12   20.01    3.76
   4  -6  12    8.81    2.64
  -5   6 -12   74.40    5.82
  -6   6 -12  121.39   10.06
   6  -6  12  142.87   12.07
   6  -6  12  159.92   12.34
  -7   6 -12   -1.10    0.43
   7  -6  12   -1.88    1.12
   7  -6  12   -0.63    1.32
  -1  -5  12   11.88    3.06
   0   5 -12   11.01    1.29
   0  -5  12   15.45    3.31
  -1   5 -12    5.40    0.97
   1  -5  12    9.89    2.75
  -2   5 -12   26.51    2.55
   2  -5  12   33.42    4.37
  -3   5 -12   35.34    2.91
   3  -5  12   35.33    4.56
  -4   5 -12    0.53    0.41
   4  -5  12   -0.19    1.29
  -5   5 -12   90.90    7.18
   5  -5  12  106.65    9.17
  -6   5 -12   37.61    3.51
   6  -5  12   48.84    5.16
   6  -5  12   41.58    5.15
  -7   5 -12    0.60    0.48
   7  -5  12    1.72    1.43
  -8   5 -12   81.87    7.11
   8  -5  12  100.88    9.42
   8  -5  12  109.95    8.85
  -9   5 -12    6.96    1.18
   9  -5  12    9.73    2.82
   9  -5  12    7.55    2.04
   2   4 -12    0.13    0.42
  -2  -4  12   -1.78    1.20
   1   4 -12   65.30    5.07
  -1  -4  12   66.77    6.98
   0  -4  12  156.58   13.41
  -1   4 -12    2.43    0.64
   1  -4  12    3.20    1.60
  -2   4 -12   41.88    3.53
   2  -4  12   50.12    5.49
  -3   4 -12   16.65    1.66
   3  -4  12   19.18    3.04
  -4   4 -12   11.09    1.27
  -5   4 -12  161.85   12.62
   5  -4  12  192.50   14.52
  -6   4 -12   19.18    1.97
   6  -4  12   24.77    3.42
   6  -4  12   21.95    3.27
  -7   4 -12   23.10    2.34
   7  -4  12   29.99    3.98
   7  -4  12   30.44    3.75
  -8   4 -12  116.21    9.32
   8  -4  12  135.41   10.73
   8  -4  12  130.16   11.42
  -9   4 -12    8.36    1.26
   9  -4  12    9.62    2.19
   9  -4  12    9.08    2.61
 -10   4 -12   67.56    5.66
  10  -4  12   74.75    7.98
  10  -4  12   77.34    6.75
 -11   4 -12   97.03    7.75
  11  -4  12  109.42   10.51
   4   3 -12   58.43    4.64
  -4  -3  12   58.76    6.61
   3   3 -12   80.72    6.36
  -3  -3  12   89.60    8.53
   2   3 -12   -0.60    0.37
  -2  -3  12   -0.40    1.35
   1   3 -12   55.77    4.59
  -1  -3  12   63.96    6.45
   0   3 -12   62.44    4.96
   0  -3  12   68.16    6.76
  -1   3 -12    0.03    0.40
   1  -3  12    0.18    1.20
  -2   3 -12  148.32   10.81
  -3   3 -12   21.25    2.02
   3  -3  12   24.04    3.51
  -4   3 -12   75.31    6.36
   4  -3  12   86.71    7.97
   4  -3  12   93.48    7.25
  -5   3 -12   79.86    6.45
   5  -3  12   86.54    7.52
   5  -3  12   94.36    8.06
  -6   3 -12   17.63    1.82
   6  -3  12   18.13    3.20
   6  -3  12   21.92    3.08
  -7   3 -12  124.22    9.98
   7  -3  12  143.06   11.36
   7  -3  12  143.30   11.73
  -8   3 -12  108.38    9.13
   8  -3  12  131.08   10.37
   8  -3  12  133.00   11.16
  -9   3 -12    1.44    0.67
   9  -3  12    3.18    1.68
   9  -3  12    1.55    1.33
 -10   3 -12  137.31   10.87
  10  -3  12  161.74   14.57
 -11   3 -12   23.43    2.36
  11  -3  12   24.52    4.23
 -12   3 -12    8.07    1.31
  12  -3  12    8.92    3.06
  -5  -2  12    0.07    1.52
   4   2 -12  112.80    8.27
  -4  -2  12  106.67   10.20
   3   2 -12   29.10    2.61
  -3  -2  12   30.23    4.13
   2   2 -12    5.07    0.88
  -2  -2  12    5.13    1.96
   1   2 -12  113.86    8.74
  -1  -2  12  125.25   10.69
   0   2 -12   72.06    5.75
   0  -2  12   82.09    7.69
  -1   2 -12   27.31    2.40
   1  -2  12   27.14    3.83
  -2   2 -12  157.75   11.85
   2  -2  12  170.90   13.58
  -3   2 -12   29.12    2.58
   3  -2  12   27.67    3.72
   3  -2  12   34.12    3.39
  -4   2 -12   92.19    7.54
   4  -2  12  115.20    8.36
   4  -2  12   95.96    8.86
  -5   2 -12  126.59   10.01
   5  -2  12  149.65   11.11
   5  -2  12  134.51   11.37
  -6   2 -12    9.33    1.26
   6  -2  12   10.69    2.24
   6  -2  12   10.36    2.13
  -7   2 -12   99.78    7.61
   7  -2  12   96.68    8.67
   7  -2  12  107.79    9.17
  -8   2 -12  142.00   11.13
   8  -2  12  158.35   12.25
   8  -2  12  156.08   12.94
   9  -2  12    3.00    1.28
   9  -2  12    3.70    1.66
 -10   2 -12  114.31    9.73
  10  -2  12  144.98   12.15
  10  -2  12  136.71   10.57
 -11   2 -12   71.90    6.18
  11  -2  12   89.29    8.70
 -12   2 -12   15.16    1.97
  12  -2  12   24.18    4.22
   5   1 -12   11.43    1.48
  -5  -1  12   10.38    2.81
   4   1 -12  149.94   11.27
  -4  -1  12  158.68   13.23
   3   1 -12   58.13    4.59
  -3  -1  12   57.50    6.27
  -2  -1  12    8.74    2.26
   1   1 -12   86.25    6.52
   0   1 -12   46.76    3.82
   0  -1  12   49.05    5.27
  -1   1 -12   44.31    3.52
   1  -1  12   41.72    4.90
  -2   1 -12   85.58    6.44
   2  -1  12   85.74    7.85
  -3   1 -12    3.92    0.77
   3  -1  12    3.12    1.46
   3  -1  12    3.81    0.84
  -4   1 -12  129.57   10.23
   4  -1  12  157.41   10.98
   4  -1  12  130.48   11.50
  -5   1 -12   79.10    6.42
   5  -1  12   94.26    7.40
   5  -1  12   81.50    7.62
  -6   1 -12    1.07    0.56
   6  -1  12    0.56    0.94
   6  -1  12    0.32    1.06
  -7   1 -12  122.19    9.38
   7  -1  12  134.54   11.01
   7  -1  12  123.70   10.41
  -8   1 -12    8.42    1.25
   8  -1  12   10.02    2.54
   8  -1  12    9.34    2.07
  -9   1 -12  101.04    8.12
   9  -1  12  114.57    9.02
   9  -1  12  108.03    9.90
 -10   1 -12  161.93   12.51
  10  -1  12  174.31   14.65
  10  -1  12  174.58   13.21
 -11   1 -12   23.16    2.52
  11  -1  12   30.48    3.17
 -12   1 -12   68.51    5.83
  12  -1  12   80.04    8.26
 -13   1 -12   27.16    2.95
  13  -1  12   39.63    5.30
   6   0 -12    2.00    0.75
  -6   0  12   -0.25    1.16
   5   0 -12   24.30    2.32
  -5   0  12   23.54    3.74
   4   0 -12   92.51    7.11
  -4   0  12   95.90    8.92
   3   0 -12    3.93    0.88
  -3   0  12    5.84    1.88
   2   0 -12   61.72    4.79
  -2   0  12   59.73    6.36
   1   0 -12  103.46    7.63
  -1   0  12  100.13    9.13
   0   0 -12    4.31    0.85
   0   0  12    5.34    1.65
  -1   0 -12   95.16    7.25
   1   0  12   99.96    8.76
  -2   0 -12   31.14    2.69
   2   0  12   31.52    3.78
  -3   0 -12   33.79    3.10
   3   0  12   32.80    4.09
   3   0  12   42.55    3.29
  -4   0 -12  314.15   22.43
   4   0  12  314.86   23.71
  -5   0 -12   89.01    7.11
   5   0  12  103.54    8.02
   5   0  12   91.39    8.23
  -6   0 -12   21.67    2.23
   6   0  12   29.57    3.23
   6   0  12   20.87    3.05
  -7   0 -12  241.48   18.24
   7   0  12  246.24   19.21
   7   0  12  273.44   19.73
  -8   0 -12    2.78    0.78
   8   0  12    3.68    1.64
   8   0  12    3.53    1.37
  -9   0 -12  107.00    8.83
   9   0  12  122.22    9.65
   9   0  12  126.67   10.74
 -10   0 -12  204.45   15.19
  10   0  12  210.85   17.20
 -11   0 -12    0.78    0.65
  11   0  12   -1.49    0.75
  11   0  12   -0.69    0.98
 -12   0 -12  122.45    9.91
  12   0  12  143.51   12.53
 -13   0 -12   82.41    7.21
  13   0  12  107.49   10.11
   6  -1 -12    1.99    0.70
  -6   1  12    1.83    1.57
   5  -1 -12   75.60    5.82
  -5   1  12   74.27    7.44
   4  -1 -12   56.13    4.45
  -4   1  12   54.88    5.97
   3  -1 -12    0.21    0.79
  -3   1  12    0.67    0.92
   2  -1 -12  200.42   14.63
  -2   1  12  205.41   16.29
   1  -1 -12  159.98   11.83
  -1   1  12  166.15   13.41
   0  -1 -12    5.09    0.90
   0   1  12    7.48    1.99
  -1  -1 -12  112.29    8.26
   1   1  12  110.13    9.63
  -2  -1 -12   24.00    2.00
   2   1  12   16.86    2.96
  -3  -1 -12   38.12    3.47
   3   1  12   38.58    4.55
   3   1  12   48.32    3.66
  -4  -1 -12  239.82   17.43
   4   1  12  246.05   18.66
  -5  -1 -12   30.54    2.69
   5   1  12   31.83    3.36
   5   1  12   28.64    3.58
  -6  -1 -12  114.10    9.03
   6   1  12  132.88   10.17
   6   1  12  118.68   10.02
  -7  -1 -12  214.03   16.51
   7   1  12  242.14   17.90
   7   1  12  230.83   17.47
  -8  -1 -12    8.56    1.32
   8   1  12   10.39    2.37
   8   1  12    9.21    1.96
  -9  -1 -12  115.89    8.87
   9   1  12  114.83    9.50
   9   1  12  122.92   10.58
  10   1  12  122.10   11.03
  10   1  12  121.99   10.13
 -11  -1 -12   -0.16    0.58
  11   1  12   -0.61    0.86
  11   1  12    0.70    1.30
 -12  -1 -12   66.03    5.45
  12   1  12   68.59    7.60
 -13  -1 -12   62.48    5.46
  13   1  12   73.77    8.00
   7  -2 -12   65.59    5.00
  -7   2  12   57.14    6.40
   6  -2 -12    0.09    0.52
  -6   2  12   -0.25    0.85
   5  -2 -12   68.00    5.42
  -5   2  12   71.67    7.04
   4  -2 -12   32.92    2.99
  -4   2  12   41.28    5.29
   3  -2 -12   25.30    2.34
  -3   2  12   27.00    3.71
   2  -2 -12  157.81   11.43
  -2   2  12  155.19   12.94
   1  -2 -12   96.57    7.15
  -1   2  12   93.84    8.54
   0  -2 -12   35.98    3.05
   0   2  12   39.46    4.36
  -1  -2 -12  128.20    9.00
   1   2  12  114.18   10.15
  -2  -2 -12    0.46    0.36
  -2  -2 -12    0.65    0.50
  -2  -2 -12    1.03    0.49
   2   2  12    2.09    1.13
  -3  -2 -12  255.33   18.64
   3   2  12  255.57   19.81
   3   2  12  268.70   18.82
  -4  -2 -12  256.59   19.53
   4   2  12  254.41   20.58
   4   2  12  304.96   20.18
  -5  -2 -12    4.59    0.94
   5   2  12    5.57    1.67
   5   2  12    6.30    1.49
  -6  -2 -12  154.65   11.96
   6   2  12  158.53   12.89
   6   2  12  177.51   13.09
  -7  -2 -12  109.21    8.74
   7   2  12  118.52    9.65
   7   2  12  125.19   10.05
  -8  -2 -12   27.85    2.57
   8   2  12   27.61    3.62
   8   2  12   26.07    3.11
  -9  -2 -12  286.82   21.06
   9   2  12  292.12   21.68
   9   2  12  299.01   22.79
 -10  -2 -12   40.64    3.82
  10   2  12   46.76    5.44
  10   2  12   49.23    4.85
 -11  -2 -12   16.29    1.95
  11   2  12   19.84    3.55
  11   2  12   21.54    2.53
 -12  -2 -12  111.32    9.54
  12   2  12  139.93   10.19
  12   2  12  128.87   11.88
 -13  -2 -12   21.58    2.29
  13   2  12   22.85    4.16
 -14  -2 -12   30.11    2.95
   7  -3 -12   59.92    4.89
  -7   3  12   61.81    6.32
   6  -3 -12   16.89    1.72
  -6   3  12   15.14    2.99
   5  -3 -12  110.70    7.96
  -5   3  12   98.08    9.96
   4  -3 -12    9.17    1.23
  -4   3  12    7.50    2.11
   3  -3 -12   28.89    2.56
  -3   3  12   29.93    3.72
   2  -3 -12  230.71   16.44
  -2   3  12  226.67   17.90
   1  -3 -12   12.58    1.30
  -1   3  12   11.46    2.35
   0  -3 -12  108.06    8.17
   0   3  12  114.24    9.52
  -1  -3 -12  204.73   15.11
   1   3  12  216.67   16.41
  -2  -3 -12   28.16    2.66
  -2  -3 -12   26.14    2.34
   2   3  12   23.12    3.11
  -3  -3 -12  216.65   14.82
   3   3  12  202.61   15.05
   3   3  12  195.94   15.82
  -4  -3 -12   74.99    5.74
   4   3  12   79.79    6.31
   4   3  12   68.73    6.66
  -5  -3 -12    2.59    0.65
   5   3  12    3.56    1.43
   5   3  12    3.83    1.20
  -6  -3 -12  133.33   10.28
   6   3  12  130.74   11.13
   6   3  12  154.26   11.42
  -7  -3 -12   72.35    5.54
   7   3  12   68.54    6.25
   7   3  12   70.75    6.62
  -8  -3 -12   34.16    3.11
   8   3  12   39.51    4.41
   8   3  12   35.49    3.77
  -9  -3 -12  223.92   16.54
   9   3  12  237.70   18.26
   9   3  12  221.96   17.11
 -10  -3 -12    3.11    0.83
  10   3  12    3.64    1.73
  10   3  12    5.72    1.48
 -11  -3 -12   56.34    5.12
  11   3  12   68.43    7.14
  11   3  12   66.88    5.60
 -12  -3 -12   82.80    7.22
  12   3  12  102.33    7.65
  12   3  12   92.81    9.39
 -13  -3 -12    3.51    1.01
  13   3  12    2.83    2.07
 -14  -3 -12   56.64    5.04
  14   3  12   65.00    7.56
   7  -4 -12   30.66    2.70
  -7   4  12   27.43    3.84
   6  -4 -12   24.35    2.28
  -6   4  12   25.63    3.53
   5  -4 -12  158.70   11.62
  -5   4  12  158.76   13.21
  -4   4  12    8.15    2.06
   3  -4 -12   61.22    4.98
  -3   4  12   69.89    6.40
   2  -4 -12  148.04   10.98
  -2   4  12  154.58   12.36
   1  -4 -12    3.73    0.69
  -1   4  12    2.93    1.40
   0  -4 -12  101.76    7.68
   0   4  12  106.45    8.92
  -1  -4 -12   44.56    4.25
  -1  -4 -12   63.30    4.19
   1   4  12   56.76    5.23
  -2  -4 -12  292.53   21.41
  -2  -4 -12  298.70   20.70
   2   4  12  277.97   21.73
  -3  -4 -12  428.57   29.43
   3   4  12  400.50   30.43
  -4  -4 -12   77.31    6.04
   4   4  12   78.30    6.99
   4   4  12   81.89    6.62
  -5  -4 -12   39.85    3.53
   5   4  12   47.76    4.35
   5   4  12   40.04    4.33
  -6  -4 -12  298.49   21.87
   6   4  12  292.10   22.70
   6   4  12  325.24   23.02
  -7  -4 -12    6.09    1.07
   7   4  12   10.04    2.03
   7   4  12    6.88    1.67
  -8  -4 -12   86.54    6.88
   8   4  12   87.99    7.53
   8   4  12   94.66    8.30
  -9  -4 -12  185.11   14.19
   9   4  12  195.69   14.80
   9   4  12  201.91   15.92
 -10  -4 -12   18.45    2.02
  10   4  12   17.36    2.32
  10   4  12   17.65    3.21
 -11  -4 -12  147.65   11.84
  11   4  12  167.67   12.37
  11   4  12  163.09   13.92
 -12  -4 -12  109.76    9.09
  12   4  12  121.68    9.96
  12   4  12  130.01   11.50
 -13  -4 -12    2.25    0.90
  13   4  12    2.00    1.60
 -14  -4 -12   76.19    6.49
  14   4  12   86.78    9.09
   7  -5 -12    5.05    1.03
  -7   5  12    9.71    2.22
   6  -5 -12   85.14    6.36
  -6   5  12   79.13    8.17
   5  -5 -12  100.67    7.66
  -5   5  12  104.37    9.03
   4  -5 -12    0.74    0.44
  -4   5  12   -0.09    0.85
   3  -5 -12  119.31    8.72
  -3   5  12  117.18    9.96
   2  -5 -12   83.11    6.21
  -2   5  12   82.06    7.37
   1  -5 -12    8.22    0.96
  -1   5  12    6.96    1.69
   0  -5 -12  131.18   10.19
   0  -5 -12  119.21    9.88
   0   5  12  170.62   11.38
  -1  -5 -12  138.85   12.01
  -1  -5 -12  175.28   11.39
   1   5  12  157.73   12.42
  -2  -5 -12  115.76    8.45
  -2  -5 -12  118.70    9.47
   2   5  12  108.83    9.37
  -3  -5 -12  246.44   18.36
  -3  -5 -12  293.09   19.83
   3   5  12  230.85   19.26
  -4  -5 -12    0.50    0.56
  -4  -5 -12    0.45    1.05
   4   5  12    0.56    0.61
   4   5  12    0.63    0.71
  -5  -5 -12  184.62   13.52
   5   5  12  199.29   14.48
   5   5  12  173.28   14.31
  -6  -5 -12  331.10   24.59
   6   5  12  366.86   25.80
   6   5  12  335.30   25.42
  -7  -5 -12   13.89    1.72
   7   5  12   13.38    2.19
   7   5  12   13.69    2.45
  -8  -5 -12  113.56    8.77
   8   5  12  115.98    9.45
   8   5  12  120.66   10.23
  -9  -5 -12   62.98    5.36
   9   5  12   74.29    7.00
   9   5  12   66.03    5.94
 -10  -5 -12   25.30    2.63
  10   5  12   26.95    3.07
  10   5  12   30.25    4.11
 -11  -5 -12  162.06   12.51
  11   5  12  172.08   15.56
  11   5  12  172.93   12.99
 -12  -5 -12    1.94    0.71
  12   5  12    1.45    1.17
  12   5  12    2.83    1.77
 -13  -5 -12   24.33    2.52
  13   5  12   25.76    4.40
 -14  -5 -12  103.49    8.51
  14   5  12  117.46   11.16
   7  -6 -12    3.62    0.86
  -7   6  12    3.75    1.57
   6  -6 -12   77.34    5.95
   5  -6 -12   21.57    2.05
  -5   6  12   21.99    2.93
   4  -6 -12   26.74    2.29
  -4   6  12   25.32    3.35
   3  -6 -12  121.30    9.00
  -3   6  12  124.58   10.21
   2  -6 -12   23.01    1.86
   2  -6 -12   16.12    2.00
  -2   6  12   25.41    2.96
   1  -6 -12   14.78    2.03
   1  -6 -12   18.09    1.66
  -1   6  12   21.59    2.60
   0  -6 -12  316.84   22.22
   0   6  12  308.35   23.29
  -1  -6 -12    2.78    1.33
  -1  -6 -12    4.24    0.73
   1   6  12    4.08    1.34
  -2  -6 -12  113.93    9.21
  -2  -6 -12  103.01    7.82
   2   6  12  101.24    8.76
  -3  -6 -12  211.78   15.71
  -3  -6 -12  193.87   14.13
   3   6  12  182.44   15.01
  -4  -6 -12   -0.42    1.18
  -4  -6 -12    1.30    0.52
   4   6  12    1.19    0.96
   4   6  12    1.63    1.00
  -5  -6 -12  365.96   25.35
   5   6  12  348.16   26.28
   5   6  12  352.81   26.23
  -6  -6 -12  120.62    9.83
  -6  -6 -12  160.48   12.90
   6   6  12  134.57   11.81
   6   6  12  125.52   10.64
  -7  -6 -12   49.34    5.33
  -7  -6 -12   40.78    3.66
   7   6  12   43.68    4.41
   7   6  12   45.15    4.87
  -8  -6 -12  246.93   18.42
   8   6  12  263.68   20.04
   8   6  12  255.59   19.19
  -9  -6 -12   74.98    5.92
   9   6  12   72.47    6.51
   9   6  12   79.02    7.54
 -10  -6 -12    8.56    1.33
  10   6  12   11.81    2.84
  10   6  12    8.22    1.80
 -11  -6 -12  147.61   11.42
  11   6  12  162.06   13.62
  11   6  12  151.39   11.97
 -12  -6 -12    2.06    0.75
  12   6  12    1.43    1.22
  12   6  12    0.95    1.57
 -13  -6 -12  126.93    9.17
  13   6  12  128.32   11.61
  13   6  12  104.85    9.51
   7  -7 -12    5.34    0.96
  -7   7  12    5.73    1.68
   6  -7 -12   57.97    4.58
   5  -7 -12   17.32    1.74
  -5   7  12   17.57    2.67
   4  -7 -12   80.51    6.20
  -4   7  12   84.79    7.37
   3  -7 -12  209.91   14.89
  -3   7  12  204.30   16.01
   2  -7 -12    3.82    1.24
  -2   7  12    6.47    1.54
   1  -7 -12   73.62    5.19
   1  -7 -12   60.21    6.14
  -1   7  12   72.53    6.24
   0  -7 -12   95.06    9.27
   0  -7 -12  117.71    8.16
   0   7  12  121.99    9.23
  -1  -7 -12   27.68    3.66
  -1  -7 -12   29.88    2.42
   1   7  12   29.27    3.34
  -2  -7 -12  379.95   29.71
  -2  -7 -12  404.52   28.14
   2   7  12  408.43   29.18
  -3  -7 -12  320.86   23.37
  -3  -7 -12  351.57   25.25
   3   7  12  315.60   24.30
  -4  -7 -12    3.58    0.80
  -4  -7 -12    5.13    1.87
   4   7  12    4.20    1.45
  -5  -7 -12  385.69   26.63
  -5  -7 -12  311.55   23.35
   5   7  12  322.78   24.28
   5   7  12  299.59   24.98
  -6  -7 -12   84.25    6.62
  -6  -7 -12   87.94    8.29
   6   7  12   88.34    7.84
   6   7  12   89.09    7.52
  -7  -7 -12  100.23    8.09
  -7  -7 -12  116.75   10.00
   7   7  12  108.90    8.91
   7   7  12  107.31    9.50
  -8  -7 -12  146.71   11.92
  -8  -7 -12  121.20    9.75
   8   7  12  129.39   11.32
   8   7  12  130.60   10.55
  -9  -7 -12   14.46    1.72
   9   7  12   15.42    2.97
   9   7  12   15.76    2.32
 -10  -7 -12   77.00    6.33
  10   7  12   84.08    7.09
  10   7  12   83.98    8.13
 -11  -7 -12   89.47    6.93
  11   7  12   94.77    9.05
  11   7  12   83.51    7.47
 -12  -7 -12    0.25    0.67
  12   7  12    0.47    1.20
  12   7  12    0.48    1.05
 -13  -7 -12  123.12    9.53
  13   7  12  126.72   11.91
   7  -8 -12    6.21    1.07
  -7   8  12    9.21    2.06
   6  -8 -12   54.02    4.30
   5  -8 -12    1.24    0.52
  -5   8  12    0.54    0.85
   4  -8 -12   54.47    4.17
   4  -8 -12   50.58    5.13
  -4   8  12   54.71    5.22
   3  -8 -12  125.37   11.79
   3  -8 -12  157.74   10.84
  -3   8  12  167.71   12.03
   2  -8 -12    5.03    1.67
   2  -8 -12    5.23    0.80
  -2   8  12    4.74    1.44
   1  -8 -12  121.89   11.70
   1  -8 -12  152.90   10.33
  -1   8  12  152.38   11.40
   0  -8 -12   34.41    2.71
   0  -8 -12   30.27    4.12
   0   8  12   34.95    3.58
  -1  -8 -12    5.61    0.86
  -1  -8 -12    6.78    2.18
   1   8  12    8.78    1.74
  -2  -8 -12  121.23   10.53
  -2  -8 -12  113.76    8.59
   2   8  12  119.70    9.57
  -3  -8 -12  158.93   13.43
  -3  -8 -12  153.58   11.46
   3   8  12  164.36   12.51
  -4  -8 -12   61.03    9.18
  -4  -8 -12   60.17    4.82
   4   8  12   67.07    5.79
  -5  -8 -12  375.67   28.20
  -5  -8 -12  357.76   26.13
   5   8  12  370.70   27.13
  -6  -8 -12    0.42    0.57
  -6  -8 -12    2.07    1.48
   6   8  12    1.24    1.13
   6   8  12    1.10    1.13
  -7  -8 -12   99.79    7.55
  -7  -8 -12  100.50    9.43
   7   8  12   99.27    9.05
   7   8  12  100.55    8.39
  -8  -8 -12  156.12   13.24
  -8  -8 -12  148.13   11.13
   8   8  12  152.92   12.87
   8   8  12  147.97   11.96
  -9  -8 -12    0.26    0.52
  -9  -8 -12    1.17    1.48
   9   8  12    0.22    1.09
   9   8  12   -0.14    0.81
 -10  -8 -12   71.45    7.37
 -10  -8 -12   50.14    4.60
  10   8  12   63.31    6.88
  10   8  12   51.58    5.29
 -11  -8 -12  126.33   11.37
 -11  -8 -12  100.58    8.19
  11   8  12  119.61   10.59
  11   8  12   93.36    8.81
 -12  -8 -12   69.65    6.02
 -12  -8 -12   91.33    9.45
  12   8  12   69.26    6.72
  12   8  12   81.19    8.35
 -13  -8 -12   87.70    7.25
  13   8  12   90.84    8.09
  13   8  12  102.05    9.81
   7  -9 -12   41.54    3.66
  -7   9  12   49.88    4.84
   6  -9 -12   56.76    4.66
  -6   9  12   63.80    5.78
   5  -9 -12   -1.41    1.21
   5  -9 -12    0.21    0.41
  -5   9  12   -0.69    0.84
   4  -9 -12   85.06    8.43
   4  -9 -12   95.66    7.00
  -4   9  12  102.24    8.15
   3  -9 -12   84.59    5.93
   3  -9 -12   66.14    7.31
  -3   9  12   85.82    7.01
   2  -9 -12   31.15    4.38
   2  -9 -12   34.89    2.82
  -2   9  12   38.50    3.84
   1  -9 -12   61.61    7.01
   1  -9 -12   72.41    5.30
  -1   9  12   76.89    6.30
   0  -9 -12    1.75    0.51
   0  -9 -12    3.15    1.63
   0   9  12    4.96    1.37
  -1  -9 -12  118.20   10.90
  -1  -9 -12  117.93    8.87
   1   9  12  131.66    9.96
  -2  -9 -12  249.62   23.71
  -2  -9 -12  251.52   18.38
   2   9  12  272.87   19.49
  -3  -9 -12   47.38    5.67
  -3  -9 -12   43.08    3.55
   3   9  12   47.37    4.56
  -4  -9 -12  104.21    9.77
  -4  -9 -12   98.32    7.56
   4   9  12  106.43    8.59
  -5  -9 -12  162.25   13.79
  -5  -9 -12  152.25   11.56
   5   9  12  164.95   12.65
  -6  -9 -12    2.67    0.66
  -6  -9 -12    2.07    1.50
   6   9  12    3.14    1.33
   6   9  12    2.68    1.23
  -7  -9 -12  131.44   10.10
  -7  -9 -12  146.29   12.34
   7   9  12  138.12   11.07
   7   9  12  135.22   11.74
  -8  -9 -12   65.69    5.50
  -8  -9 -12   74.85    7.64
   8   9  12   72.23    7.29
   8   9  12   73.46    6.49
  -9  -9 -12   21.25    4.28
  -9  -9 -12   21.90    2.06
   9   9  12   17.59    2.70
   9   9  12   21.82    3.60
 -10  -9 -12  114.09    9.09
 -10  -9 -12  135.53   11.83
  10   9  12  123.81   11.23
  10   9  12  116.35    9.96
 -11  -9 -12   50.53    6.55
 -11  -9 -12   43.24    3.89
  11   9  12   50.93    6.06
  11   9  12   43.34    4.68
 -12  -9 -12   45.15    6.25
 -12  -9 -12   34.25    3.23
  12   9  12   34.26    5.19
  12   9  12   33.83    4.16
  -7  10  12   24.20    3.12
   6 -10 -12    3.40    0.75
   6 -10 -12    3.41    2.07
  -6  10  12    4.57    1.58
   5 -10 -12    3.60    0.69
   5 -10 -12    1.43    1.88
  -5  10  12    3.28    1.31
   4 -10 -12  107.97    8.25
  -4  10  12  118.21    9.48
   3 -10 -12   31.83    4.87
   3 -10 -12   38.58    3.08
  -3  10  12   43.78    4.16
   2 -10 -12   58.46    4.54
   2 -10 -12   58.85    6.80
  -2  10  12   62.30    5.56
   1 -10 -12   60.39    4.48
   1 -10 -12   49.24    6.42
  -1  10  12   66.12    5.52
   0 -10 -12   -0.72    0.24
   0 -10 -12   -0.72    1.17
   0  10  12    1.32    0.96
  -1 -10 -12   72.85    8.12
  -1 -10 -12   80.19    6.04
   1  10  12   92.77    7.19
  -2 -10 -12  130.15   12.09
  -2 -10 -12  134.97    9.72
   2  10  12  137.83   10.80
  -3 -10 -12    3.29    0.63
  -3 -10 -12    2.41    1.86
   3  10  12    2.84    1.25
  -4 -10 -12  293.80   23.38
  -4 -10 -12  285.61   20.77
   4  10  12  299.26   21.92
  -5 -10 -12   77.40    7.93
  -5 -10 -12   68.11    5.56
   5  10  12   79.64    6.75
  -6 -10 -12    3.64    0.80
  -6 -10 -12    3.84    1.99
   6  10  12    4.77    1.53
  -7 -10 -12  149.75   10.83
  -7 -10 -12  144.15   13.09
   7  10  12  149.79   11.94
  -8 -10 -12   18.37    3.54
  -8 -10 -12   15.36    1.65
   8  10  12   15.60    2.54
   8  10  12   13.78    3.22
  -9 -10 -12   53.35    6.55
  -9 -10 -12   52.81    4.33
   9  10  12   58.97    6.51
   9  10  12   50.87    5.28
 -10 -10 -12  154.15   11.47
 -10 -10 -12  164.70   14.29
  10  10  12  140.02   13.06
  10  10  12  161.92   13.88
 -11 -10 -12    0.29    0.59
 -11 -10 -12    0.93    1.91
  11  10  12   -0.30    1.50
  11  10  12   -0.08    0.95
 -12 -10 -12   76.75    6.22
 -12 -10 -12   87.96    9.36
  12  10  12   87.71    8.70
  12  10  12   69.49    7.18
   6 -11 -12    1.80    0.56
   6 -11 -12    0.50    1.65
  -6  11  12    2.72    1.20
   5 -11 -12   56.73    6.95
   5 -11 -12   64.02    4.80
  -5  11  12   65.06    5.85
   4 -11 -12  119.60    9.02
   4 -11 -12  119.68   11.62
  -4  11  12  132.45   10.20
   3 -11 -12   -0.78    1.37
   3 -11 -12    0.90    0.39
   2 -11 -12   80.20    6.04
   2 -11 -12   77.52    8.64
  -2  11  12   86.69    7.21
   1 -11 -12   81.59    5.69
   1 -11 -12   65.33    7.96
  -1  11  12   78.99    6.73
   0 -11 -12   10.57    1.14
   0 -11 -12    9.31    2.86
   0  11  12   11.09    1.82
  -1 -11 -12  119.15   11.91
  -1 -11 -12  127.14    9.34
   1  11  12  141.81   10.55
  -2 -11 -12   80.07    8.56
  -2 -11 -12   75.74    5.96
   2  11  12   90.02    7.19
  -3 -11 -12   51.24    6.60
  -3 -11 -12   55.86    4.27
   3  11  12   62.31    5.50
  -4 -11 -12  231.05   19.67
  -4 -11 -12  223.04   16.87
   4  11  12  260.55   18.23
  -5 -11 -12  114.57   11.43
  -5 -11 -12  118.20    8.95
   5  11  12  138.24   10.34
  -6 -11 -12    9.13    3.01
  -6 -11 -12   10.68    1.17
   6  11  12   10.93    2.26
  -7 -11 -12  155.19   16.76
  -7 -11 -12  131.64   10.08
  -8 -11 -12   26.58    4.42
  -8 -11 -12   31.48    2.72
   8  11  12   37.24    4.00
  -9 -11 -12   46.48    6.47
  -9 -11 -12   56.35    4.40
   9  11  12   61.03    5.72
   9  11  12   58.32    6.68
 -10 -11 -12   56.60    4.58
 -10 -11 -12   54.51    6.87
  10  11  12   54.91    6.65
  10  11  12   50.72    5.39
 -11 -11 -12   -0.59    0.56
  11  11  12   -0.17    1.05
  11  11  12   -0.50    1.19
   5 -12 -12   72.46    8.52
   5 -12 -12   73.09    5.66
  -5  12  12   80.46    6.82
   4 -12 -12  106.88   11.36
   4 -12 -12  114.72    8.47
  -4  12  12  125.20    9.65
   3 -12 -12    0.69    0.38
   3 -12 -12    1.75    1.70
  -3  12  12    0.08    0.76
   2 -12 -12   60.60    4.65
   2 -12 -12   58.64    7.34
  -2  12  12   65.87    5.73
   1 -12 -12   37.64    6.00
   1 -12 -12   50.05    3.71
  -1  12  12   54.87    4.88
   0 -12 -12   35.97    2.71
   0 -12 -12   27.80    4.89
   0  12  12   36.38    3.71
  -1 -12 -12  102.28   10.91
  -1 -12 -12  123.11    8.22
   1  12  12  109.31    9.80
  -2 -12 -12   31.75    2.65
  -2 -12 -12   35.73    5.31
   2  12  12   37.61    4.32
  -3 -12 -12   64.52    7.62
  -3 -12 -12   62.67    4.80
   3  12  12   68.17    6.12
  -4 -12 -12   72.69    8.10
  -4 -12 -12   68.22    5.38
   4  12  12   81.07    6.75
  -5 -12 -12    4.75    0.74
  -5 -12 -12    6.28    2.39
   5  12  12    7.05    1.90
  -6 -12 -12   44.76    3.68
  -6 -12 -12   46.73    6.20
   6  12  12   54.54    5.11
  -7 -12 -12   51.64    4.17
  -7 -12 -12   54.58    6.80
   7  12  12   58.56    5.64
  -8 -12 -12    0.54    0.47
  -8 -12 -12    1.93    1.86
   8  12  12    3.83    1.67
  -9 -12 -12   82.31    6.12
  -9 -12 -12   73.98    8.54
   9  12  12   86.36    7.66
 -10 -12 -12   27.62    4.50
  10  12  12   19.53    3.28
   4 -13 -12   14.31    1.35
   4 -13 -12   11.40    3.90
  -4  13  12   13.67    2.27
   3 -13 -12   22.80    5.58
   3 -13 -12   19.89    1.78
  -3  13  12   21.94    2.83
   2 -13 -12  116.83   12.36
  -2  13  12  136.57   10.47
   1 -13 -12   29.02    5.01
  -1  13  12   31.14    3.50
   0 -13 -12   22.49    4.88
   0 -13 -12   30.39    2.43
   0  13  12   38.38    3.75
  -1 -13 -12   59.65    7.68
  -1 -13 -12   61.43    4.80
   1  13  12   77.01    6.25
  -2 -13 -12    2.86    0.50
  -2 -13 -12    1.08    1.72
   2  13  12    4.03    1.38
   3  13  12   79.53    7.15
  -4 -13 -12   45.18    3.59
  -4 -13 -12   49.30    6.62
   4  13  12   52.01    5.08
  -5 -13 -12    2.97    2.19
  -5 -13 -12    3.26    0.59
   5  13  12    3.84    1.45
  -6 -13 -12  128.67   12.23
  -6 -13 -12  110.73    8.93
   6  13  12  141.87   10.76
  -7 -13 -12   49.00    6.68
  -7 -13 -12   53.80    4.18
   7  13  12   64.56    5.87
  -8 -13 -12    6.24    2.60
  -8 -13 -12    5.40    0.81
   8  13  12    7.64    1.99
  -9 -13 -12   28.95    5.06
   9  13  12   32.12    4.14
   3 -14 -12   11.08    3.70
   3 -14 -12    5.33    0.93
  -3  14  12    8.60    1.97
   2 -14 -12   48.42    6.77
   2 -14 -12   37.49    3.60
  -2  14  12   47.63    4.55
   1 -14 -12    3.34    2.36
   1 -14 -12    2.61    0.70
  -1  14  12    4.16    1.43
   0 -14 -12  107.53   12.17
   0  14  12  141.55   10.53
  -1 -14 -12   64.63    8.68
   1  14  12   90.93    7.25
  -2 -14 -12    3.65    2.49
   2  14  12    7.26    1.74
  -3 -14 -12   75.69    9.38
   3  14  12   93.55    7.73
  -4 -14 -12   57.16    7.68
   4  14  12   67.79    6.19
  -5 -14 -12    6.21    2.90
   5  14  12    9.91    2.26
  -6 -14 -12   69.79    8.95
   6  14  12   96.43    8.01
  -7 -14 -12    3.71    2.48
   7  14  12    3.78    1.81
   1 -15 -12    4.72    2.74
  -1  15  12    3.63    1.37
   0 -15 -12   45.85    6.94
   0  15  12   56.20    5.32
  -1 -15 -12   39.48    6.22
   1  15  12   44.20    4.54
  -2 -15 -12   25.09    5.19
   2  15  12   28.97    3.61
  -3 -15 -12   78.22    9.74
   3  15  12   95.40    8.05
  -4 -15 -12   16.40    4.30
   4  15  12   23.52    3.20
  -5 -15 -12   51.25    7.26
   5  15  12   59.62    5.92
  -2   5 -13   32.35    2.88
   2  -5  13   40.01    5.20
  -3   5 -13   84.47    6.82
   3  -5  13  106.08    9.39
  -4   5 -13    2.60    0.63
   4  -5  13    5.46    2.05
  -5   5 -13   63.35    4.90
  -6   5 -13   53.08    4.20
  -7   5 -13    0.82    0.53
   7  -5  13    0.93    1.26
   0   4 -13   47.40    3.98
   0  -4  13   55.40    6.17
  -1   4 -13   10.63    1.31
   1  -4  13   14.47    3.07
  -2   4 -13   97.35    7.65
   2  -4  13  113.29    9.99
  -3   4 -13   91.16    7.32
   3  -4  13  111.88    9.61
  -4   4 -13    0.50    0.47
   4  -4  13    0.11    1.42
  -5   4 -13   90.40    7.24
   5  -4  13  108.17    9.30
  -6   4 -13   42.57    3.74
   6  -4  13   55.17    5.59
  -7   4 -13   14.35    1.73
   7  -4  13   22.01    3.29
   7  -4  13   19.55    3.26
  -8   4 -13   99.21    8.30
   8  -4  13  126.88   10.48
   9  -4  13   50.91    8.08
   9  -4  13   36.54    4.70
   2   3 -13    4.40    0.85
  -2  -3  13    6.06    2.15
   1   3 -13   65.86    5.40
  -1  -3  13   78.83    7.60
   0   3 -13   38.94    3.29
   0  -3  13   41.63    5.19
  -1   3 -13   -0.40    0.41
   1  -3  13    1.16    1.28
  -2   3 -13  108.26    8.51
   2  -3  13  126.66   10.68
  -3   3 -13   22.34    2.28
   3  -3  13   24.29    3.54
   4  -3  13    7.13    2.26
   5  -3  13  182.83   15.07
  -6   3 -13   15.50    1.66
  -7   3 -13    8.03    1.26
   7  -3  13   12.47    2.64
   7  -3  13   13.27    2.66
  -8   3 -13   35.27    3.46
   8  -3  13   48.37    5.19
   8  -3  13   44.82    4.89
  -9   3 -13    0.05    0.52
   9  -3  13   -1.10    0.90
   9  -3  13    1.97    1.33
 -10   3 -13   57.17    5.06
  10  -3  13   71.88    7.33
   3   2 -13   81.71    6.46
  -3  -2  13   89.10    8.62
   2   2 -13   14.68    1.60
  -2  -2  13   13.74    3.21
   1   2 -13   44.92    3.64
  -1  -2  13   42.98    5.24
   0   2 -13   37.22    3.31
   0  -2  13   46.59    5.17
  -1   2 -13   20.87    2.24
   1  -2  13   24.87    3.81
  -2   2 -13  153.76   11.69
   2  -2  13  168.85   13.62
  -3   2 -13    6.09    0.97
   3  -2  13    5.60    2.05
  -4   2 -13   79.40    6.23
   4  -2  13   86.50    8.00
  -5   2 -13  170.67   13.57
   5  -2  13  180.86   15.10
   5  -2  13  209.65   14.60
  -6   2 -13   15.07    1.97
   6  -2  13   22.80    2.92
   6  -2  13   18.84    3.08
   7  -2  13   44.68    5.03
   7  -2  13   51.25    5.25
  -8   2 -13   33.41    3.04
   8  -2  13   35.60    4.20
   8  -2  13   35.57    4.43
  -9   2 -13    6.85    1.23
   9  -2  13    6.28    1.80
   9  -2  13    9.60    2.60
 -10   2 -13  164.65   12.77
  10  -2  13  186.59   13.81
  10  -2  13  169.86   15.11
 -11   2 -13   51.42    4.47
  11  -2  13   57.07    6.62
   4   1 -13   75.10    6.17
  -4  -1  13   88.10    8.37
   3   1 -13   23.95    2.35
  -3  -1  13   28.19    3.97
   2   1 -13   47.06    3.83
  -2  -1  13   45.57    5.53
   1   1 -13  130.73    9.73
  -1  -1  13  133.17   11.66
   0   1 -13   13.08    1.88
   0  -1  13   21.66    3.45
  -1   1 -13   75.21    5.97
   1  -1  13   83.06    7.78
  -2   1 -13  109.44    8.15
  -3   1 -13   30.69    2.70
   3  -1  13   31.14    3.93
  -4   1 -13   62.58    4.91
   4  -1  13   63.07    6.27
  -5   1 -13   59.17    5.08
   5  -1  13   58.82    6.31
   5  -1  13   76.60    6.03
  -6   1 -13    7.30    1.13
   6  -1  13    9.36    1.87
   6  -1  13    8.10    2.09
  -7   1 -13   86.73    7.58
   7  -1  13  111.67    9.02
   7  -1  13  105.11    8.86
  -8   1 -13   68.19    5.96
   8  -1  13   80.37    7.09
   8  -1  13   84.28    7.56
  -9   1 -13    7.94    1.23
   9  -1  13    7.96    1.99
   9  -1  13    7.67    2.29
 -10   1 -13   75.67    6.42
  10  -1  13   86.78    7.29
  10  -1  13   85.74    8.44
 -11   1 -13   29.15    2.87
  11  -1  13   31.88    4.63
 -12   1 -13   48.11    4.31
  12  -1  13   54.90    6.57
  -5   0  13    9.75    2.89
   4   0 -13  148.65   10.71
  -4   0  13  138.51   12.53
   3   0 -13   15.51    1.71
  -3   0  13   14.51    3.27
   2   0 -13   36.60    3.21
  -2   0  13   40.05    4.91
   1   0 -13   96.60    7.21
  -1   0  13   93.63    8.85
   0   0 -13    0.94    0.53
   0   0  13    0.98    1.37
  -1   0 -13   86.06    6.65
   1   0  13   90.35    8.31
  -2   0 -13   65.95    5.08
   2   0  13   63.67    6.42
  -3   0 -13   17.66    1.81
   3   0  13   18.13    2.87
  -4   0 -13  151.41   10.82
   4   0  13  142.32   12.13
  -5   0 -13   56.40    4.88
   5   0  13   59.15    6.09
   5   0  13   70.39    5.74
  -6   0 -13   13.37    1.64
   6   0  13   15.23    2.46
   6   0  13   16.51    2.46
  -7   0 -13   72.20    5.99
   7   0  13   76.93    7.06
   7   0  13   85.26    8.15
  -8   0 -13    6.26    1.14
   8   0  13    3.24    1.46
   8   0  13    3.09    1.49
  -9   0 -13   61.87    5.16
   9   0  13   62.82    5.94
   9   0  13   68.54    6.78
 -10   0 -13   61.32    5.21
  10   0  13   64.58    7.01
  10   0  13   69.25    6.04
 -11   0 -13    0.03    0.67
  11   0  13   -0.71    1.10
  11   0  13    0.09    1.29
 -12   0 -13   64.81    5.56
  12   0  13   74.56    7.85
   5  -1 -13   55.37    4.41
  -5   1  13   50.17    6.10
   4  -1 -13  160.69   11.61
  -4   1  13  153.22   13.43
   3  -1 -13   -0.04    0.39
  -3   1  13    0.09    1.26
   2  -1 -13  116.28    8.72
  -2   1  13  118.23   10.46
   1  -1 -13  134.92    9.53
  -1   1  13   99.51   10.77
   0  -1 -13   10.02    1.23
   0   1  13   11.46    2.51
  -1  -1 -13   81.95    6.34
   1   1  13   85.45    7.92
  -2  -1 -13   45.38    3.59
   2   1  13   40.47    4.71
  -3  -1 -13   39.92    3.80
  -3  -1 -13   54.32    4.24
   3   1  13   45.20    5.00
  -4  -1 -13  272.71   19.83
   4   1  13  280.90   21.23
  -5  -1 -13    2.57    0.75
   5   1  13    3.92    1.19
   5   1  13    1.36    1.15
  -6  -1 -13   53.82    4.72
   6   1  13   68.87    5.83
   6   1  13   55.69    5.75
  -7  -1 -13  197.92   14.90
   7   1  13  209.19   16.01
   7   1  13  209.14   18.11
  -8  -1 -13    0.11    0.46
   8   1  13    0.81    1.06
   8   1  13    0.38    0.87
  -9  -1 -13   88.26    6.75
   9   1  13   86.14    8.27
   9   1  13   86.07    7.50
 -10  -1 -13  126.22   10.15
  10   1  13  137.41   12.04
  10   1  13  143.59   10.92
 -11  -1 -13    0.31    0.64
  11   1  13    0.09    1.07
 -12  -1 -13   96.75    7.90
  12   1  13  108.03   10.26
 -13  -1 -13   36.59    3.70
  13   1  13   47.95    6.04
  -6   2  13    1.20    1.18
   5  -2 -13  111.08    8.48
  -5   2  13  114.94   10.35
   4  -2 -13   93.36    7.22
  -4   2  13   97.35    9.01
   3  -2 -13    5.63    0.99
  -3   2  13    6.25    2.16
   2  -2 -13  165.40   11.92
  -2   2  13  159.67   13.66
   1  -2 -13   18.49    1.87
  -1   2  13   18.98    3.00
   0  -2 -13   57.67    4.59
   0   2  13   58.81    6.06
  -1  -2 -13  163.44   11.86
   1   2  13  161.47   13.34
  -2  -2 -13   31.35    2.65
   2   2  13   28.81    3.80
  -3  -2 -13   90.39    7.43
  -3  -2 -13  114.32    7.95
   3   2  13   88.08    8.60
  -4  -2 -13  120.83    9.56
   4   2  13  141.73   10.07
   4   2  13  123.17   10.77
  -5  -2 -13    3.17    0.77
   5   2  13    3.27    1.16
   5   2  13    2.93    1.40
  -6  -2 -13  118.01    9.50
   6   2  13  134.91   10.54
   6   2  13  132.39   10.68
  -7  -2 -13   91.06    7.08
   7   2  13   93.85    8.07
   7   2  13   92.43    9.91
  -8  -2 -13   12.83    1.78
   8   2  13   18.72    2.96
   8   2  13   13.78    2.57
  -9  -2 -13  189.26   14.07
   9   2  13  175.34   14.62
   9   2  13  168.94   13.70
 -10  -2 -13   77.21    6.21
  10   2  13   75.79    6.75
  10   2  13   81.80    7.93
 -11  -2 -13   17.68    2.20
  11   2  13   22.45    2.74
  11   2  13   16.94    5.70
 -12  -2 -13  102.97    8.37
  12   2  13  111.06   10.58
  12   2  13  111.87    9.33
 -13  -2 -13   51.39    4.64
  13   2  13   57.86    6.94
   6  -3 -13    2.09    0.76
  -6   3  13    2.13    1.49
   5  -3 -13  179.87   13.39
  -5   3  13  187.27   15.20
   4  -3 -13   68.24    5.63
  -4   3  13   80.76    7.46
   3  -3 -13   37.90    3.28
  -3   3  13   42.82    4.93
   2  -3 -13  200.48   14.47
  -2   3  13  178.98   15.28
   1  -3 -13   19.07    1.78
  -1   3  13   16.03    3.11
   0  -3 -13   58.89    4.59
   0   3  13   58.11    5.99
  -1  -3 -13  328.36   23.51
   1   3  13  331.21   24.98
  -2  -3 -13    7.79    1.12
   2   3  13    5.90    1.68
  -3  -3 -13  130.47    9.52
   3   3  13  126.45   10.70
  -4  -3 -13  163.33   12.57
   4   3  13  169.69   13.77
   4   3  13  183.21   13.09
  -5  -3 -13    3.27    0.77
   5   3  13    2.34    1.08
   5   3  13    3.31    1.31
  -6  -3 -13   63.76    5.39
   6   3  13   65.32    6.29
   6   3  13   77.04    6.44
  -7  -3 -13   27.45    2.53
   7   3  13   29.77    3.73
   7   3  13   24.64    3.30
  -8  -3 -13   62.60    5.27
   8   3  13   68.89    6.58
   8   3  13   66.79    6.15
  -9  -3 -13  248.01   18.87
   9   3  13  269.85   19.63
   9   3  13  261.89   20.48
 -10  -3 -13   20.32    2.43
  10   3  13   26.54    3.85
  10   3  13   28.65    3.09
 -11  -3 -13   21.47    2.30
  11   3  13   19.71    2.74
  11   3  13   21.38    5.96
 -12  -3 -13   45.65    4.37
  12   3  13   53.79    6.46
  12   3  13   57.69    5.02
 -13  -3 -13    0.47    0.55
  13   3  13   -0.80    1.44
   6  -4 -13   25.74    2.56
  -6   4  13   30.43    4.09
   5  -4 -13  101.70    8.02
  -5   4  13  113.64    9.76
   4  -4 -13   15.72    1.73
  -4   4  13   18.40    3.06
   3  -4 -13   75.13    5.76
   2  -4 -13  138.20   10.32
  -2   4  13  144.40   11.86
   1  -4 -13    5.66    0.96
  -1   4  13    5.57    1.70
   0  -4 -13   36.35    3.04
   0   4  13   35.91    4.26
  -1  -4 -13   92.24    6.80
   1   4  13   87.41    7.97
  -2  -4 -13   11.10    1.71
  -2  -4 -13   12.09    1.41
   2   4  13   14.53    2.28
  -3  -4 -13  189.28   14.07
  -3  -4 -13  161.17   12.40
   3   4  13  161.77   13.52
  -4  -4 -13   31.11    2.82
   4   4  13   33.84    3.32
   4   4  13   33.64    3.90
  -5  -4 -13   56.26    4.73
   5   4  13   56.41    5.64
   5   4  13   66.18    5.58
  -6  -4 -13  170.42   12.62
   6   4  13  191.02   13.78
   6   4  13  154.13   13.45
  -7  -4 -13   20.67    2.18
   7   4  13   20.64    2.90
   7   4  13   24.01    3.24
  -8  -4 -13  102.56    8.16
   8   4  13  109.34    9.00
   8   4  13  110.82    9.55
  -9  -4 -13  183.42   13.63
   9   4  13  181.34   15.17
   9   4  13  191.15   14.40
 -10  -4 -13    0.28    0.67
  10   4  13    2.75    1.56
  10   4  13    2.20    1.07
 -11  -4 -13  128.63   10.08
  11   4  13  137.55   10.61
 -12  -4 -13  112.70    9.37
  12   4  13  135.06   11.84
  12   4  13  123.27    9.82
 -13  -4 -13    1.16    0.81
  13   4  13    2.35    2.17
   6  -5 -13   75.85    5.98
  -6   5  13   78.34    7.47
   5  -5 -13  168.95   12.22
  -5   5  13  164.22   13.72
   4  -5 -13    3.65    0.81
  -4   5  13    6.20    1.97
   3  -5 -13   98.59    7.53
  -3   5  13  104.12    9.15
   2  -5 -13  102.41    7.86
  -2   5  13  111.03    9.35
   1  -5 -13   17.13    1.69
  -1   5  13   15.85    2.70
   0  -5 -13  136.27    9.78
   0   5  13  129.75   11.01
  -1  -5 -13    0.46    0.64
  -1  -5 -13    3.06    0.69
   1   5  13    1.79    1.06
  -2  -5 -13  107.51    7.86
   2   5  13  103.32    8.99
  -3  -5 -13  363.56   25.49
  -3  -5 -13  344.89   24.19
   3   5  13  307.66   25.18
  -4  -5 -13   34.98    2.88
   4   5  13   30.81    3.29
   4   5  13   33.11    3.81
  -5  -5 -13    6.79    1.17
  -5  -5 -13   10.07    2.34
   5   5  13    9.93    1.76
   5   5  13    7.39    1.77
  -6  -5 -13  110.51    8.49
   6   5  13  110.76    9.39
   6   5  13  117.72    9.61
  -7  -5 -13   37.31    3.33
   7   5  13   39.45    4.37
   7   5  13   36.77    4.04
  -8  -5 -13  257.07   20.00
   8   5  13  279.07   20.87
   8   5  13  297.00   21.65
  -9  -5 -13  119.63    9.27
   9   5  13  123.10   10.02
   9   5  13  126.26   10.90
 -10  -5 -13   11.32    1.72
  10   5  13   13.55    2.23
  10   5  13   15.93    3.02
 -11  -5 -13  214.68   15.79
  11   5  13  207.91   16.27
  11   5  13  223.27   17.93
 -12  -5 -13   92.47    7.70
  12   5  13  104.88    9.99
  12   5  13   99.86    8.22
 -13  -5 -13    0.05    0.74
  13   5  13   -0.13    1.41
   6  -6 -13   68.41    5.48
  -6   6  13   72.33    6.88
   5  -6 -13   55.16    4.46
  -5   6  13   57.62    5.75
   4  -6 -13   25.75    2.27
  -4   6  13   22.22    3.32
  -3   6  13  156.87   12.81
   2  -6 -13  110.60    8.61
  -2   6  13  125.60   10.06
   1  -6 -13   42.07    3.42
  -1   6  13   43.71    4.63
   0  -6 -13  111.89    9.93
   0  -6 -13  139.38    9.57
   0   6  13  147.14   10.91
  -1  -6 -13   62.71    4.62
   1   6  13   55.04    5.53
  -2  -6 -13   93.59    6.71
  -2  -6 -13   83.65    7.81
   2   6  13   89.62    7.79
  -3  -6 -13   94.17    8.25
  -3  -6 -13   87.20    6.81
   3   6  13   91.01    7.85
  -4  -6 -13    2.82    0.67
  -4  -6 -13    4.14    1.68
   4   6  13    2.88    1.27
  -5  -6 -13  174.59   12.72
   5   6  13  171.69   13.63
   5   6  13  175.95   13.70
  -6  -6 -13  259.15   19.84
  -6  -6 -13  316.08   21.90
   6   6  13  259.45   20.74
   6   6  13  272.34   21.01
  -7  -6 -13   20.37    2.22
  -7  -6 -13   25.58    3.72
   7   6  13   24.26    3.29
   7   6  13   19.76    2.91
  -8  -6 -13  177.23   14.02
   8   6  13  191.60   14.90
   8   6  13  207.87   15.75
  -9  -6 -13  107.03    8.53
   9   6  13  116.69   10.24
   9   6  13  114.72    9.32
 -10  -6 -13   29.06    2.86
  10   6  13   29.83    4.27
  10   6  13   30.96    3.56
 -11  -6 -13  132.10   10.66
  11   6  13  160.79   13.04
  11   6  13  135.93   11.21
 -12  -6 -13   33.93    3.18
  12   6  13   32.66    3.68
  12   6  13   32.34    4.88
 -13  -6 -13   27.90    2.87
  13   6  13   28.84    4.52
   6  -7 -13  132.04   10.21
  -6   7  13  146.66   11.72
   5  -7 -13   11.87    1.39
  -5   7  13    9.68    2.31
   4  -7 -13   33.73    2.92
  -4   7  13   35.28    4.10
  -3   7  13   64.07    6.14
   2  -7 -13   62.68    4.78
  -2   7  13   60.72    5.92
   1  -7 -13  143.21   10.01
  -1   7  13  129.39   11.10
   0  -7 -13   80.81    8.04
   0  -7 -13  104.26    7.17
   0   7  13  106.31    8.37
  -1  -7 -13    0.38    0.93
  -1  -7 -13    0.78    0.38
   1   7  13   -0.39    0.48
  -2  -7 -13   49.34    5.17
  -2  -7 -13   44.64    3.67
   2   7  13   44.34    4.56
  -3  -7 -13   15.68    2.86
  -3  -7 -13   14.25    1.56
   3   7  13   14.41    2.20
  -4  -7 -13    1.65    0.64
  -4  -7 -13    1.30    1.33
   4   7  13    2.86    1.31
  -5  -7 -13  253.19   19.98
  -5  -7 -13  229.92   16.61
   5   7  13  228.03   17.61
   5   7  13  213.30   18.31
  -6  -7 -13   67.22    5.40
  -6  -7 -13   77.89    7.26
   6   7  13   69.03    6.26
   6   7  13   62.62    6.40
  -7  -7 -13   71.33    7.17
  -7  -7 -13   68.64    5.40
   7   7  13   64.72    6.19
   7   7  13   67.40    6.67
  -8  -7 -13  129.13   10.08
  -8  -7 -13  145.10   12.24
   8   7  13  133.36   11.63
   8   7  13  134.40   10.95
  -9  -7 -13   20.10    3.76
  -9  -7 -13   16.52    1.92
   9   7  13   13.17    2.50
   9   7  13   21.04    3.33
 -10  -7 -13   55.60    4.71
  10   7  13   74.40    9.81
  10   7  13   52.07    5.29
 -11  -7 -13  116.37    9.48
  11   7  13  125.18   10.21
  11   7  13  137.11   11.82
 -12  -7 -13    9.94    1.55
  12   7  13    8.46    1.91
  12   7  13   13.55    3.46
 -13  -7 -13  107.75    8.56
  13   7  13  113.57   10.99
   6  -8 -13   97.80    8.09
  -6   8  13  118.76    9.48
   5  -8 -13    1.30    0.56
  -5   8  13    3.01    1.33
   4  -8 -13   54.26    4.64
  -4   8  13   68.90    6.06
   3  -8 -13  201.96   14.73
   2  -8 -13   -0.10    0.40
  -2   8  13    2.22    1.24
   1  -8 -13   46.79    5.15
   1  -8 -13   50.98    4.02
  -1   8  13   58.82    5.26
   0  -8 -13  152.65    9.88
   0  -8 -13  112.73   11.17
   0   8  13  140.06   11.00
  -1  -8 -13   21.37    3.44
  -1  -8 -13   25.86    2.14
   1   8  13   24.38    2.96
  -2  -8 -13   76.98    7.68
  -2  -8 -13   77.54    5.94
   2   8  13   82.85    7.01
  -3  -8 -13   27.42    4.03
  -3  -8 -13   24.57    2.27
   3   8  13   26.02    3.10
  -4  -8 -13   24.83    4.02
  -4  -8 -13   25.37    2.27
   4   8  13   24.13    3.14
  -5  -8 -13  133.17   11.74
  -5  -8 -13  132.44    9.74
   5   8  13  129.76   10.73
  -6  -8 -13    6.99    2.32
  -6  -8 -13    9.08    1.24
   6   8  13    6.97    1.69
   6   8  13    4.60    1.64
  -7  -8 -13  122.10    8.98
  -7  -8 -13  126.64   11.06
   7   8  13  112.70    9.82
   7   8  13  117.47   10.43
  -8  -8 -13  129.16   10.37
  -8  -8 -13  153.68   12.71
   8   8  13  149.47   12.22
   8   8  13  129.50   11.21
  -9  -8 -13    1.08    1.60
  -9  -8 -13    0.58    0.60
   9   8  13    2.11    1.54
   9   8  13   -0.84    0.81
 -10  -8 -13  129.59   10.04
 -10  -8 -13  146.92   12.75
  10   8  13  132.98   11.98
  10   8  13  128.39   10.79
 -11  -8 -13  110.22    9.12
 -11  -8 -13  135.79   12.31
  11   8  13  129.78   11.51
  11   8  13  112.45    9.84
 -12  -8 -13    4.20    1.09
 -12  -8 -13    3.12    2.57
  12   8  13    2.39    1.42
  12   8  13    3.19    2.08
   6  -9 -13   74.70    6.05
  -6   9  13   85.15    7.38
   5  -9 -13    5.84    0.96
  -5   9  13    6.38    1.79
   4  -9 -13   56.17    4.52
  -4   9  13   60.89    5.73
   3  -9 -13  103.73    7.72
   3  -9 -13   89.50    8.89
  -3   9  13  123.04    9.16
   2  -9 -13    1.73    1.44
   2  -9 -13    3.40    0.70
  -2   9  13    5.15    1.57
   1  -9 -13  101.32    7.27
   1  -9 -13   84.26    8.84
  -1   9  13  110.08    8.51
   0  -9 -13   21.00    3.63
   0  -9 -13   25.72    2.16
   0   9  13   28.29    3.23
  -1  -9 -13   53.38    6.31
  -1  -9 -13   62.11    4.64
   1   9  13   66.28    5.72
  -2  -9 -13   96.50    7.31
   2   9  13  102.32    8.40
  -3  -9 -13   48.84    3.83
  -3  -9 -13   47.16    5.79
   3   9  13   49.65    4.80
  -4  -9 -13   68.98    5.43
  -4  -9 -13   74.31    7.62
   4   9  13   71.33    6.50
  -5  -9 -13   59.01    6.72
  -5  -9 -13   60.58    4.76
   5   9  13   63.01    5.83
  -6  -9 -13   -0.58    1.30
  -6  -9 -13   -0.19    0.51
   6   9  13    1.35    0.95
  -7  -9 -13  139.50   10.52
  -7  -9 -13  144.11   12.73
   7   9  13  146.85   12.27
   7   9  13  140.28   11.52
  -8  -9 -13  104.60    9.84
  -8  -9 -13  100.07    7.56
   8   9  13   91.00    9.17
   8   9  13  103.41    8.60
  -9  -9 -13   18.00    2.01
  -9  -9 -13   20.13    3.92
   9   9  13   22.30    3.70
   9   9  13   18.47    2.81
 -10  -9 -13  177.16   13.79
 -10  -9 -13  206.39   16.80
  10   9  13  200.80   16.21
  10   9  13  173.58   14.65
 -11  -9 -13  107.77    8.53
 -11  -9 -13  127.46   11.75
  11   9  13   95.79    9.83
  11   9  13  121.13   10.97
 -12  -9 -13   23.97    2.55
 -12  -9 -13   30.35    5.10
  12   9  13   23.35    4.07
  -6  10  13   75.79    7.00
   5 -10 -13    7.58    1.07
  -5  10  13    7.58    1.90
   4 -10 -13  102.99    8.11
  -4  10  13  119.08    9.42
   3 -10 -13   12.06    3.13
   3 -10 -13   16.50    1.58
  -3  10  13   19.51    2.65
   2 -10 -13   20.30    3.62
   2 -10 -13   17.77    1.77
  -2  10  13   22.22    2.84
   1 -10 -13   67.51    7.65
   1 -10 -13   79.81    5.63
   0 -10 -13   14.02    1.30
   0 -10 -13    9.43    2.96
   0  10  13   11.54    2.19
  -1 -10 -13   67.62    8.20
  -1 -10 -13   90.57    6.37
   1  10  13   97.62    7.56
  -2 -10 -13   94.92    7.25
  -2 -10 -13   97.36    9.60
   2  10  13  104.48    8.41
  -3 -10 -13    3.69    1.96
  -3 -10 -13    3.41    0.69
   3  10  13    4.64    1.44
  -4 -10 -13   70.69    5.71
  -4 -10 -13   76.61    8.11
   4  10  13   82.77    6.99
  -5 -10 -13   27.24    2.49
  -5 -10 -13   30.31    4.67
   5  10  13   31.45    3.52
  -6 -10 -13    7.03    1.06
  -6 -10 -13    6.36    2.37
   6  10  13    8.08    1.97
  -7 -10 -13  116.59    8.91
  -7 -10 -13  114.60   11.17
   7  10  13  130.42   10.19
  -8 -10 -13   56.45    7.98
  -8 -10 -13   54.84    4.60
   8  10  13   61.56    7.68
   8  10  13   59.99    6.40
  -9 -10 -13   51.62    4.36
  -9 -10 -13   52.83    6.61
   9  10  13   54.61    6.35
   9  10  13   56.43    5.51
 -10 -10 -13   99.70   10.12
 -10 -10 -13   93.27    7.39
  10  10  13  104.28    9.81
  10  10  13   91.84    8.39
 -11 -10 -13   26.89    2.79
 -11 -10 -13   30.14    5.27
  11  10  13   27.40    3.57
  11  10  13   35.49    5.06
   5 -11 -13   41.67    3.49
  -5  11  13   45.13    4.64
   4 -11 -13  149.39   10.67
   4 -11 -13  136.42   12.93
  -4  11  13  152.48   11.91
   3 -11 -13   15.65    3.65
   3 -11 -13   20.71    1.83
  -3  11  13   21.31    2.87
   2 -11 -13   42.43    3.49
   2 -11 -13   45.94    5.97
  -2  11  13   46.32    4.62
   1 -11 -13   78.59    5.94
   1 -11 -13   71.20    8.25
  -1  11  13   89.18    7.15
   0 -11 -13    0.46    1.60
   0 -11 -13    3.85    0.67
   0  11  13    3.23    1.30
  -1 -11 -13   56.39    4.54
  -1 -11 -13   56.48    6.92
   1  11  13   69.44    5.78
  -2 -11 -13   86.01    6.69
  -2 -11 -13   89.98    9.35
   2  11  13  101.15    8.54
  -3 -11 -13   28.71    4.81
  -3 -11 -13   32.29    2.65
   3  11  13   35.62    4.16
  -4 -11 -13   93.63    7.44
  -4 -11 -13   95.87   10.04
   4  11  13  122.64    9.62
  -5 -11 -13   11.84    3.36
  -5 -11 -13   11.06    1.25
   5  11  13   12.44    2.39
  -6 -11 -13   54.82    6.75
  -6 -11 -13   57.29    4.41
   6  11  13   57.45    5.63
  -7 -11 -13  160.95   12.44
  -7 -11 -13  163.71   15.01
   7  11  13  193.54   13.97
  -8 -11 -13   52.82    4.16
  -8 -11 -13   43.45    6.16
   8  11  13   57.89    5.46
  -9 -11 -13   18.10    3.66
  -9 -11 -13   18.40    1.96
   9  11  13   23.52    3.80
   9  11  13   21.98    3.20
 -10 -11 -13   47.45    6.27
 -10 -11 -13   43.08    3.94
  10  11  13   51.88    6.15
  10  11  13   50.75    5.16
   4 -12 -13   78.70    5.99
   4 -12 -13   75.91    8.64
  -4  12  13   83.84    7.24
   3 -12 -13   -1.02    1.31
   3 -12 -13    1.04    0.47
  -3  12  13    0.99    1.00
   2 -12 -13   35.04    2.84
   2 -12 -13   31.87    5.13
  -2  12  13   38.17    3.99
   1 -12 -13   29.20    2.40
   1 -12 -13   27.54    4.66
  -1  12  13   31.15    3.45
   0 -12 -13   11.21    1.17
   0 -12 -13    8.94    2.96
   0  12  13   12.31    2.27
  -1 -12 -13  100.97   11.24
  -1 -12 -13  123.24    8.57
   1  12  13  125.77    9.82
  -2 -12 -13   23.00    4.43
  -2 -12 -13   24.91    2.18
   2  12  13   32.68    3.40
  -3 -12 -13   32.26    2.61
  -3 -12 -13   26.83    4.83
   3  12  13   36.77    3.80
  -4 -12 -13   93.39    9.80
  -4 -12 -13   86.85    6.79
   4  12  13  100.83    8.21
  -5 -12 -13    9.28    1.08
   5  12  13   11.29    2.34
  -6 -12 -13   42.44    5.77
  -6 -12 -13   40.85    3.41
   6  12  13   48.82    4.81
  -7 -12 -13   53.57    6.95
  -7 -12 -13   53.58    4.43
   7  12  13   69.78    6.11
  -8 -12 -13    7.64    2.84
  -8 -12 -13    7.11    1.05
   8  12  13   11.24    2.45
  -9 -12 -13  144.14   13.64
  -9 -12 -13  140.43   10.86
   9  12  13  153.97   12.26
   3 -13 -13    1.14    0.43
  -3  13  13    1.42    1.09
   2 -13 -13   68.28    8.28
  -2  13  13   69.41    6.38
   1 -13 -13   25.06    2.10
   1 -13 -13   23.47    4.61
  -1  13  13   26.85    3.28
   0 -13 -13   17.41    1.56
   0 -13 -13   13.39    3.99
   0  13  13   19.95    2.74
  -1 -13 -13   99.16    7.20
  -1 -13 -13   86.42   10.05
   1  13  13  109.68    8.59
  -2 -13 -13   20.71    1.86
   2  13  13   26.64    3.19
  -3 -13 -13   11.51    3.52
   3  13  13   16.48    2.55
  -4 -13 -13   63.92    7.96
  -4 -13 -13   60.92    4.88
   4  13  13   77.39    6.54
  -5 -13 -13    2.98    0.59
  -5 -13 -13    4.45    2.22
   5  13  13    4.36    1.55
  -6 -13 -13   59.59    7.57
   6  13  13   75.01    6.71
  -7 -13 -13   36.10    5.75
   7  13  13   49.38    5.04
  -8 -13 -13   -0.09    1.70
  -8 -13 -13    0.21    0.43
   8  13  13    0.20    0.95
   2 -14 -13   53.11    7.19
  -2  14  13   54.05    5.34
   1 -14 -13    5.01    2.44
   1 -14 -13    2.93    0.56
  -1  14  13    5.00    1.56
   0 -14 -13   28.74    2.37
   0 -14 -13   30.81    5.17
   0  14  13   31.76    3.58
  -1 -14 -13   10.95    3.69
   1  14  13   19.86    2.75
  -2 -14 -13   -0.43    0.28
  -2 -14 -13   -0.03    1.68
   2  14  13    0.46    1.09
  -3 -14 -13   60.14    7.67
  -3 -14 -13   56.06    4.25
  -4 -14 -13   48.88    7.16
   4  14  13   64.30    5.97
  -5 -14 -13   13.05    3.92
   5  14  13   21.19    3.18
  -6 -14 -13   85.82   10.46
   6  14  13  121.13    9.46
   7  14  13   13.54    2.85
  -1 -15 -13    5.95    3.04
   1  15  13    9.85    2.15
  -2 -15 -13   -1.41    1.49
   2  15  13   -0.23    0.82
  -3 -15 -13   82.95   10.32
   3  15  13  105.21    8.65
  -4   4 -14    4.54    0.86
   4  -4  14    5.50    2.02
   5  -4  14   31.85    4.38
   6  -4  14   36.35    4.77
  -1   3 -14   -0.60    0.43
   1  -3  14    1.01    1.56
  -2   3 -14   72.83    5.97
   2  -3  14   89.34    8.26
  -3   3 -14   39.22    3.56
   3  -3  14   57.20    6.00
  -4   3 -14    0.65    0.48
   4  -3  14   -0.18    1.39
  -5   3 -14   36.60    3.21
   5  -3  14   42.00    5.04
  -6   3 -14   21.77    2.29
   6  -3  14   32.99    4.12
  -7   3 -14   50.13    4.30
   7  -3  14   59.15    6.12
  -8   3 -14  118.67    9.74
   8  -3  14  140.48   11.47
   8  -3  14  138.44   11.48
   1   2 -14   96.26    7.52
  -1  -2  14  105.39    9.83
   0   2 -14   28.90    2.73
   0  -2  14   36.41    4.85
  -1   2 -14   21.15    2.10
   1  -2  14   23.78    3.94
  -2   2 -14  135.50   10.34
   2  -2  14  148.07   12.41
  -3   2 -14   40.66    3.38
   3  -2  14   40.26    5.11
  -4   2 -14    0.77    0.39
   4  -2  14    1.34    1.49
  -5   2 -14   75.67    6.11
   5  -2  14   86.48    7.94
  -6   2 -14   13.29    1.61
   6  -2  14   17.55    3.28
  -7   2 -14   16.72    2.03
   7  -2  14   20.55    2.96
  -8   2 -14   48.88    4.24
   8  -2  14   55.99    5.78
  -9   2 -14    1.88    0.75
   9  -2  14    3.41    1.87
   9  -2  14    0.51    1.14
 -10   2 -14   44.75    4.09
  10  -2  14   50.56    5.30
  10  -2  14   52.11    5.90
   2   1 -14    4.47    0.90
  -2  -1  14    5.18    2.08
   1   1 -14   39.32    3.35
  -1  -1  14   39.37    5.00
   0   1 -14   22.81    2.27
   0  -1  14   31.06    4.14
  -1   1 -14   51.34    4.16
   1  -1  14   51.69    5.83
  -2   1 -14  174.08   13.10
   2  -1  14  188.15   15.15
  -3   1 -14    2.63    0.72
   3  -1  14    1.13    1.39
  -4   1 -14   19.65    2.03
   4  -1  14   23.61    3.36
  -5   1 -14  103.30    7.91
   5  -1  14  108.48    9.55
  -6   1 -14    0.33    0.53
   6  -1  14    0.43    1.00
   6  -1  14    0.95    1.46
  -7   1 -14   26.20    2.64
   7  -1  14   29.17    3.88
   7  -1  14   31.50    3.78
  -8   1 -14   25.20    2.76
   8  -1  14   35.25    4.15
   8  -1  14   35.15    4.03
  -9   1 -14   63.55    5.51
   9  -1  14   70.05    6.69
   9  -1  14   75.13    7.13
 -10   1 -14  143.02   11.24
  10  -1  14  156.91   12.26
  10  -1  14  153.27   14.20
 -11   1 -14   16.33    2.03
  11  -1  14   21.46    3.83
  11  -1  14   16.18    2.91
   3   0 -14   37.07    3.30
  -3   0  14   39.25    5.22
   2   0 -14   27.45    2.48
  -2   0  14   23.35    4.02
   1   0 -14   97.53    7.57
  -1   0  14  103.81    9.58
   0   0 -14    0.33    0.45
   0   0  14    1.97    1.58
  -1   0 -14   69.22    5.33
   1   0  14   66.08    7.03
  -2   0 -14  128.32    9.46
   2   0  14  126.29   11.20
  -3   0 -14    4.47    0.92
   3   0  14    5.59    1.92
  -4   0 -14  107.62    8.01
   4   0  14  103.19   10.28
  -5   0 -14   53.51    4.72
   5   0  14   70.49    6.81
   5   0  14   56.30    5.97
  -6   0 -14    5.80    1.10
   6   0  14    7.48    2.14
   6   0  14    9.77    1.98
  -7   0 -14  122.49    9.79
   7   0  14  143.00   11.24
  -8   0 -14   25.76    2.52
   8   0  14   28.33    3.61
   8   0  14   22.27    3.33
  -9   0 -14    9.80    1.41
   9   0  14    8.93    2.28
   9   0  14    6.75    1.95
 -10   0 -14  129.77   10.44
  10   0  14  145.81   12.44
  10   0  14  142.82   11.34
 -11   0 -14   -0.35    0.48
  11   0  14    0.31    1.34
  11   0  14   -0.70    1.16
   4  -1 -14  116.17    8.48
  -4   1  14  105.02   10.34
   3  -1 -14    1.04    0.66
  -3   1  14    0.61    1.44
   2  -1 -14   76.79    5.93
  -2   1  14   75.46    7.70
   1  -1 -14  112.58    8.75
  -1   1  14  124.10   10.72
   0  -1 -14    0.59    0.59
   0   1  14    0.12    1.22
  -1  -1 -14  100.52    7.64
   1   1  14  102.28    9.38
  -2  -1 -14   91.18    6.92
   2   1  14   81.75    8.17
   3   1  14    7.87    2.18
  -4  -1 -14  180.74   13.07
   4   1  14  175.26   14.47
  -5  -1 -14   33.59    3.30
   5   1  14   44.83    4.00
   5   1  14   35.55    4.48
   6   1  14   48.80    4.69
   6   1  14   41.47    4.91
  -7  -1 -14   92.89    7.44
   7   1  14   94.28    8.59
   7   1  14  104.74    8.80
  -8  -1 -14    2.94    0.87
   8   1  14    3.37    1.40
   8   1  14    4.41    1.73
  -9  -1 -14  110.35    8.60
   9   1  14  110.59    9.48
   9   1  14  117.70   10.17
 -10  -1 -14   97.84    7.78
  10   1  14  104.68    8.65
  10   1  14   98.76    9.51
 -11  -1 -14    0.30    0.69
  11   1  14   -1.49    1.05
  11   1  14    1.82    1.50
 -12  -1 -14   74.60    6.17
  12   1  14   77.66    8.23
   4  -2 -14   77.44    6.13
  -4   2  14   79.87    8.06
   3  -2 -14    0.06    0.56
  -3   2  14   -0.28    1.23
   2  -2 -14   95.76    7.41
  -2   2  14  100.15    9.23
   1  -2 -14   33.63    2.88
  -1   2  14   29.97    4.12
   0  -2 -14   13.51    1.68
   0   2  14   20.71    3.14
   1   2  14  106.24   10.44
  -2  -2 -14  127.08    9.41
   2   2  14  125.95   10.94
  -3  -2 -14   41.14    3.40
   3   2  14   38.15    4.56
  -4  -2 -14  194.90   14.45
  -4  -2 -14  201.20   15.82
   4   2  14  200.18   15.89
  -5  -2 -14    7.29    1.21
   5   2  14   10.79    2.40
   5   2  14   10.74    1.81
  -6  -2 -14   91.15    7.87
   6   2  14  119.75    9.00
   6   2  14  101.25    9.10
   7   2  14  119.25    9.56
   7   2  14   98.85    9.27
  -8  -2 -14    0.20    0.59
   8   2  14    0.16    1.04
   8   2  14    1.19    1.10
  -9  -2 -14  154.31   11.86
   9   2  14  148.93   12.65
   9   2  14  175.31   13.60
 -10  -2 -14   55.18    5.04
  10   2  14   64.13    5.84
  10   2  14   68.83    6.95
 -11  -2 -14   13.23    1.79
  11   2  14   11.62    2.93
  11   2  14    8.28    2.07
 -12  -2 -14  175.74   13.90
  12   2  14  200.67   16.40
  -5   3  14   62.05    6.75
   4  -3 -14   47.68    4.22
  -4   3  14   58.46    6.22
   3  -3 -14   15.15    1.78
  -3   3  14   17.90    3.51
   2  -3 -14   84.49    6.81
  -2   3  14   97.60    8.67
   1  -3 -14   17.97    1.84
  -1   3  14   19.89    3.17
   0  -3 -14   38.72    3.24
   0   3  14   37.96    4.73
  -1  -3 -14  175.71   12.66
   1   3  14  170.40   14.26
  -2  -3 -14   18.37    1.89
   2   3  14   21.55    3.25
  -3  -3 -14   85.26    6.80
   3   3  14   95.63    8.34
  -4  -3 -14  211.04   15.74
   4   3  14  224.22   17.18
  -5  -3 -14    1.95    0.73
  -5  -3 -14    2.20    1.49
   5   3  14    4.70    1.51
   5   3  14    2.03    1.00
  -6  -3 -14   24.68    2.48
   6   3  14   27.34    3.50
  -7  -3 -14   67.44    6.23
   7   3  14   88.31    7.33
   7   3  14   73.95    7.05
  -8  -3 -14   46.05    4.18
   8   3  14   54.72    5.51
   8   3  14   51.15    5.16
  -9  -3 -14  131.93   11.01
   9   3  14  157.15   12.73
   9   3  14  156.15   12.03
 -10  -3 -14   40.89    3.81
  10   3  14   41.13    4.47
  10   3  14   47.73    5.43
 -11  -3 -14   43.81    4.26
  11   3  14   53.94    5.03
  11   3  14   51.24    6.01
 -12  -3 -14  174.52   13.45
  12   3  14  192.69   15.87
  12   3  14  175.98   13.92
   5  -4 -14   96.17    7.69
  -5   4  14  109.42    9.62
   4  -4 -14   30.55    2.77
  -4   4  14   30.75    4.29
   3  -4 -14   30.31    2.74
  -3   4  14   31.25    4.28
   2  -4 -14   50.99    4.22
  -2   4  14   54.38    5.84
   1  -4 -14    1.10    0.52
  -1   4  14    1.05    1.30
   0   4  14  129.75   12.00
  -1  -4 -14  255.12   19.10
   1   4  14  279.26   20.77
  -2  -4 -14    3.94    0.87
   2   4  14    2.35    1.29
  -3  -4 -14   91.20    6.93
   3   4  14   90.17    8.15
  -4  -4 -14   37.48    3.20
   4   4  14   37.14    4.35
  -5  -4 -14   64.72    5.52
   5   4  14   79.06    6.36
   5   4  14   66.66    6.64
  -6  -4 -14  233.37   17.43
   6   4  14  263.89   18.58
   6   4  14  222.21   18.45
  -7  -4 -14  132.79   10.57
   7   4  14  160.25   12.01
   7   4  14  133.06   11.56
   8   4  14   52.64    5.59
   8   4  14   50.92    5.18
  -9  -4 -14  144.03   11.63
   9   4  14  161.39   13.26
   9   4  14  163.87   12.55
 -10  -4 -14   10.56    1.57
  10   4  14    9.68    2.57
  10   4  14   12.39    2.34
 -11  -4 -14  153.59   12.34
  11   4  14  174.36   14.51
  11   4  14  168.82   12.99
 -12  -4 -14   43.86    3.87
  12   4  14   42.33    5.69
   5  -5 -14  100.43    7.73
  -5   5  14  104.36    9.46
   4  -5 -14   14.29    1.64
  -4   5  14   13.41    3.02
   3  -5 -14   30.29    2.81
  -3   5  14   34.86    4.20
   2  -5 -14   27.16    2.50
  -2   5  14   29.05    3.90
   1  -5 -14    0.30    0.52
  -1   5  14   -0.22    0.81
   0  -5 -14  111.64    8.03
   0   5  14  101.36    9.49
  -1  -5 -14  119.94    8.95
   1   5  14  121.62   10.31
  -2  -5 -14    5.38    1.32
  -2  -5 -14    7.75    1.10
   2   5  14    6.89    1.95
  -3  -5 -14  118.06    8.69
  -3  -5 -14  116.02    9.71
   3   5  14  113.71    9.90
  -4  -5 -14   54.05    4.40
  -4  -5 -14   63.22    5.90
   4   5  14   45.48    5.21
  -5  -5 -14   12.19    2.77
  -5  -5 -14    8.60    1.29
   5   5  14    7.49    2.13
   5   5  14    9.79    1.88
  -6  -5 -14  109.30    8.21
   6   5  14  103.41    9.18
   6   5  14  110.62    9.86
  -7  -5 -14   12.17    2.82
  -7  -5 -14    8.57    1.39
   7   5  14    8.05    2.10
   7   5  14    8.46    2.10
   8   5  14   87.19    7.68
   8   5  14   86.31    8.08
  -9  -5 -14  113.73    8.88
   9   5  14  116.29    9.67
   9   5  14  119.22   10.50
 -10  -5 -14   10.10    1.58
  10   5  14    9.77    2.58
  10   5  14   10.44    2.03
 -11  -5 -14  173.15   13.40
  11   5  14  180.43   14.06
  11   5  14  187.71   15.52
 -12  -5 -14   60.58    5.12
  12   5  14   68.17    7.27
  12   5  14   54.90    5.55
   5  -6 -14   71.42    5.80
  -5   6  14   79.57    7.43
   4  -6 -14   15.66    1.78
  -4   6  14   20.60    3.25
   3  -6 -14   52.11    4.27
  -3   6  14   55.00    5.72
   2  -6 -14   21.28    2.14
  -2   6  14   26.49    3.53
   1  -6 -14   10.36    1.51
  -1   6  14    9.85    2.77
   0  -6 -14  170.85   12.32
   0   6  14  167.64   13.68
  -1  -6 -14    1.38    0.85
  -1  -6 -14    2.02    0.65
   1   6  14    4.54    1.62
  -2  -6 -14  120.48   10.82
  -2  -6 -14  143.49    9.96
   2   6  14  142.91   11.30
  -3  -6 -14  197.52   14.91
  -3  -6 -14  220.42   16.45
   3   6  14  199.87   16.13
  -4  -6 -14    5.04    1.96
  -4  -6 -14    5.53    1.03
   4   6  14    4.89    1.64
  -5  -6 -14  146.18   11.44
  -5  -6 -14  122.78    9.38
   5   6  14  117.66   10.19
   5   6  14  118.93   10.43
  -6  -6 -14  134.71   10.51
  -6  -6 -14  161.83   12.59
   6   6  14  133.65   11.53
   6   6  14  137.54   11.51
  -7  -6 -14    0.35    1.48
  -7  -6 -14    1.49    0.77
   7   6  14    0.54    1.05
   7   6  14    1.07    1.09
  -8  -6 -14  219.51   16.71
  -8  -6 -14  184.52   14.58
   8   6  14  189.48   15.21
   8   6  14  188.02   15.76
  -9  -6 -14  110.97    9.04
   9   6  14  121.53    9.91
   9   6  14  125.24   10.78
 -10  -6 -14   34.10    3.30
  10   6  14   35.29    4.03
  10   6  14   38.03    5.47
 -11  -6 -14  127.30   10.12
  11   6  14  129.21   10.74
  11   6  14  144.61   12.32
 -12  -6 -14   78.29    6.71
  12   6  14   89.63    7.40
  12   6  14   84.14    8.84
   5  -7 -14   74.58    6.03
  -5   7  14   83.54    7.60
   4  -7 -14   25.31    2.42
  -4   7  14   29.44    3.82
   3  -7 -14   74.98    5.93
  -3   7  14   81.35    7.43
   2  -7 -14   28.02    2.49
  -2   7  14   27.66    3.66
  -1   7  14   53.68    5.59
   0  -7 -14  126.15    9.14
   0   7  14  120.91   10.52
  -1  -7 -14   22.60    1.98
  -1  -7 -14   16.80    2.76
   1   7  14   22.73    3.11
  -2  -7 -14  119.91    8.85
  -2  -7 -14  120.05   10.32
   2   7  14  118.52   10.06
  -3  -7 -14  151.48   12.90
  -3  -7 -14  155.43   11.22
   3   7  14  152.35   12.39
  -4  -7 -14    2.28    0.66
  -4  -7 -14    2.07    1.73
   4   7  14    2.32    1.29
  -5  -7 -14  186.76   14.78
  -5  -7 -14  166.96   12.61
   5   7  14  163.59   13.62
  -6  -7 -14  123.42   10.21
  -6  -7 -14  104.48    7.94
   6   7  14   96.79    8.81
   6   7  14   95.79    8.97
  -7  -7 -14   41.19    3.52
  -7  -7 -14   44.78    5.39
   7   7  14   36.93    4.62
   7   7  14   40.99    4.42
  -8  -7 -14  157.58   12.31
  -8  -7 -14  194.90   14.81
   8   7  14  159.11   13.18
   8   7  14  155.72   13.73
  -9  -7 -14  121.90   10.69
  -9  -7 -14   94.22    8.01
   9   7  14  104.37    8.90
   9   7  14  102.20    9.66
 -10  -7 -14   32.32    5.18
 -10  -7 -14   32.58    3.04
  10   7  14   30.76    4.47
  10   7  14   30.34    3.67
 -11  -7 -14   50.54    4.66
  11   7  14   64.62    6.84
  11   7  14   53.04    5.38
 -12  -7 -14    0.49    0.73
  12   7  14    0.65    1.73
  12   7  14   -1.30    0.90
   5  -8 -14   24.03    2.37
  -5   8  14   29.14    3.73
   4  -8 -14   37.04    3.17
  -4   8  14   38.87    4.46
   3  -8 -14   50.10    4.13
  -3   8  14   54.70    5.39
   2  -8 -14   11.91    1.35
  -2   8  14   10.30    2.21
   1  -8 -14  133.41   10.10
  -1   8  14  143.01   11.42
   0  -8 -14   39.62    4.72
   0  -8 -14   52.74    3.74
  -1  -8 -14    1.24    1.32
  -1  -8 -14    0.78    0.47
   1   8  14    0.86    0.92
  -2  -8 -14  129.52    9.38
  -2  -8 -14  118.83   11.04
   2   8  14  134.10   10.61
  -3  -8 -14   93.92    9.13
  -3  -8 -14   96.54    7.19
   3   8  14   96.37    8.30
  -4  -8 -14   11.37    2.85
  -4  -8 -14    9.37    1.34
   4   8  14   15.36    2.41
  -5  -8 -14  133.71   11.73
  -5  -8 -14  127.41    9.44
   5   8  14  119.80   10.43
  -6  -8 -14   17.72    3.68
  -6  -8 -14   19.75    1.95
   6   8  14   18.73    2.87
  -7  -8 -14  101.59    9.82
  -7  -8 -14  100.09    7.76
   7   8  14  100.23    9.19
   7   8  14  104.82    8.84
  -8  -8 -14  130.81   11.64
  -8  -8 -14  114.31    9.52
   8   8  14  130.94   10.42
   8   8  14  120.22   10.94
  -9  -8 -14    7.40    1.33
  -9  -8 -14    8.25    2.73
   9   8  14    9.09    2.05
   9   8  14    8.23    2.54
 -10  -8 -14   53.06    4.94
 -10  -8 -14   68.16    7.61
  10   8  14   65.46    6.97
  10   8  14   59.14    5.78
 -11  -8 -14  167.67   13.17
 -11  -8 -14  215.36   16.91
  11   8  14  158.22   14.00
  11   8  14  179.79   15.49
 -12  -8 -14    0.56    0.76
 -12  -8 -14    1.01    2.41
  12   8  14    1.44    1.77
   5  -9 -14   12.25    1.46
  -5   9  14   14.07    2.72
   4  -9 -14   58.30    4.70
  -4   9  14   62.21    5.97
   3  -9 -14  100.39    8.13
  -3   9  14  123.59    9.66
   2  -9 -14    8.63    1.12
  -2   9  14    8.35    2.05
   1  -9 -14   51.22    4.03
  -1   9  14   50.98    5.11
   0  -9 -14   44.65    5.71
   0  -9 -14   56.98    4.24
   0   9  14   61.00    5.51
  -1  -9 -14   24.07    3.94
  -1  -9 -14   28.27    2.41
   1   9  14   32.91    3.98
  -2  -9 -14  204.69   14.52
   2   9  14  197.44   16.38
  -3  -9 -14   30.56    2.51
  -3  -9 -14   24.03    4.34
   3   9  14   29.10    3.42
  -4  -9 -14   69.72    7.74
  -4  -9 -14   68.49    5.45
   4   9  14   74.83    6.68
  -5  -9 -14  157.63   14.35
  -5  -9 -14  172.12   12.11
   5   9  14  164.94   13.25
  -6  -9 -14   -0.87    0.44
  -6  -9 -14   -0.50    1.47
   6   9  14    0.82    1.13
  -7  -9 -14   89.73    9.06
  -7  -9 -14   91.47    6.87
   7   9  14   84.39    7.99
   7   9  14   89.99    8.46
  -8  -9 -14   94.83    9.09
  -8  -9 -14   80.21    6.64
   8   9  14   82.77    8.26
  -9  -9 -14   10.19    3.08
  -9  -9 -14    8.79    1.40
   9   9  14   10.86    2.91
   9   9  14    9.27    3.26
 -10  -9 -14  102.10   10.35
 -10  -9 -14   94.12    7.66
  10   9  14  105.50    8.72
  10   9  14   98.25    9.70
 -11  -9 -14   44.12    4.17
 -11  -9 -14   62.45    7.40
  11   9  14   47.24    6.19
  11   9  14   50.17    5.08
   4 -10 -14   17.27    1.80
  -4  10  14   21.22    3.00
   3 -10 -14   38.12    3.36
  -3  10  14   48.03    4.75
   2 -10 -14   24.03    2.14
   2 -10 -14   19.11    4.04
  -2  10  14   28.62    3.37
   1 -10 -14   53.36    4.21
  -1  10  14   55.19    5.33
   0 -10 -14    5.92    0.91
   0 -10 -14    6.13    2.35
   0  10  14    9.09    1.95
  -1 -10 -14   44.57    5.99
  -1 -10 -14   52.58    4.03
   1  10  14   57.23    5.22
  -2 -10 -14  106.49   10.67
  -2 -10 -14  112.24    8.32
   2  10  14  120.83    9.58
  -3 -10 -14    3.29    1.97
  -3 -10 -14    1.94    0.61
   3  10  14    2.12    1.09
  -4 -10 -14  138.41   10.77
  -4 -10 -14  153.24   13.50
   4  10  14  154.70   12.07
  -5 -10 -14  118.45    9.00
  -5 -10 -14  115.62   11.43
   5  10  14  132.04   10.36
  -6 -10 -14    3.28    0.79
  -6 -10 -14    5.28    2.59
   6  10  14    4.88    1.68
  -7 -10 -14  196.53   17.23
  -7 -10 -14  203.41   14.74
   7  10  14  208.09   15.98
  -8 -10 -14   29.31    2.87
  -8 -10 -14   26.19    4.50
   8  10  14   27.61    3.60
   8  10  14   28.76    4.22
  -9 -10 -14   30.97    5.13
  -9 -10 -14   34.41    3.17
   9  10  14   38.16    5.07
   9  10  14   39.44    4.29
 -10 -10 -14  237.10   20.47
 -10 -10 -14  231.87   17.53
  10  10  14  240.83   18.68
  10  10  14  257.72   20.17
 -11 -10 -14   55.97    7.21
 -11 -10 -14   48.52    4.26
  11  10  14   49.54    5.23
  -4  11  14  172.80   13.88
   3 -11 -14   14.52    1.55
   3 -11 -14    9.80    3.31
  -3  11  14   16.87    2.67
   2 -11 -14   22.98    2.00
  -2  11  14   20.44    3.02
   1 -11 -14  110.08   10.92
   1 -11 -14  110.02    8.37
  -1  11  14  123.12    9.69
   0 -11 -14    5.77    2.49
   0 -11 -14    3.73    0.73
   0  11  14    4.42    1.54
  -1 -11 -14  103.77   10.48
  -1 -11 -14  103.89    7.78
   1  11  14  110.23    9.03
  -2 -11 -14   66.81    5.35
  -2 -11 -14   65.87    7.94
   2  11  14   82.42    6.78
  -3 -11 -14    4.56    0.80
  -3 -11 -14    4.05    2.14
   3  11  14    6.35    1.72
  -4 -11 -14  145.92   13.68
  -4 -11 -14  145.01   10.83
   4  11  14  157.48   12.20
  -5 -11 -14  140.12   13.15
  -5 -11 -14  132.47   10.29
   5  11  14  153.86   11.78
  -6 -11 -14    3.33    0.80
  -6 -11 -14    5.59    2.44
   6  11  14    3.28    1.40
  -7 -11 -14  142.57   10.56
  -7 -11 -14  139.83   13.22
   7  11  14  148.69   11.96
  -8 -11 -14   30.75    5.12
   8  11  14   41.73    5.74
  -9 -11 -14   46.13    4.03
  -9 -11 -14   48.25    6.55
   9  11  14   53.98    5.38
 -10 -11 -14   58.38    7.36
 -10 -11 -14   51.75    4.64
  10  11  14   57.66    5.83
  10  11  14   63.43    7.13
   3 -12 -14   -0.94    1.80
   3 -12 -14    1.48    0.51
  -3  12  14    3.66    1.51
   2 -12 -14   77.09    5.98
  -2  12  14   83.37    7.29
   1 -12 -14   72.04    8.55
   1 -12 -14   78.58    5.96
  -1  12  14   87.98    7.33
   0 -12 -14    0.67    0.45
   0 -12 -14   -0.14    1.53
   0  12  14    0.88    1.10
  -1 -12 -14   37.71    5.87
  -1 -12 -14   48.56    3.62
   1  12  14   49.56    4.90
  -2 -12 -14   13.74    3.60
  -2 -12 -14   15.09    1.47
   2  12  14   15.73    2.58
  -3 -12 -14   17.54    4.11
  -3 -12 -14   19.15    1.80
   3  12  14   25.18    3.15
  -4 -12 -14   93.48   10.23
  -4 -12 -14   90.35    7.26
   4  12  14  117.76    8.94
  -5 -12 -14   23.09    4.44
  -5 -12 -14   20.83    2.02
   5  12  14   28.53    3.35
  -6 -12 -14   72.97    5.93
  -6 -12 -14   75.00    8.66
   6  12  14   93.44    7.63
  -7 -12 -14   86.05    6.99
  -7 -12 -14   88.44    9.78
   7  12  14  111.53    8.71
  -8 -12 -14    0.63    1.71
   8  12  14    0.43    0.89
  -9 -12 -14   68.07    5.63
  -9 -12 -14   74.35    8.56
   9  12  14   80.44    7.17
   2 -13 -14   55.37    8.54
   2 -13 -14   58.77    4.58
  -2  13  14   64.44    5.93
   1 -13 -14   23.96    2.12
   1 -13 -14   20.15    4.96
  -1  13  14   30.74    3.50
   0 -13 -14   33.56    2.70
   0 -13 -14   32.73    5.45
   0  13  14   33.54    3.81
  -1 -13 -14   94.87    7.54
   1  13  14  116.64    9.08
  -2 -13 -14    7.71    1.00
  -2 -13 -14   11.89    3.69
   2  13  14   11.34    2.26
  -3 -13 -14    8.23    2.95
  -3 -13 -14    5.05    0.78
   3  13  14    7.02    1.86
  -4 -13 -14   88.17    9.99
  -4 -13 -14   86.57    6.82
   4  13  14  108.69    8.56
  -5 -13 -14    1.38    0.48
  -5 -13 -14    3.53    2.27
   5  13  14    3.41    1.60
  -6 -13 -14   66.82    7.91
  -6 -13 -14   54.47    4.67
   6  13  14   72.51    6.43
  -7 -13 -14   82.14    6.40
  -7 -13 -14   93.59    9.75
   0 -14 -14   33.97    2.75
   0 -14 -14   30.18    5.61
   0  14  14   40.29    4.21
  -1 -14 -14   36.10    5.94
  -1 -14 -14   33.92    2.89
   1  14  14   46.74    4.49
  -2 -14 -14   -0.83    1.74
  -2 -14 -14   -0.59    0.26
   2  14  14   -0.37    0.70
  -3 -14 -14   52.92    7.33
   3  14  14   57.26    5.69
  -4 -14 -14   51.85    7.30
   4  14  14   64.03    6.07
  -5 -14 -14    6.70    3.20
  -5 -14 -14    9.58    1.11
   5  14  14   13.06    2.53
   2  -2  15  132.59   12.05
  -3   2 -15   46.22    3.96
   3  -2  15   52.11    5.87
  -4   2 -15   16.27    1.79
   4  -2  15   17.27    3.50
  -5   2 -15   88.60    7.18
   5  -2  15  104.66    9.33
  -6   2 -15    5.29    1.03
   6  -2  15    7.17    2.17
  -7   2 -15   61.03    5.19
   7  -2  15   71.89    6.89
   0  -1  15   14.45    3.50
  -1   1 -15   31.22    2.85
   1  -1  15   33.97    4.84
  -2   1 -15   68.12    5.71
   2  -1  15   84.72    8.02
  -3   1 -15   19.12    1.96
   3  -1  15   19.61    3.82
  -4   1 -15   43.67    3.80
   4  -1  15   50.47    5.64
  -5   1 -15   80.86    6.51
   5  -1  15   91.42    8.40
  -6   1 -15    0.36    0.55
   6  -1  15    1.64    1.56
  -7   1 -15   47.42    4.26
   7  -1  15   59.18    5.90
  -8   1 -15   30.64    2.95
   8  -1  15   33.14    4.17
   8  -1  15   33.13    4.17
  -9   1 -15    6.67    1.21
   9  -1  15    5.50    1.86
   9  -1  15    7.47    2.30
   1   0 -15   56.51    4.72
  -1   0  15   63.41    6.90
   0   0 -15    0.39    0.58
   0   0  15   -0.68    1.41
  -1   0 -15   32.79    2.94
   1   0  15   33.43    4.49
  -2   0 -15   91.85    7.17
   2   0  15   97.27    9.16
  -3   0 -15    2.08    0.73
   3   0  15    1.17    1.31
  -4   0 -15   72.90    6.01
   4   0  15   84.78    7.90
  -5   0 -15   85.74    6.83
   5   0  15   93.41    8.46
  -6   0 -15   16.66    1.99
   6   0  15   24.72    3.61
  -7   0 -15  137.71   10.43
   7   0  15  142.64   11.92
  -8   0 -15   60.82    5.19
   8   0  15   67.65    6.52
   8   0  15   66.25    6.63
  -9   0 -15   14.30    1.81
   9   0  15   18.77    3.11
 -10   0 -15   55.49    4.72
  10   0  15   56.20    5.72
   2  -1 -15   59.01    4.82
  -2   1  15   59.41    6.80
   1  -1 -15   48.81    4.18
  -1   1  15   53.31    6.18
   0  -1 -15   11.42    1.56
   0   1  15   11.29    3.02
  -1  -1 -15   45.29    3.89
   1   1  15   49.89    5.74
  -2  -1 -15   77.99    6.30
   2   1  15   88.13    8.20
  -3  -1 -15    0.37    0.62
   3   1  15    1.33    1.50
  -4  -1 -15   93.63    7.24
   4   1  15   95.94    8.89
  -5  -1 -15   42.30    3.68
   5   1  15   46.78    5.26
  -6  -1 -15   50.88    4.19
   6   1  15   48.66    5.47
  -7  -1 -15  136.66   11.21
   7   1  15  166.01   12.64
  -8  -1 -15    9.10    1.38
   8   1  15    9.85    2.69
   8   1  15    8.73    2.14
  -9  -1 -15   23.79    2.48
   9   1  15   25.87    3.75
   9   1  15   26.58    3.49
 -10  -1 -15  104.78    8.13
  10   1  15  103.04    9.74
  10   1  15  105.60    9.02
 -11  -1 -15    1.44    0.85
  11   1  15    1.09    1.29
  11   1  15    1.95    1.50
   2  -2 -15   76.72    6.16
  -2   2  15   82.02    8.10
   1  -2 -15   17.09    1.83
  -1   2  15   12.78    3.08
   0  -2 -15   21.62    2.16
   0   2  15   20.32    3.40
  -1  -2 -15  134.23   10.38
   1   2  15  148.86   12.43
  -2  -2 -15   21.37    2.14
   2   2  15   20.13    3.34
  -3  -2 -15   40.30    3.53
   3   2  15   42.94    5.10
  -4  -2 -15  143.24   10.70
   4   2  15  145.24   12.30
  -5  -2 -15   15.75    1.83
   5   2  15   17.23    3.70
  -6  -2 -15  112.80    9.38
   6   2  15  136.72   10.40
  -7  -2 -15  106.29    9.21
   7   2  15  143.78   10.61
   7   2  15  116.99   10.46
  -8  -2 -15    4.73    1.13
   8   2  15    3.97    1.56
   8   2  15    6.34    1.95
  -9  -2 -15   95.48    7.76
   9   2  15  102.28    9.21
   9   2  15  102.24    8.78
 -10  -2 -15   63.05    5.31
  10   2  15   65.26    6.91
 -11  -2 -15    2.06    0.89
  11   2  15    3.04    1.64
  11   2  15    2.66    1.51
   3  -3 -15   -0.13    0.56
  -3   3  15   -1.82    1.04
   2  -3 -15   88.75    7.03
  -2   3  15   95.54    8.96
   1  -3 -15   10.51    1.42
  -1   3  15   10.58    2.64
   0  -3 -15   57.03    4.67
   0   3  15   58.76    6.28
  -1  -3 -15  154.60   11.81
   1   3  15  168.80   13.74
  -2  -3 -15   79.23    6.08
   2   3  15   75.71    7.53
  -3  -3 -15   38.09    3.27
   3   3  15   37.46    4.70
  -4  -3 -15   97.60    7.50
   4   3  15   98.85    9.69
  -5  -3 -15    4.63    0.97
  -5  -3 -15    5.28    1.82
   5   3  15    4.09    1.14
  -6  -3 -15   97.81    7.72
   6   3  15  105.14    9.12
  -7  -3 -15   57.51    5.11
   7   3  15   71.18    6.34
   7   3  15   59.99    6.21
  -8  -3 -15    0.34    0.75
   8   3  15    2.65    1.43
   8   3  15   -0.04    1.07
  -9  -3 -15   95.05    7.79
   9   3  15  105.31    8.81
   9   3  15  101.07    9.23
 -10  -3 -15   52.79    4.89
  10   3  15   59.07    6.47
  10   3  15   64.15    5.86
 -11  -3 -15    8.63    1.61
  11   3  15   12.44    2.93
  11   3  15   11.02    2.11
   3  -4 -15   39.65    3.68
  -3   4  15   52.68    5.76
   2  -4 -15   50.68    4.31
  -2   4  15   56.53    6.06
   1  -4 -15    6.91    1.15
  -1   4  15    9.60    2.39
   0  -4 -15   75.37    5.96
   0   4  15   79.89    7.78
  -1  -4 -15   45.49    3.88
   1   4  15   49.41    5.50
  -2  -4 -15   19.38    2.01
   2   4  15   19.12    3.25
  -3  -4 -15  114.44    8.20
   3   4  15  100.37    9.49
  -4  -4 -15  109.33    9.44
  -4  -4 -15   98.90    7.89
  -5  -4 -15   10.47    1.49
  -5  -4 -15   10.99    2.66
   5   4  15   12.94    2.03
   5   4  15   11.69    2.68
  -6  -4 -15   54.02    5.66
  -6  -4 -15   34.43    3.62
   6   4  15   39.41    4.72
   6   4  15   46.02    4.61
  -7  -4 -15   19.74    2.32
   7   4  15   22.00    3.13
   7   4  15   25.76    3.37
  -8  -4 -15  107.38    8.56
   8   4  15  109.72    9.60
   8   4  15  118.94   10.04
  -9  -4 -15  144.94   11.23
   9   4  15  155.42   12.82
   9   4  15  147.70   12.15
 -10  -4 -15   24.57    2.56
  10   4  15   24.49    3.20
  10   4  15   21.08    3.64
 -11  -4 -15   38.71    3.75
  11   4  15   43.68    4.55
  11   4  15   40.08    5.22
  -4   5  15    7.55    2.39
   3  -5 -15   72.77    6.05
  -3   5  15   86.92    8.06
   2  -5 -15   88.81    7.09
  -2   5  15  100.07    8.96
  -1   5  15   -0.68    1.15
   0  -5 -15  126.66    9.89
   0   5  15  143.38   11.73
  -1  -5 -15   70.81    5.76
   1   5  15   80.21    7.36
  -2  -5 -15   22.75    2.21
   2   5  15   22.08    3.40
  -3  -5 -15  216.35   14.43
   3   5  15  172.22   16.26
  -4  -5 -15   60.58    5.44
   4   5  15   71.88    7.38
  -5  -5 -15   46.82    5.21
  -5  -5 -15   35.68    3.40
   5   5  15   38.09    4.47
  -6  -5 -15   91.31    6.88
   6   5  15   83.79    7.96
  -7  -5 -15   41.06    3.57
   7   5  15   42.97    4.64
   7   5  15   36.55    4.48
  -8  -5 -15   38.27    3.79
  -8  -5 -15   49.75    5.87
   8   5  15   42.46    4.73
   8   5  15   45.24    5.12
  -9  -5 -15   54.30    4.89
   9   5  15   59.36    5.77
   9   5  15   62.44    6.37
 -10  -5 -15   -0.04    0.76
  10   5  15    2.78    1.50
 -11  -5 -15  123.42   10.08
  11   5  15  146.74   12.28
  11   5  15  127.78   10.76
  12   5  15   24.47    4.24
  12   5  15   20.15    3.14
   4  -6 -15    0.77    0.48
  -4   6  15    1.64    1.34
   3  -6 -15   36.54    3.21
  -3   6  15   38.25    4.75
   2  -6 -15   20.21    2.07
  -2   6  15   22.98    3.56
   1  -6 -15   41.54    3.64
  -1   6  15   48.60    5.28
   0  -6 -15  174.02   12.90
   0   6  15  180.90   14.51
  -1  -6 -15   46.80    3.84
   1   6  15   47.38    5.24
  -2  -6 -15   25.28    2.46
   2   6  15   28.35    3.74
   3   6  15  110.54   10.32
  -4  -6 -15    8.05    2.30
  -5  -6 -15  110.72    9.62
   5   6  15   89.07    8.71
  -6  -6 -15  128.69   10.07
   6   6  15  130.03   11.10
   6   6  15  146.05   11.38
  -7  -6 -15   -1.33    0.38
  -7  -6 -15   -1.39    1.35
   7   6  15    0.51    1.10
   7   6  15   -0.02    1.04
  -8  -6 -15   99.99    8.21
   8   6  15  108.21    9.67
   8   6  15  112.47    9.31
  -9  -6 -15   83.95    6.83
   9   6  15   87.87    8.41
   9   6  15   86.81    7.74
 -10  -6 -15    1.78    0.73
  10   6  15    0.69    1.14
  10   6  15    3.03    1.63
 -11  -6 -15  115.93    9.27
  11   6  15  124.55   10.06
  11   6  15  120.55   11.24
   4  -7 -15   11.08    1.51
  -4   7  15   14.26    2.97
   3  -7 -15  106.03    8.08
  -3   7  15  109.73    9.76
   2  -7 -15   29.96    2.65
  -2   7  15   28.24    3.81
   1  -7 -15   60.52    5.04
  -1   7  15   72.15    6.69
   0  -7 -15  122.60    9.57
   0   7  15  139.24   11.21
  -1  -7 -15   14.64    1.61
   1   7  15   13.64    2.70
   2   7  15   86.18    7.85
  -3  -7 -15   96.79    7.49
  -3  -7 -15   92.56    8.75
   3   7  15   96.65    8.61
  -4  -7 -15   -1.80    1.26
  -4  -7 -15   -0.15    0.54
   4   7  15   -0.01    0.80
  -5  -7 -15  131.54   10.75
  -5  -7 -15  151.65   12.75
  -6  -7 -15   84.95    8.11
  -6  -7 -15   68.11    6.08
   6   7  15   68.35    7.44
   6   7  15   71.03    6.86
  -7  -7 -15   -0.45    0.64
  -7  -7 -15    1.98    1.88
   7   7  15    0.71    1.26
   7   7  15    2.42    1.36
  -8  -7 -15   74.88    6.52
  -8  -7 -15   92.43    8.92
   8   7  15   79.30    8.19
   8   7  15   88.19    8.16
  -9  -7 -15   35.00    5.28
  -9  -7 -15   26.50    2.76
   9   7  15   28.74    4.28
 -10  -7 -15   38.47    3.75
  10   7  15   45.51    5.45
 -11  -7 -15   54.41    7.08
 -11  -7 -15   45.49    4.25
  11   7  15   48.97    6.91
  11   7  15   47.57    6.04
  -4   8  15   10.03    2.40
   3  -8 -15   83.63    6.68
  -3   8  15   94.85    8.35
   2  -8 -15    0.15    0.50
  -2   8  15   -0.10    1.08
   1  -8 -15   86.17    6.45
  -1   8  15   82.87    7.76
   0  -8 -15  178.21   13.82
   0   8  15  207.01   15.42
  -1  -8 -15    1.58    1.31
  -1  -8 -15    2.12    0.65
   1   8  15    2.16    1.38
  -2  -8 -15   51.99    6.13
   2   8  15   71.85    6.25
  -3  -8 -15  110.70    8.60
   3   8  15  119.93    9.93
  -4  -8 -15    5.14    1.02
  -4  -8 -15    4.78    2.34
   4   8  15    4.97    1.75
  -5  -8 -15  116.98   11.19
  -5  -8 -15  124.88    9.28
   5   8  15  116.58   10.12
  -6  -8 -15   35.67    4.98
   6   8  15   30.66    3.96
  -7  -8 -15   35.99    5.15
  -7  -8 -15   27.30    2.86
   7   8  15   32.52    3.99
   7   8  15   30.50    4.17
  -8  -8 -15   87.26    7.76
  -8  -8 -15  113.54   10.25
   8   8  15   99.17    8.71
   8   8  15   96.93    9.21
  -9  -8 -15   -1.09    1.47
  -9  -8 -15   -0.15    0.63
   9   8  15   -0.30    1.08
   9   8  15    0.17    1.27
 -10  -8 -15   75.10    6.68
 -10  -8 -15   98.21    9.68
  10   8  15   91.09    8.77
  10   8  15   79.58    7.56
 -11  -8 -15  113.78    9.10
 -11  -8 -15  126.99   12.34
  11   8  15  114.55   11.17
  11   8  15  121.96   10.01
   3  -9 -15   28.44    2.67
  -3   9  15   34.46    4.14
   2  -9 -15    2.36    0.64
  -2   9  15    1.94    1.20
   1  -9 -15  122.43    9.22
  -1   9  15  128.40   10.66
   0  -9 -15   46.66    4.01
   0   9  15   56.87    5.37
  -1  -9 -15   10.08    1.25
  -1  -9 -15    6.08    2.16
   1   9  15   10.49    2.33
  -2  -9 -15  139.82   13.97
   2   9  15  169.72   12.78
  -3  -9 -15   57.07    4.46
  -3  -9 -15   51.97    6.45
   3   9  15   58.10    5.69
  -4  -9 -15   17.65    1.92
  -4  -9 -15   19.12    3.95
   4   9  15   22.46    3.17
  -5  -9 -15   79.77    6.78
  -5  -9 -15   83.12    8.84
   5   9  15   96.60    8.03
  -6  -9 -15   46.15    5.99
   6   9  15   47.62    5.10
  -7  -9 -15   49.09    4.44
  -7  -9 -15   54.13    6.80
   7   9  15   59.93    5.65
  -8  -9 -15   80.21    6.36
   8   9  15   80.84    7.45
  -9  -9 -15   -0.75    0.57
  -9  -9 -15    1.61    2.06
   9   9  15    1.36    1.32
   9   9  15   -0.42    1.09
 -10  -9 -15   87.72    9.23
 -10  -9 -15   76.07    6.35
  10   9  15   77.20    7.33
  10   9  15   82.14    8.44
   3 -10 -15    2.75    0.65
  -3  10  15    2.52    1.36
   2 -10 -15    3.14    0.71
  -2  10  15    2.95    1.37
   1 -10 -15  103.28    7.89
  -1  10  15  110.43    9.32
   0 -10 -15   30.19    2.66
   0  10  15   33.08    3.90
  -1 -10 -15   11.26    3.28
  -1 -10 -15   16.11    1.76
   1  10  15   19.02    2.78
  -2 -10 -15  177.55   12.85
  -2 -10 -15  151.17   14.85
   2  10  15  195.15   14.13
  -3 -10 -15    3.32    0.75
  -3 -10 -15    2.78    2.29
   3  10  15    5.82    1.69
  -4 -10 -15    3.58    0.84
  -4 -10 -15    4.60    2.38
   4  10  15    5.31    1.62
  -5 -10 -15   18.57    2.17
  -5 -10 -15   21.44    4.29
   5  10  15   24.13    3.38
  -6 -10 -15   -0.21    1.59
   6  10  15    1.03    0.99
  -7 -10 -15  118.95    8.76
  -7 -10 -15  104.97   12.16
   7  10  15  120.68   10.06
  -8 -10 -15   55.04    7.12
  -8 -10 -15   56.86    4.86
   8  10  15   69.43    6.26
  -9 -10 -15    5.69    2.54
  -9 -10 -15    1.31    0.72
   9  10  15    4.29    2.17
   9  10  15    2.60    1.45
 -10 -10 -15   71.68    8.38
 -10 -10 -15   70.22    5.86
  10  10  15   71.89    8.13
  10  10  15   80.44    7.09
   2 -11 -15   48.19    3.84
  -2  11  15   47.93    5.15
   1 -11 -15   82.59    6.47
  -1  11  15   91.27    7.85
   0 -11 -15    8.90    2.75
   0 -11 -15   12.27    1.29
   0  11  15   11.36    2.46
  -1 -11 -15   65.51    5.48
  -1 -11 -15   65.46    7.93
   1  11  15   79.52    6.74
  -2 -11 -15   89.30   10.06
  -2 -11 -15   98.26    7.80
   2  11  15  123.50    9.25
  -3 -11 -15    2.16    0.68
  -3 -11 -15    0.47    1.89
   3  11  15    1.33    1.18
  -4 -11 -15   46.14    4.07
  -4 -11 -15   53.45    6.76
   4  11  15   58.32    5.55
  -5 -11 -15   93.70    9.65
  -5 -11 -15   77.33    6.78
   5  11  15   95.77    8.08
   6  11  15   -0.36    0.87
  -7 -11 -15   87.83    9.50
  -7 -11 -15   87.46    6.90
   7  11  15   97.69    8.39
  -8 -11 -15   19.54    2.02
  -8 -11 -15   15.81    3.99
   8  11  15   20.90    2.99
  -9 -11 -15   37.44    3.46
  -9 -11 -15   41.17    6.06
   9  11  15   43.51    4.82
   1 -12 -15   39.46    3.37
  -1  12  15   46.30    4.78
   0 -12 -15   -2.00    1.41
   0 -12 -15    0.02    0.40
   0  12  15    0.52    1.09
  -1 -12 -15  146.93   14.47
  -1 -12 -15  160.22   11.68
   1  12  15  168.01   12.98
  -2 -12 -15   32.81    5.38
  -2 -12 -15   37.03    3.07
  -3 -12 -15   -1.56    1.78
  -3 -12 -15   -0.03    0.40
   3  12  15    2.69    1.43
   4  12  15   67.34    6.51
  -5 -12 -15   29.49    5.13
   5  12  15   37.06    4.27
  -6 -12 -15    0.04    1.59
   6  12  15    0.54    0.97
  -7 -12 -15   43.91    6.27
  -7 -12 -15   43.98    3.74
   7  12  15   52.98    5.39
  -8 -12 -15    5.16    0.92
  -8 -12 -15    3.73    2.40
   8  12  15    5.50    2.13
   0 -13 -15   -0.26    0.41
   0  13  15    2.39    1.27
  -1 -13 -15   82.15    6.27
  -1 -13 -15   69.97    9.28
   1  13  15   92.39    7.67
  -2 -13 -15   30.15    2.81
  -2 -13 -15   32.59    5.68
   2  13  15   39.64    4.10
  -3 -13 -15    2.97    0.61
  -3 -13 -15    4.60    2.66
   3  13  15    5.43    1.64
  -4 -13 -15   48.89    7.17
   4  13  15   65.56    5.97
  -5 -13 -15    0.15    1.74
  -5 -13 -15    1.39    0.55
   5  13  15    4.58    1.57
  -6 -13 -15   27.15    5.11
  -6 -13 -15   25.65    2.58
   6  13  15   39.03    4.34
   2   0  16   53.57    6.39
  -3   0 -16    3.23    0.85
   3   0  16    3.21    1.77
  -4   0 -16   49.24    4.11
   4   0  16   49.02    5.90
  -5   0 -16   48.90    4.26
   5   0  16   57.96    6.18
  -6   0 -16    4.57    1.00
   6   0  16    5.65    2.07
  -7   0 -16   71.18    5.70
  -1  -1 -16   59.35    5.10
   1   1  16   72.05    7.33
  -2  -1 -16   83.93    6.65
   2   1  16   88.30    8.56
  -3  -1 -16    0.54    0.52
   3   1  16    0.43    1.59
  -4  -1 -16   76.15    6.31
   4   1  16   88.57    8.33
  -5  -1 -16   52.37    4.63
   5   1  16   65.88    6.54
  -6  -1 -16    0.55    0.70
   6   1  16    2.77    1.72
  -7  -1 -16   80.60    6.66
   7   1  16   91.04    8.25
  -8  -1 -16   38.26    3.63
   8   1  16   44.71    4.97
  -9  -1 -16   25.62    2.86
   9   1  16   33.16    4.04
   9   1  16   30.16    4.03
   0  -2 -16    0.22    0.43
   0   2  16   -0.36    1.09
  -1  -2 -16   26.04    2.52
   1   2  16   25.31    4.24
  -2  -2 -16   30.88    2.90
   2   2  16   33.03    4.70
  -3  -2 -16   54.97    4.53
   3   2  16   54.67    6.20
  -4  -2 -16  112.47    8.66
   4   2  16  116.63   10.46
  -5  -2 -16   63.29    5.13
   5   2  16   63.33    6.68
  -6  -2 -16   40.88    3.65
   6   2  16   42.38    5.09
  -7  -2 -16   47.95    4.23
   7   2  16   51.43    5.56
  -8  -2 -16   14.90    1.98
   8   2  16   15.07    2.81
   8   2  16   14.21    2.93
  -9  -2 -16   50.62    4.49
   9   2  16   52.98    5.67
   1  -3 -16   20.49    2.24
  -1   3  16   25.69    4.12
   0  -3 -16   37.32    3.40
   0   3  16   41.37    5.24
  -1  -3 -16  172.39   13.04
   1   3  16  184.14   15.09
  -2  -3 -16   42.47    3.68
   2   3  16   42.73    5.28
  -3  -3 -16   40.96    3.71
   3   3  16   47.62    5.49
  -4  -3 -16  115.66    8.83
   4   3  16  118.30   10.55
  -5  -3 -16    2.02    0.79
   5   3  16    0.21    1.40
  -6  -3 -16   88.91    6.98
   6   3  16   89.60    8.41
  -7  -3 -16  124.65   10.26
   7   3  16  123.07   11.49
   7   3  16  160.47   11.67
  -8  -3 -16    0.98    0.82
   8   3  16   -0.62    1.17
   8   3  16   -0.36    1.10
  -9  -3 -16   51.04    4.44
   9   3  16   49.12    5.40
   9   3  16   54.99    5.80
 -10  -3 -16   66.89    5.88
  10   3  16   75.71    8.48
  10   3  16   74.14    6.81
   1  -4 -16    4.79    1.00
  -1   4  16    4.10    2.18
   0  -4 -16   52.78    4.62
   0   4  16   64.12    6.62
  -1  -4 -16  163.93   12.55
   1   4  16  179.40   14.59
  -2  -4 -16   32.58    2.99
   2   4  16   32.89    4.51
  -3  -4 -16   35.37    3.28
   3   4  16   40.56    4.93
  -4  -4 -16   90.25    7.26
   4   4  16   99.31    8.93
  -5  -4 -16    2.75    0.81
   5   4  16    2.04    1.54
  -6  -4 -16  123.85    9.53
   6   4  16  133.12   10.47
   6   4  16  118.17   10.75
  -7  -4 -16   36.75    3.47
   7   4  16   33.73    4.50
   7   4  16   43.93    4.67
  -8  -4 -16    6.99    1.42
   8   4  16    9.24    2.26
   8   4  16    7.37    2.10
  -9  -4 -16  123.89   10.16
   9   4  16  134.88   11.25
   9   4  16  142.17   11.73
 -10  -4 -16   59.32    5.30
  10   4  16   61.77    6.81
  10   4  16   69.60    6.30
   2  -5 -16   56.64    4.90
  -2   5  16   69.42    7.03
   1  -5 -16    7.93    1.26
  -1   5  16   12.19    2.95
   0  -5 -16   73.70    5.86
   0   5  16   76.97    7.60
  -1  -5 -16   26.50    2.55
   1   5  16   28.32    4.09
  -2  -5 -16    3.01    0.88
   2   5  16    3.28    1.56
  -3  -5 -16  134.94    9.59
   3   5  16  118.01   11.03
  -4  -5 -16   68.83    5.55
   4   5  16   69.91    7.02
  -5  -5 -16    3.27    3.06
  -5  -5 -16    3.73    0.97
   5   5  16    4.18    1.60
  -6  -5 -16  171.18   12.75
   6   5  16  172.20   14.13
  -7  -5 -16   35.98    4.93
  -7  -5 -16   23.65    2.67
   7   5  16   26.21    3.75
   7   5  16   25.96    3.61
  -8  -5 -16   11.81    3.05
  -8  -5 -16    6.97    1.30
   8   5  16    8.56    2.22
   8   5  16    6.78    2.04
  -9  -5 -16   72.82    6.58
  -9  -5 -16  102.41    9.48
   9   5  16   76.09    7.89
   9   5  16   86.80    7.69
 -10  -5 -16    3.74    1.15
  10   5  16    4.09    1.80
  10   5  16    2.28    1.75
   2  -6 -16   50.33    4.32
  -2   6  16   56.99    6.06
   1  -6 -16    1.64    0.68
  -1   6  16    2.73    1.43
   0  -6 -16   85.61    6.70
   0   6  16   89.55    8.45
  -1  -6 -16   30.30    2.96
   1   6  16   39.61    4.64
  -2  -6 -16   38.49    3.33
   2   6  16   36.40    4.65
  -3  -6 -16  197.73   14.36
   3   6  16  194.23   15.87
  -4  -6 -16   63.82    5.04
   4   6  16   58.46    6.21
  -5  -6 -16   82.81    6.73
   5   6  16   89.44    8.15
  -6  -6 -16  136.32   11.08
  -6  -6 -16   97.58    8.57
   6   6  16  107.85    9.86
  -7  -6 -16   -0.73    1.76
  -7  -6 -16   -0.26    0.71
   7   6  16    1.05    1.26
   7   6  16    1.40    1.48
  -8  -6 -16  137.04   11.46
   8   6  16  165.23   13.12
   8   6  16  158.52   12.75
  -9  -6 -16  205.14   15.67
   9   6  16  213.72   16.77
   9   6  16  219.11   17.43
 -10  -6 -16    0.30    2.14
 -10  -6 -16    0.40    0.83
  10   6  16    1.46    1.65
  10   6  16    0.44    1.15
   2  -7 -16   32.78    3.08
  -2   7  16   40.41    4.83
   1  -7 -16   13.60    1.50
  -1   7  16   11.42    2.85
   0  -7 -16   80.92    6.48
   0   7  16   89.47    8.23
  -1  -7 -16   27.85    2.55
   1   7  16   25.58    3.60
  -2  -7 -16   23.89    2.34
   2   7  16   22.31    3.54
  -3  -7 -16  120.81    9.01
   3   7  16  117.78   10.43
  -4  -7 -16   24.25    2.35
  -4  -7 -16   20.66    3.92
   4   7  16   21.10    3.42
  -5  -7 -16  133.78   11.52
  -5  -7 -16  115.78    9.20
   5   7  16  117.41   10.53
  -6  -7 -16   94.36    7.68
  -6  -7 -16  106.41   10.06
   6   7  16   97.81    8.92
  -7  -7 -16   -0.78    0.61
  -7  -7 -16   -1.20    1.59
   7   7  16   -0.88    0.68
   7   7  16    0.19    1.05
  -8  -7 -16  210.04   16.15
  -8  -7 -16  169.34   13.26
   8   7  16  167.82   14.31
   8   7  16  171.76   14.77
  -9  -7 -16   71.92    9.00
  -9  -7 -16   54.15    4.98
   9   7  16   62.51    7.58
   9   7  16   55.62    5.89
 -10  -7 -16    1.66    0.90
 -10  -7 -16   -0.35    2.07
  10   7  16    1.16    1.32
  10   7  16    0.12    1.50
   2  -8 -16    4.45    0.85
  -2   8  16    3.83    1.72
   1  -8 -16   30.88    2.73
  -1   8  16   29.52    4.11
   0  -8 -16   68.81    5.61
   0   8  16   77.32    7.16
  -1  -8 -16    7.53    1.18
   1   8  16    9.61    2.35
  -2  -8 -16   66.93    5.55
   2   8  16   76.81    7.02
  -3  -8 -16  105.81   11.23
  -3  -8 -16  131.47    9.26
   3   8  16  131.97   10.70
  -4  -8 -16   -1.24    1.65
  -4  -8 -16    0.47    0.59
   4   8  16    0.33    0.89
  -5  -8 -16   77.62    6.26
  -5  -8 -16   80.68    8.56
   5   8  16   80.30    7.55
  -6  -8 -16   40.59    5.66
  -6  -8 -16   43.60    3.78
   6   8  16   44.14    4.93
  -7  -8 -16    9.48    2.87
  -7  -8 -16   10.26    1.60
   7   8  16   11.38    2.57
  -8  -8 -16  143.86   11.25
  -8  -8 -16  152.60   13.80
   8   8  16  157.40   12.54
   8   8  16  146.76   12.89
  -9  -8 -16   53.54    6.60
  -9  -8 -16   44.15    4.23
   9   8  16   43.37    5.02
   9   8  16   49.24    5.75
 -10  -8 -16    4.85    2.94
 -10  -8 -16    4.32    1.16
  10   8  16    4.06    1.75
  10   8  16    7.21    2.59
  -2   9  16    2.19    1.47
   1  -9 -16   17.08    1.81
  -1   9  16   22.43    3.38
   0  -9 -16   41.86    3.63
   0   9  16   48.04    5.14
  -1  -9 -16    0.17    0.47
   1   9  16   -0.26    0.76
  -2  -9 -16   88.01    7.01
   2   9  16   98.57    8.55
  -3  -9 -16   49.41    4.20
  -3  -9 -16   47.09    6.19
   3   9  16   61.29    5.75
  -4  -9 -16   28.41    2.64
  -4  -9 -16   23.83    4.51
   4   9  16   32.51    3.98
  -5  -9 -16  112.39    8.91
  -5  -9 -16  122.72   11.49
   5   9  16  121.36   10.26
  -6  -9 -16    8.39    2.98
  -6  -9 -16    6.79    1.30
   6   9  16    6.43    2.15
  -7  -9 -16   56.65    4.96
  -7  -9 -16   60.10    7.34
   7   9  16   66.49    6.25
  -8  -9 -16   86.59    9.20
  -8  -9 -16   83.80    6.75
   8   9  16   86.16    7.97
  -9  -9 -16    3.50    2.47
  -9  -9 -16    5.67    1.24
   9   9  16    9.44    2.73
   9   9  16    5.27    1.90
   1 -10 -16   24.01    2.29
  -1  10  16   27.82    3.70
   0 -10 -16   11.39    1.38
   0  10  16   12.58    2.63
  -1 -10 -16   21.61    2.11
   1  10  16   24.76    3.48
  -2 -10 -16  102.91   11.08
  -2 -10 -16  123.39    9.01
   2  10  16  139.59   10.66
  -3 -10 -16   16.59    1.77
  -3 -10 -16   15.16    3.75
   3  10  16   20.48    2.95
  -4 -10 -16   41.10    5.84
  -4 -10 -16   35.30    3.32
   4  10  16   44.72    4.78
  -5 -10 -16   80.97    6.54
  -5 -10 -16   81.84    9.26
   5  10  16   93.09    8.05
  -6 -10 -16    4.90    2.52
  -6 -10 -16    5.20    1.10
   6  10  16    6.57    2.05
  -7 -10 -16   73.87    5.73
  -7 -10 -16   66.82    8.07
   7  10  16   73.59    7.06
  -8 -10 -16   52.19    4.75
  -8 -10 -16   60.78    7.51
   8  10  16   64.21    6.21
   9  10  16    1.84    1.47
   0 -11 -16   24.39    2.41
   0  11  16   35.12    3.96
  -1 -11 -16    7.68    3.04
  -1 -11 -16   12.71    1.40
   1  11  16   15.18    2.79
  -2 -11 -16   74.03    5.82
  -2 -11 -16   67.31    8.28
   2  11  16   89.35    7.42
  -3 -11 -16   -0.28    0.51
  -3 -11 -16    0.23    1.83
   3  11  16   -0.94    1.00
  -4 -11 -16   63.93    8.27
  -4 -11 -16   69.22    5.47
   4  11  16   79.64    7.08
  -5 -11 -16   44.35    6.69
  -5 -11 -16   47.78    3.97
   5  11  16   53.19    5.35
  -6 -11 -16    4.38    2.54
  -6 -11 -16    2.16    0.79
   6  11  16    4.52    1.84
  -7 -11 -16  119.74   12.05
  -7 -11 -16  115.87    9.02
   7  11  16  126.39   10.53
  -1 -12 -16   38.37    6.01
  -1 -12 -16   40.30    3.46
   1  12  16   51.72    5.08
  -2 -12 -16   28.21    5.50
  -2 -12 -16   37.10    3.10
   2  12  16   48.18    4.78
  -3 -12 -16    6.36    2.68
  -3 -12 -16    6.43    0.98
   3  12  16    9.82    2.34
  -4 -12 -16   69.89    5.56
  -4 -12 -16   69.74    8.57
   4  12  16   80.58    7.19
  -5 -12 -16   40.55    6.14
  -5 -12 -16   40.32    3.37
  -6 -12 -16   24.48    2.35
  -6 -12 -16   23.07    4.63
   6  12  16   32.15    4.01
  -4  -2 -17   67.31    5.59
   4   2  17   73.36    7.41
  -5  -2 -17    4.81    1.07
   5   2  17    7.65    2.34
  -6  -2 -17   59.62    5.06
   6   2  17   63.76    6.72
  -2  -3 -17   14.18    1.80
   2   3  17   18.54    3.82
  -3  -3 -17   20.97    2.16
   3   3  17   16.95    3.49
  -4  -3 -17   80.65    6.65
   4   3  17   90.85    8.62
  -5  -3 -17   21.46    2.39
   5   3  17   24.77    3.96
  -6  -3 -17   28.18    2.91
   6   3  17   32.80    4.37
  -7  -3 -17   34.24    3.19
   7   3  17   34.47    4.54
  -1  -4 -17   57.68    4.92
   1   4  17   64.46    6.97
  -2  -4 -17    2.79    0.84
   2   4  17    1.46    1.61
  -3  -4 -17   52.75    4.31
   3   4  17   47.18    5.70
  -4  -4 -17   45.32    4.00
   4   4  17   46.90    5.63
  -5  -4 -17    1.08    0.67
   5   4  17    0.95    1.59
  -6  -4 -17   77.64    6.14
   6   4  17   74.06    7.54
  -7  -4 -17   50.90    4.23
   7   4  17   44.18    5.34
  -8  -4 -17   43.34    3.92
  -1  -5 -17   80.11    6.57
   1   5  17   90.05    8.60
  -2  -5 -17    2.03    0.78
   2   5  17    1.07    1.66
  -3  -5 -17   33.93    3.22
   3   5  17   37.57    4.66
  -4  -5 -17   47.18    3.91
   4   5  17   40.10    5.26
  -5  -5 -17    3.62    1.04
   5   5  17    5.16    2.02
  -6  -5 -17  124.38    9.66
   6   5  17  129.43   11.20
  -7  -5 -17   26.60    2.84
   7   5  17   29.83    4.05
  -8  -5 -17   12.02    1.83
  -8  -5 -17   13.29    3.65
   8   5  17   10.86    2.70
   8   5  17   13.86    2.74
   0   6  17   56.44    6.41
  -1  -6 -17    6.81    1.19
   1   6  17    7.15    2.16
  -2  -6 -17   18.01    1.98
   2   6  17   20.59    3.81
  -3  -6 -17   96.31    6.92
   3   6  17   77.61    8.19
  -4  -6 -17    8.15    1.29
   4   6  17    8.10    2.29
  -5  -6 -17    7.45    1.35
   5   6  17    9.73    2.48
  -6  -6 -17  147.73   11.17
   6   6  17  148.69   12.62
  -7  -6 -17    0.30    0.78
  -7  -6 -17   -2.10    1.88
   7   6  17    0.37    1.27
  -8  -6 -17   69.42    5.59
   8   6  17   64.26    6.64
  -9  -6 -17  130.93   15.99
   9   6  17  104.39    9.73
   0  -7 -17   97.25    7.60
   0   7  17  102.66    9.50
  -1  -7 -17   33.98    3.13
   1   7  17   35.56    4.53
  -2  -7 -17   11.03    1.52
   2   7  17   11.49    2.78
  -3  -7 -17   46.33    4.10
   3   7  17   51.02    5.68
  -4  -7 -17    1.51    0.74
   4   7  17    1.26    1.40
  -5  -7 -17  100.67    7.80
   5   7  17   99.59    9.26
  -6  -7 -17   65.34    5.37
   6   7  17   63.70    6.66
  -7  -7 -17   -3.29    1.80
  -7  -7 -17    1.94    0.91
   7   7  17    3.49    1.73
  -8  -7 -17   93.88    9.20
  -8  -7 -17   70.75    6.35
   8   7  17   78.58    7.60
   8   7  17   77.20    7.75
   0   8  17   59.07    6.27
  -1  -8 -17    0.94    0.55
   1   8  17    0.92    1.45
  -2  -8 -17   57.54    4.74
   2   8  17   59.01    6.17
  -3  -8 -17   58.20    4.84
   3   8  17   60.88    6.34
  -4  -8 -17    0.68    0.65
   4   8  17    1.01    1.35
  -5  -8 -17  131.86   13.43
  -5  -8 -17  136.57   10.32
   5   8  17  142.76   11.84
  -6  -8 -17   63.46    7.44
  -6  -8 -17   55.58    4.94
   6   8  17   60.49    6.32
  -7  -8 -17    5.52    1.27
  -7  -8 -17    3.47    2.54
   7   8  17    4.14    1.93
  -8  -8 -17   92.31    7.63
   8   8  17  102.72    9.03
  -1  -9 -17    0.00    0.56
   1   9  17    1.02    1.33
  -2  -9 -17   47.33    4.13
   2   9  17   56.50    5.79
  -3  -9 -17   48.42    4.21
   3   9  17   54.54    5.73
  -4  -9 -17   11.80    1.67
   4   9  17   15.10    2.97
  -5  -9 -17   50.54    4.45
   5   9  17   56.47    5.92
  -6  -9 -17    4.06    2.68
  -6  -9 -17    2.62    0.97
   6   9  17    2.92    1.74
  -7  -9 -17   38.93    3.53
  -7  -9 -17   37.23    6.05
   7   9  17   37.62    4.75
  -2 -10 -17   85.28    6.69
   2  10  17   85.75    8.09
  -3 -10 -17   21.75    2.15
   3  10  17   21.54    3.44
  -4 -10 -17   15.21    3.89
  -5 -10 -17   63.44    5.28
   5  10  17   69.34    6.82
  -6 -10 -17   -0.20    0.60
   6  10  17    1.51    1.33
   0   0   0    0.00    0.00
;
_shelx_hkl_checksum              57564
_olex2_submission_special_instructions 'No special instructions were received'
loop_
_space_group_symop_operation_xyz
'x, y, z'
'-x, -y, -z'
loop_
_atom_site_label
_atom_site_type_symbol
_atom_site_fract_x
_atom_site_fract_y
_atom_site_fract_z
_atom_site_U_iso_or_equiv
_atom_site_adp_type
_atom_site_occupancy
_atom_site_site_symmetry_order
_atom_site_calc_flag
_atom_site_refinement_flags_posn
_atom_site_refinement_flags_adp
_atom_site_refinement_flags_occupancy
_atom_site_disorder_assembly
_atom_site_disorder_group
Sm1 Sm 0.31902(2) 0.45316(2) 0.52049(2) 0.01094(6) Uani 1 1 d . . . . .
O1 O 0.51691(19) 0.6499(2) 0.02212(18) 0.0202(4) Uani 1 1 d . . . . .
O2 O 0.55134(19) 0.9409(2) 0.20215(19) 0.0177(4) Uani 1 1 d . . . . .
O3 O 0.15664(18) 0.8567(2) 0.1442(2) 0.0227(4) Uani 1 1 d . . . . .
O4 O 0.54496(17) 0.53180(18) 0.36491(16) 0.0150(3) Uani 1 1 d . . . . .
O5 O 0.39620(18) 0.4807(2) 0.30112(18) 0.0203(4) Uani 1 1 d . . . . .
O6 O 0.35423(18) 0.67475(19) 0.48128(19) 0.0193(4) Uani 1 1 d . . . . .
O7 O 0.56346(17) 0.72651(18) 0.44598(18) 0.0184(4) Uani 1 1 d . . . . .
O8 O -0.1652(2) 0.6155(2) 0.2893(2) 0.0281(5) Uani 1 1 d . . . . .
O9 O 0.0383(2) 0.5934(3) 0.2816(2) 0.0328(5) Uani 1 1 d . . . . .
O10 O 0.1772(2) 0.2986(2) 0.5134(2) 0.0271(4) Uani 1 1 d . . . . .
O11A O 0.1307(4) 0.5494(4) 0.4783(4) 0.0205(7) Uani 0.5 1 d . . P A 1
H11A H 0.134251 0.565506 0.403187 0.031 Uiso 0.5 1 d GR . P A 1
H11B H 0.130775 0.624512 0.479201 0.031 Uiso 0.5 1 d GR . P A 1
O11B O 0.1812(4) 0.5997(5) 0.4119(5) 0.0240(8) Uani 0.5 1 d . . P A 2
H11C H 0.217402 0.682114 0.373200 0.036 Uiso 0.5 1 d GR . P A 2
H11D H 0.106552 0.603964 0.465229 0.036 Uiso 0.5 1 d GR . P A 2
N1 N 0.0252(2) 0.2383(3) 0.4511(2) 0.0224(5) Uani 1 1 d . . . . .
C1 C 0.4671(2) 0.7326(3) 0.0748(2) 0.0156(4) Uani 1 1 d . . . . .
C2 C 0.5387(2) 0.7955(3) 0.1150(2) 0.0156(4) Uani 1 1 d . . . . .
H2 H 0.624165 0.782461 0.109203 0.019 Uiso 1 1 calc R . . . .
C3 C 0.4773(2) 0.8788(2) 0.1643(2) 0.0148(4) Uani 1 1 d . . . . .
C4 C 0.3504(2) 0.9011(3) 0.1715(2) 0.0159(4) Uani 1 1 d . . . . .
H4 H 0.310850 0.957175 0.204238 0.019 Uiso 1 1 calc R . . . .
C5 C 0.2843(2) 0.8371(3) 0.1282(2) 0.0164(4) Uani 1 1 d . . . . .
C6 C 0.3406(2) 0.7524(3) 0.0801(2) 0.0170(4) Uani 1 1 d . . . . .
H6 H 0.294750 0.709916 0.052071 0.020 Uiso 1 1 calc R . . . .
C7 C 0.6131(2) 0.5776(3) 0.0529(2) 0.0156(4) Uani 1 1 d . . . . .
C8 C 0.6157(2) 0.5114(2) 0.1741(2) 0.0146(4) Uani 1 1 d . . . . .
C9 C 0.7154(3) 0.4364(3) 0.1940(3) 0.0200(5) Uani 1 1 d . . . . .
H9 H 0.719088 0.393429 0.274010 0.024 Uiso 1 1 calc R . . . .
C10 C 0.8094(3) 0.4244(3) 0.0973(3) 0.0235(6) Uani 1 1 d . . . . .
H10 H 0.874692 0.373086 0.112357 0.028 Uiso 1 1 calc R . . . .
C11 C 0.8049(3) 0.4900(3) -0.0227(3) 0.0235(6) Uani 1 1 d . . . . .
H11 H 0.866845 0.481763 -0.088150 0.028 Uiso 1 1 calc R . . . .
C12 C 0.7080(3) 0.5678(3) -0.0449(3) 0.0211(5) Uani 1 1 d . . . . .
H12 H 0.706588 0.613378 -0.125398 0.025 Uiso 1 1 calc R . . . .
C13 C 0.5120(2) 0.5096(2) 0.2848(2) 0.0135(4) Uani 1 1 d . . . . .
C14 C 0.4828(2) 0.9830(3) 0.2915(2) 0.0167(4) Uani 1 1 d . . . . .
C15 C 0.4290(2) 0.8919(2) 0.4135(2) 0.0153(4) Uani 1 1 d . . . . .
C16 C 0.3578(3) 0.9331(3) 0.5014(3) 0.0190(5) Uani 1 1 d . . . . .
H16 H 0.319452 0.873356 0.582570 0.023 Uiso 1 1 calc R . . . .
C17 C 0.3432(3) 1.0624(3) 0.4697(3) 0.0225(5) Uani 1 1 d . . . . .
H17 H 0.295407 1.089198 0.529136 0.027 Uiso 1 1 calc R . . . .
C18 C 0.4008(3) 1.1516(3) 0.3480(3) 0.0253(6) Uani 1 1 d . . . . .
H18 H 0.392737 1.238543 0.326463 0.030 Uiso 1 1 calc R . . . .
C19 C 0.4701(3) 1.1115(3) 0.2586(3) 0.0226(5) Uani 1 1 d . . . . .
H19 H 0.507712 1.170983 0.177281 0.027 Uiso 1 1 calc R . . . .
C20 C 0.4517(2) 0.7535(2) 0.4492(2) 0.0154(4) Uani 1 1 d . . . . .
C21 C 0.1009(2) 0.8444(3) 0.0621(2) 0.0177(5) Uani 1 1 d . . . . .
C22 C -0.0048(2) 0.7524(3) 0.1078(2) 0.0162(4) Uani 1 1 d . . . . .
C23 C -0.0730(3) 0.7568(3) 0.0284(3) 0.0213(5) Uani 1 1 d . . . . .
H23 H -0.146043 0.698626 0.057907 0.026 Uiso 1 1 calc R . . . .
C24 C -0.0337(3) 0.8468(3) -0.0940(3) 0.0278(6) Uani 1 1 d . . . . .
H24 H -0.080073 0.848539 -0.146024 0.033 Uiso 1 1 calc R . . . .
C25 C 0.0752(3) 0.9341(3) -0.1386(3) 0.0290(7) Uani 1 1 d . . . . .
H25 H 0.103301 0.992700 -0.221229 0.035 Uiso 1 1 calc R . . . .
C26 C 0.1420(3) 0.9341(3) -0.0603(3) 0.0252(6) Uani 1 1 d . . . . .
H26 H 0.213807 0.993638 -0.089523 0.030 Uiso 1 1 calc R . . . .
C27 C -0.0453(3) 0.6474(3) 0.2367(2) 0.0200(5) Uani 1 1 d . . . . .
C28 C 0.1281(2) 0.3119(3) 0.4323(3) 0.0207(5) Uani 1 1 d . . . . .
H28 H 0.165596 0.377165 0.353755 0.025 Uiso 1 1 calc R . . . .
C29 C -0.0431(5) 0.1403(5) 0.5726(4) 0.0566(14) Uani 1 1 d . . . . .
H29A H -0.006052 0.061129 0.583886 0.085 Uiso 1 1 calc GR . . . .
H29B H -0.132310 0.127757 0.580210 0.085 Uiso 1 1 calc GR . . . .
H29C H -0.036203 0.166850 0.634470 0.085 Uiso 1 1 calc GR . . . .
C30 C -0.0343(4) 0.2652(4) 0.3557(3) 0.0382(8) Uani 1 1 d . . . . .
H30A H -0.117037 0.293662 0.379793 0.057 Uiso 1 1 calc GR . . . .
H30B H -0.044874 0.188544 0.344239 0.057 Uiso 1 1 calc GR . . . .
H30C H 0.019691 0.331161 0.279609 0.057 Uiso 1 1 calc GR . . . .
loop_
_atom_site_aniso_label
_atom_site_aniso_U_11
_atom_site_aniso_U_22
_atom_site_aniso_U_33
_atom_site_aniso_U_23
_atom_site_aniso_U_13
_atom_site_aniso_U_12
Sm1 0.00810(7) 0.01471(8) 0.01091(8) -0.00532(5) -0.00426(5) 0.00023(5)
O1 0.0236(9) 0.0293(11) 0.0188(9) -0.0160(8) -0.0140(7) 0.0105(8)
O2 0.0142(8) 0.0226(10) 0.0204(9) -0.0119(8) -0.0070(7) -0.0014(7)
O3 0.0103(8) 0.0391(12) 0.0264(10) -0.0198(9) -0.0077(7) 0.0023(7)
O4 0.0138(7) 0.0215(9) 0.0112(7) -0.0078(6) -0.0048(6) -0.0005(6)
O5 0.0126(8) 0.0337(11) 0.0158(8) -0.0107(8) -0.0054(6) -0.0024(7)
O6 0.0164(8) 0.0173(9) 0.0276(10) -0.0096(7) -0.0111(7) 0.0007(7)
O7 0.0153(8) 0.0168(9) 0.0254(9) -0.0088(7) -0.0100(7) 0.0038(6)
O8 0.0187(9) 0.0416(13) 0.0195(10) -0.0141(9) 0.0027(8) -0.0089(8)
O9 0.0269(11) 0.0424(14) 0.0215(10) -0.0049(9) -0.0095(9) 0.0098(9)
O10 0.0237(10) 0.0342(12) 0.0295(11) -0.0168(9) -0.0114(8) -0.0052(8)
O11A 0.0164(18) 0.023(2) 0.024(2) -0.0093(17) -0.0108(16) 0.0049(16)
O11B 0.0201(19) 0.025(2) 0.031(2) -0.0098(19) -0.0172(18) 0.0030(16)
N1 0.0187(10) 0.0300(13) 0.0224(11) -0.0133(10) -0.0085(9) -0.0014(9)
C1 0.0172(10) 0.0189(12) 0.0120(10) -0.0065(8) -0.0063(8) 0.0023(8)
C2 0.0126(10) 0.0225(12) 0.0133(10) -0.0073(9) -0.0067(8) 0.0032(8)
C3 0.0131(10) 0.0176(11) 0.0138(10) -0.0049(8) -0.0066(8) -0.0009(8)
C4 0.0124(10) 0.0204(12) 0.0171(11) -0.0087(9) -0.0064(8) 0.0019(8)
C5 0.0100(9) 0.0247(13) 0.0141(10) -0.0076(9) -0.0041(8) 0.0006(8)
C6 0.0154(10) 0.0226(12) 0.0165(11) -0.0101(9) -0.0072(8) 0.0002(8)
C7 0.0166(10) 0.0208(12) 0.0133(10) -0.0099(9) -0.0064(8) 0.0021(8)
C8 0.0131(10) 0.0192(11) 0.0128(10) -0.0083(9) -0.0036(8) 0.0006(8)
C9 0.0184(11) 0.0243(13) 0.0194(12) -0.0103(10) -0.0074(9) 0.0046(9)
C10 0.0194(12) 0.0290(15) 0.0276(14) -0.0166(12) -0.0085(11) 0.0098(10)
C11 0.0196(12) 0.0302(15) 0.0225(13) -0.0166(12) -0.0014(10) 0.0040(10)
C12 0.0231(11) 0.0276(14) 0.0146(10) -0.0119(10) -0.0042(9) 0.0036(10)
C13 0.0126(10) 0.0171(11) 0.0119(10) -0.0066(8) -0.0048(8) 0.0009(8)
C14 0.0152(10) 0.0204(12) 0.0199(11) -0.0103(9) -0.0105(9) 0.0034(8)
C15 0.0138(10) 0.0157(11) 0.0195(11) -0.0076(9) -0.0093(9) 0.0022(8)
C16 0.0179(11) 0.0224(13) 0.0207(12) -0.0111(10) -0.0083(9) 0.0019(9)
C17 0.0218(12) 0.0264(14) 0.0308(14) -0.0190(12) -0.0145(11) 0.0074(10)
C18 0.0315(14) 0.0189(13) 0.0332(15) -0.0126(11) -0.0189(12) 0.0068(10)
C19 0.0276(13) 0.0189(13) 0.0220(12) -0.0060(10) -0.0124(10) 0.0000(10)
C20 0.0167(10) 0.0159(11) 0.0143(10) -0.0065(8) -0.0056(8) 0.0010(8)
C21 0.0112(10) 0.0246(13) 0.0189(11) -0.0100(10) -0.0058(8) 0.0020(8)
C22 0.0105(9) 0.0228(12) 0.0155(11) -0.0074(9) -0.0050(8) 0.0018(8)
C23 0.0151(11) 0.0303(15) 0.0237(13) -0.0136(11) -0.0102(9) 0.0025(9)
C24 0.0280(14) 0.0394(17) 0.0232(13) -0.0143(12) -0.0165(11) 0.0088(12)
C25 0.0313(15) 0.0329(17) 0.0161(12) -0.0046(11) -0.0064(11) 0.0062(12)
C26 0.0174(12) 0.0272(15) 0.0237(13) -0.0058(11) -0.0030(10) -0.0024(10)
C27 0.0201(12) 0.0244(13) 0.0144(11) -0.0088(9) -0.0030(9) -0.0010(9)
C28 0.0148(11) 0.0246(13) 0.0263(13) -0.0143(11) -0.0065(9) 0.0021(9)
C29 0.059(3) 0.071(3) 0.0239(17) -0.0047(18) -0.0101(17) -0.040(2)
C30 0.0330(17) 0.050(2) 0.0339(17) -0.0124(15) -0.0197(14) -0.0066(15)
loop_
_atom_type_symbol
_atom_type_description
_atom_type_scat_dispersion_real
_atom_type_scat_dispersion_imag
_atom_type_scat_source
C C 0.0033 0.0016 'International Tables Vol C Tables 4.2.6.8 and 6.1.1.4'
H H 0.0000 0.0000 'International Tables Vol C Tables 4.2.6.8 and 6.1.1.4'
N N 0.0061 0.0033 'International Tables Vol C Tables 4.2.6.8 and 6.1.1.4'
O O 0.0106 0.0060 'International Tables Vol C Tables 4.2.6.8 and 6.1.1.4'
Sm Sm -0.1638 3.4418 'International Tables Vol C Tables 4.2.6.8 and 6.1.1.4'
loop_
_geom_angle_atom_site_label_1
_geom_angle_atom_site_label_2
_geom_angle_atom_site_label_3
_geom_angle
_geom_angle_site_symmetry_1
_geom_angle_site_symmetry_3
_geom_angle_publ_flag
O4 Sm1 Sm1 38.35(4) 2_666 2_666 ?
O4 Sm1 Sm1 35.81(4) . 2_666 ?
O4 Sm1 O4 74.15(6) 2_666 . ?
O4 Sm1 O5 125.21(6) 2_666 . ?
O4 Sm1 O10 141.22(7) 2_666 . ?
O4 Sm1 O11A 135.19(11) 2_666 . ?
O4 Sm1 O11B 134.77(11) 2_666 . ?
O4 Sm1 C13 26.17(6) . . ?
O4 Sm1 C13 99.68(6) 2_666 . ?
O5 Sm1 Sm1 87.12(4) . 2_666 ?
O5 Sm1 O4 51.57(6) . . ?
O5 Sm1 C13 25.58(6) . . ?
O6 Sm1 Sm1 69.35(4) . 2_666 ?
O6 Sm1 O4 71.99(6) . 2_666 ?
O6 Sm1 O4 75.21(6) . . ?
O6 Sm1 O5 97.83(7) . . ?
O6 Sm1 O10 143.45(7) . . ?
O6 Sm1 O11A 73.52(11) . . ?
O6 Sm1 O11B 64.07(11) . . ?
O6 Sm1 C13 88.36(7) . . ?
O7 Sm1 Sm1 68.43(5) 2_666 2_666 ?
O7 Sm1 O4 72.92(6) 2_666 . ?
O7 Sm1 O4 72.96(7) 2_666 2_666 ?
O7 Sm1 O5 83.55(7) 2_666 . ?
O7 Sm1 O6 137.62(6) 2_666 . ?
O7 Sm1 O10 78.09(7) 2_666 . ?
O7 Sm1 O11A 148.39(12) 2_666 . ?
O7 Sm1 O11B 151.00(12) 2_666 . ?
O7 Sm1 C13 74.83(7) 2_666 . ?
O8 Sm1 Sm1 120.25(6) 2_566 2_666 ?
O8 Sm1 O4 156.05(7) 2_566 . ?
O8 Sm1 O4 81.91(7) 2_566 2_666 ?
O8 Sm1 O5 151.86(7) 2_566 . ?
O8 Sm1 O6 98.12(8) 2_566 . ?
O8 Sm1 O7 99.77(8) 2_566 2_666 ?
O8 Sm1 O10 78.13(8) 2_566 . ?
O8 Sm1 O11A 75.55(13) 2_566 . ?
O8 Sm1 O11B 93.76(14) 2_566 . ?
O8 Sm1 C13 173.50(8) 2_566 . ?
O10 Sm1 Sm1 143.68(6) . 2_666 ?
O10 Sm1 O4 120.95(7) . . ?
O10 Sm1 O5 75.24(7) . . ?
O10 Sm1 O11B 79.79(12) . . ?
O10 Sm1 C13 97.00(7) . . ?
O11A Sm1 Sm1 141.17(11) . 2_666 ?
O11A Sm1 O4 122.61(12) . . ?
O11A Sm1 O5 87.00(12) . . ?
O11A Sm1 O10 70.34(12) . . ?
O11A Sm1 C13 107.05(12) . . ?
O11B Sm1 O4 103.39(13) . . ?
O11B Sm1 O5 72.80(13) . . ?
O11B Sm1 C13 89.57(13) . . ?
C13 Sm1 Sm1 61.54(5) . 2_666 ?
C7 O1 C1 122.0(2) . . ?
C3 O2 C14 115.7(2) . . ?
C5 O3 C21 118.1(2) . . ?
Sm1 O4 Sm1 105.84(6) 2_666 . ?
C13 O4 Sm1 158.03(16) . 2_666 ?
C13 O4 Sm1 91.89(14) . . ?
C13 O5 Sm1 94.81(15) . . ?
C20 O6 Sm1 135.56(17) . . ?
C20 O7 Sm1 139.74(17) . 2_666 ?
C27 O8 Sm1 141.6(2) . 2_566 ?
C28 O10 Sm1 128.7(2) . . ?
Sm1 O11A H11A 110.2 . . ?
Sm1 O11A H11B 110.1 . . ?
H11A O11A H11B 103.7 . . ?
Sm1 O11B H11C 111.9 . . ?
Sm1 O11B H11D 111.9 . . ?
H11C O11B H11D 102.2 . . ?
C28 N1 C29 121.2(3) . . ?
C28 N1 C30 121.1(3) . . ?
C30 N1 C29 117.1(3) . . ?
O1 C1 C2 123.3(2) . . ?
O1 C1 C6 114.3(2) . . ?
C6 C1 C2 122.3(2) . . ?
C1 C2 H2 121.2 . . ?
C1 C2 C3 117.5(2) . . ?
C3 C2 H2 121.2 . . ?
O2 C3 C2 116.2(2) . . ?
O2 C3 C4 121.9(2) . . ?
C4 C3 C2 121.9(2) . . ?
C3 C4 H4 121.0 . . ?
C3 C4 C5 118.1(2) . . ?
C5 C4 H4 121.0 . . ?
O3 C5 C4 115.6(2) . . ?
O3 C5 C6 122.1(2) . . ?
C6 C5 C4 122.1(2) . . ?
C1 C6 H6 120.9 . . ?
C5 C6 C1 118.1(2) . . ?
C5 C6 H6 120.9 . . ?
O1 C7 C8 124.0(2) . . ?
O1 C7 C12 115.6(2) . . ?
C12 C7 C8 120.4(2) . . ?
C7 C8 C13 123.4(2) . . ?
C9 C8 C7 118.5(2) . . ?
C9 C8 C13 117.9(2) . . ?
C8 C9 H9 119.3 . . ?
C10 C9 C8 121.5(3) . . ?
C10 C9 H9 119.3 . . ?
C9 C10 H10 120.4 . . ?
C9 C10 C11 119.3(3) . . ?
C11 C10 H10 120.4 . . ?
C10 C11 H11 119.9 . . ?
C12 C11 C10 120.1(2) . . ?
C12 C11 H11 119.9 . . ?
C7 C12 H12 119.9 . . ?
C11 C12 C7 120.1(3) . . ?
C11 C12 H12 119.9 . . ?
O4 C13 Sm1 61.94(12) . . ?
O4 C13 C8 118.4(2) . . ?
O5 C13 Sm1 59.60(13) . . ?
O5 C13 O4 120.9(2) . . ?
O5 C13 C8 120.6(2) . . ?
C8 C13 Sm1 168.66(18) . . ?
C15 C14 O2 118.5(2) . . ?
C19 C14 O2 120.1(2) . . ?
C19 C14 C15 121.4(2) . . ?
C14 C15 C20 120.6(2) . . ?
C16 C15 C14 118.5(2) . . ?
C16 C15 C20 120.9(2) . . ?
C15 C16 H16 119.6 . . ?
C17 C16 C15 120.8(3) . . ?
C17 C16 H16 119.6 . . ?
C16 C17 H17 120.3 . . ?
C16 C17 C18 119.4(3) . . ?
C18 C17 H17 120.3 . . ?
C17 C18 H18 119.8 . . ?
C19 C18 C17 120.3(3) . . ?
C19 C18 H18 119.8 . . ?
C14 C19 C18 119.5(3) . . ?
C14 C19 H19 120.3 . . ?
C18 C19 H19 120.3 . . ?
O6 C20 C15 116.4(2) . . ?
O7 C20 O6 126.2(2) . . ?
O7 C20 C15 117.4(2) . . ?
O3 C21 C22 119.1(2) . . ?
C26 C21 O3 118.9(2) . . ?
C26 C21 C22 121.5(2) . . ?
C21 C22 C27 122.9(2) . . ?
C23 C22 C21 118.0(2) . . ?
C23 C22 C27 119.1(2) . . ?
C22 C23 H23 119.5 . . ?
C24 C23 C22 121.0(3) . . ?
C24 C23 H23 119.5 . . ?
C23 C24 H24 120.1 . . ?
C23 C24 C25 119.8(3) . . ?
C25 C24 H24 120.1 . . ?
C24 C25 H25 119.9 . . ?
C26 C25 C24 120.1(3) . . ?
C26 C25 H25 119.9 . . ?
C21 C26 H26 120.3 . . ?
C25 C26 C21 119.4(3) . . ?
C25 C26 H26 120.3 . . ?
O8 C27 C22 116.1(3) . . ?
O9 C27 O8 124.4(3) . . ?
O9 C27 C22 119.3(2) . . ?
O10 C28 N1 123.6(3) . . ?
O10 C28 H28 118.2 . . ?
N1 C28 H28 118.2 . . ?
N1 C29 H29A 109.5 . . ?
N1 C29 H29B 109.5 . . ?
N1 C29 H29C 109.5 . . ?
H29A C29 H29B 109.5 . . ?
H29A C29 H29C 109.5 . . ?
H29B C29 H29C 109.5 . . ?
N1 C30 H30A 109.5 . . ?
N1 C30 H30B 109.5 . . ?
N1 C30 H30C 109.5 . . ?
H30A C30 H30B 109.5 . . ?
H30A C30 H30C 109.5 . . ?
H30B C30 H30C 109.5 . . ?
loop_
_geom_bond_atom_site_label_1
_geom_bond_atom_site_label_2
_geom_bond_distance
_geom_bond_site_symmetry_2
_geom_bond_publ_flag
Sm1 Sm1 3.9512(3) 2_666 ?
Sm1 O4 2.5483(17) . ?
Sm1 O4 2.4031(17) 2_666 ?
Sm1 O5 2.4982(19) . ?
Sm1 O6 2.3994(19) . ?
Sm1 O7 2.3618(19) 2_666 ?
Sm1 O8 2.288(2) 2_566 ?
Sm1 O10 2.425(2) . ?
Sm1 O11A 2.411(4) . ?
Sm1 O11B 2.489(4) . ?
Sm1 C13 2.886(2) . ?
O1 C1 1.378(3) . ?
O1 C7 1.374(3) . ?
O2 C3 1.383(3) . ?
O2 C14 1.400(3) . ?
O3 C5 1.378(3) . ?
O3 C21 1.391(3) . ?
O4 C13 1.274(3) . ?
O5 C13 1.251(3) . ?
O6 C20 1.266(3) . ?
O7 C20 1.248(3) . ?
O8 C27 1.263(3) . ?
O9 C27 1.239(4) . ?
O10 C28 1.238(3) . ?
O11A H11A 0.8675 . ?
O11A H11B 0.8662 . ?
O11B H11C 0.9018 . ?
O11B H11D 0.9016 . ?
N1 C28 1.325(3) . ?
N1 C29 1.447(4) . ?
N1 C30 1.447(4) . ?
C1 C2 1.392(3) . ?
C1 C6 1.384(3) . ?
C2 H2 0.9300 . ?
C2 C3 1.395(4) . ?
C3 C4 1.389(3) . ?
C4 H4 0.9300 . ?
C4 C5 1.390(3) . ?
C5 C6 1.382(4) . ?
C6 H6 0.9300 . ?
C7 C8 1.399(3) . ?
C7 C12 1.390(3) . ?
C8 C9 1.393(4) . ?
C8 C13 1.496(3) . ?
C9 H9 0.9300 . ?
C9 C10 1.386(4) . ?
C10 H10 0.9300 . ?
C10 C11 1.393(5) . ?
C11 H11 0.9300 . ?
C11 C12 1.389(4) . ?
C12 H12 0.9300 . ?
C14 C15 1.398(4) . ?
C14 C19 1.375(4) . ?
C15 C16 1.389(4) . ?
C15 C20 1.500(4) . ?
C16 H16 0.9300 . ?
C16 C17 1.389(4) . ?
C17 H17 0.9300 . ?
C17 C18 1.394(4) . ?
C18 H18 0.9300 . ?
C18 C19 1.389(4) . ?
C19 H19 0.9300 . ?
C21 C22 1.394(3) . ?
C21 C26 1.388(4) . ?
C22 C23 1.393(3) . ?
C22 C27 1.502(4) . ?
C23 H23 0.9300 . ?
C23 C24 1.389(4) . ?
C24 H24 0.9300 . ?
C24 C25 1.390(5) . ?
C25 H25 0.9300 . ?
C25 C26 1.384(5) . ?
C26 H26 0.9300 . ?
C28 H28 0.9300 . ?
C29 H29A 0.9600 . ?
C29 H29B 0.9600 . ?
C29 H29C 0.9600 . ?
C30 H30A 0.9600 . ?
C30 H30B 0.9600 . ?
C30 H30C 0.9600 . ?
loop_
_geom_torsion_atom_site_label_1
_geom_torsion_atom_site_label_2
_geom_torsion_atom_site_label_3
_geom_torsion_atom_site_label_4
_geom_torsion
_geom_torsion_site_symmetry_1
_geom_torsion_site_symmetry_2
_geom_torsion_site_symmetry_3
_geom_torsion_site_symmetry_4
_geom_torsion_publ_flag
Sm1 O4 C13 Sm1 144.3(5) 2_666 . . . ?
Sm1 O4 C13 O5 153.7(3) 2_666 . . . ?
Sm1 O4 C13 O5 9.4(3) . . . . ?
Sm1 O4 C13 C8 -22.8(6) 2_666 . . . ?
Sm1 O4 C13 C8 -167.1(2) . . . . ?
Sm1 O5 C13 O4 -9.6(3) . . . . ?
Sm1 O5 C13 C8 166.8(2) . . . . ?
Sm1 O6 C20 O7 -11.6(4) . . . . ?
Sm1 O6 C20 C15 169.33(17) . . . . ?
Sm1 O7 C20 O6 2.9(5) 2_666 . . . ?
Sm1 O7 C20 C15 -177.97(18) 2_666 . . . ?
Sm1 O8 C27 O9 38.9(5) 2_566 . . . ?
Sm1 O8 C27 C22 -145.3(3) 2_566 . . . ?
Sm1 O10 C28 N1 -159.8(2) . . . . ?
O1 C1 C2 C3 178.6(2) . . . . ?
O1 C1 C6 C5 -178.1(2) . . . . ?
O1 C7 C8 C9 177.0(2) . . . . ?
O1 C7 C8 C13 1.3(4) . . . . ?
O1 C7 C12 C11 -175.7(3) . . . . ?
O2 C3 C4 C5 178.3(2) . . . . ?
O2 C14 C15 C16 -178.2(2) . . . . ?
O2 C14 C15 C20 3.9(3) . . . . ?
O2 C14 C19 C18 179.4(2) . . . . ?
O3 C5 C6 C1 -175.8(2) . . . . ?
O3 C21 C22 C23 168.8(2) . . . . ?
O3 C21 C22 C27 -13.1(4) . . . . ?
O3 C21 C26 C25 -170.8(3) . . . . ?
C1 O1 C7 C8 43.7(4) . . . . ?
C1 O1 C7 C12 -139.5(3) . . . . ?
C1 C2 C3 O2 -179.3(2) . . . . ?
C1 C2 C3 C4 -1.2(4) . . . . ?
C2 C1 C6 C5 -0.6(4) . . . . ?
C2 C3 C4 C5 0.3(4) . . . . ?
C3 O2 C14 C15 74.8(3) . . . . ?
C3 O2 C14 C19 -105.6(3) . . . . ?
C3 C4 C5 O3 176.3(2) . . . . ?
C3 C4 C5 C6 0.6(4) . . . . ?
C4 C5 C6 C1 -0.5(4) . . . . ?
C5 O3 C21 C22 119.9(3) . . . . ?
C5 O3 C21 C26 -67.8(4) . . . . ?
C6 C1 C2 C3 1.4(4) . . . . ?
C7 O1 C1 C2 30.3(4) . . . . ?
C7 O1 C1 C6 -152.2(2) . . . . ?
C7 C8 C9 C10 -1.3(4) . . . . ?
C7 C8 C13 Sm1 139.2(7) . . . . ?
C7 C8 C13 O4 -132.1(3) . . . . ?
C7 C8 C13 O5 51.4(4) . . . . ?
C8 C7 C12 C11 1.2(4) . . . . ?
C8 C9 C10 C11 0.8(5) . . . . ?
C9 C8 C13 Sm1 -36.5(10) . . . . ?
C9 C8 C13 O4 52.1(3) . . . . ?
C9 C8 C13 O5 -124.4(3) . . . . ?
C9 C10 C11 C12 0.8(5) . . . . ?
C10 C11 C12 C7 -1.8(5) . . . . ?
C12 C7 C8 C9 0.3(4) . . . . ?
C12 C7 C8 C13 -175.4(2) . . . . ?
C13 C8 C9 C10 174.6(3) . . . . ?
C14 O2 C3 C2 -156.4(2) . . . . ?
C14 O2 C3 C4 25.5(3) . . . . ?
C14 C15 C16 C17 -1.7(4) . . . . ?
C14 C15 C20 O6 -112.8(3) . . . . ?
C14 C15 C20 O7 68.0(3) . . . . ?
C15 C14 C19 C18 -1.1(4) . . . . ?
C15 C16 C17 C18 0.0(4) . . . . ?
C16 C15 C20 O6 69.3(3) . . . . ?
C16 C15 C20 O7 -109.9(3) . . . . ?
C16 C17 C18 C19 1.2(4) . . . . ?
C17 C18 C19 C14 -0.7(4) . . . . ?
C19 C14 C15 C16 2.3(4) . . . . ?
C19 C14 C15 C20 -175.7(2) . . . . ?
C20 C15 C16 C17 176.2(2) . . . . ?
C21 O3 C5 C4 153.1(2) . . . . ?
C21 O3 C5 C6 -31.2(4) . . . . ?
C21 C22 C23 C24 2.7(4) . . . . ?
C21 C22 C27 O8 144.2(3) . . . . ?
C21 C22 C27 O9 -39.7(4) . . . . ?
C22 C21 C26 C25 1.3(5) . . . . ?
C22 C23 C24 C25 -0.1(5) . . . . ?
C23 C22 C27 O8 -37.7(4) . . . . ?
C23 C22 C27 O9 138.4(3) . . . . ?
C23 C24 C25 C26 -2.0(5) . . . . ?
C24 C25 C26 C21 1.4(5) . . . . ?
C26 C21 C22 C23 -3.3(4) . . . . ?
C26 C21 C22 C27 174.8(3) . . . . ?
C27 C22 C23 C24 -175.5(3) . . . . ?
C29 N1 C28 O10 4.0(5) . . . . ?
C30 N1 C28 O10 174.8(3) . . . . ?
