#------------------------------------------------------------------------------
#$Date: 2021-02-03 21:55:52 +0200 (Wed, 03 Feb 2021) $
#$Revision: 261398 $
#$URL: file:///home/coder/svn-repositories/cod/cif/4/51/84/4518450.cif $
#------------------------------------------------------------------------------
#
# This file is available in the Crystallography Open Database (COD),
# http://www.crystallography.net/
#
# All data on this site have been placed in the public domain by the
# contributors.
#
data_4518450
loop_
_publ_author_name
'Lu, Huangjie'
'Zheng, Zhaofa'
'Li, Zi-Jian'
'Bao, Hongliang'
'Guo, Xiaojing'
'Guo, Xiaofeng'
'Lin, Jian'
'Qian, Yuan'
'Wang, Jian-Qiang'
_publ_section_title
;
 Achieving UV and X-ray Dual Photochromism in a Metal-Organic Hybrid via
 Structural Modulation.
;
_journal_issue                   2
_journal_name_full               'ACS applied materials &amp; interfaces'
_journal_page_first              2745
_journal_page_last               2752
_journal_paper_doi               10.1021/acsami.0c20036
_journal_volume                  13
_journal_year                    2021
_chemical_formula_moiety         'C18 N3 O6 Tm'
_chemical_formula_sum            'C18 N3 O6 Tm'
_chemical_formula_weight         523.14
_chemical_melting_point          ?
_chemical_name_common
'Thulium 2,2':6',2''-terpyridine-4'-carboxyli'
_space_group_crystal_system      monoclinic
_space_group_IT_number           15
_space_group_name_Hall           '-C 2yc'
_space_group_name_H-M_alt        'C 1 2/c 1'
_audit_creation_method           SHELXL-2014
_cell_angle_alpha                90
_cell_angle_beta                 125.1770(10)
_cell_angle_gamma                90
_cell_formula_units_Z            4
_cell_length_a                   17.9171(6)
_cell_length_b                   9.4355(3)
_cell_length_c                   11.8787(4)
_cell_measurement_reflns_used    9913
_cell_measurement_temperature    293(2)
_cell_measurement_theta_max      55.068
_cell_measurement_theta_min      5.136
_cell_volume                     1641.43(10)
_computing_cell_refinement       'Bruker SAINT'
_computing_data_collection       'Bruker APEX2'
_computing_data_reduction        'Bruker SAINT'
_computing_molecular_graphics    'Bruker SHELXTL'
_computing_publication_material  'Bruker SHELXTL'
_computing_structure_refinement  'SHELXL-2014 (Sheldrick, 2014)'
_computing_structure_solution    'SHELXS-97 (Sheldrick 2008)'
_diffrn_ambient_temperature      293(2)
_diffrn_measured_fraction_theta_full 0.994
_diffrn_measured_fraction_theta_max 0.995
_diffrn_measurement_device_type  'Bruker APEX-II CCD'
_diffrn_measurement_method       '0.5 wide w/ exposures'
_diffrn_radiation_type           MoK\a
_diffrn_radiation_wavelength     0.71073
_diffrn_reflns_av_R_equivalents  0.0296
_diffrn_reflns_av_unetI/netI     0.0162
_diffrn_reflns_Laue_measured_fraction_full 0.994
_diffrn_reflns_Laue_measured_fraction_max 0.995
_diffrn_reflns_limit_h_max       23
_diffrn_reflns_limit_h_min       -23
_diffrn_reflns_limit_k_max       12
_diffrn_reflns_limit_k_min       -12
_diffrn_reflns_limit_l_max       15
_diffrn_reflns_limit_l_min       -14
_diffrn_reflns_number            15082
_diffrn_reflns_point_group_measured_fraction_full 0.994
_diffrn_reflns_point_group_measured_fraction_max 0.995
_diffrn_reflns_theta_full        25.242
_diffrn_reflns_theta_max         27.534
_diffrn_reflns_theta_min         2.568
_exptl_absorpt_coefficient_mu    5.449
_exptl_absorpt_correction_T_max  0.580
_exptl_absorpt_correction_T_min  0.432
_exptl_absorpt_correction_type   multi-scan
_exptl_absorpt_process_details   SHELTXPREP
_exptl_crystal_colour            colorless
_exptl_crystal_density_diffrn    2.117
_exptl_crystal_description       block
_exptl_crystal_F_000             984
_exptl_crystal_size_max          0.16
_exptl_crystal_size_mid          0.13
_exptl_crystal_size_min          0.10
_refine_diff_density_max         0.857
_refine_diff_density_min         -0.682
_refine_diff_density_rms         0.111
_refine_ls_extinction_method     none
_refine_ls_goodness_of_fit_ref   1.083
_refine_ls_hydrogen_treatment    undef
_refine_ls_matrix_type           full
_refine_ls_number_parameters     129
_refine_ls_number_reflns         1887
_refine_ls_number_restraints     0
_refine_ls_restrained_S_all      1.083
_refine_ls_R_factor_all          0.0188
_refine_ls_R_factor_gt           0.0184
_refine_ls_shift/su_max          0.000
_refine_ls_shift/su_mean         0.000
_refine_ls_structure_factor_coef Fsqd
_refine_ls_weighting_details
'w=1/[\s^2^(Fo^2^)+(0.0353P)^2^+4.0174P] where P=(Fo^2^+2Fc^2^)/3'
_refine_ls_weighting_scheme      calc
_refine_ls_wR_factor_gt          0.0543
_refine_ls_wR_factor_ref         0.0546
_reflns_Friedel_coverage         0.000
_reflns_number_gt                1852
_reflns_number_total             1887
_reflns_threshold_expression     'I > 2\s(I)'
_cod_data_source_file            am0c20036_si_002.cif
_cod_data_source_block           TmTPC-2beforeUV
_cod_depositor_comments
;
The following automatic conversions were performed:

data item '_chemical_melting_point' value 'N/a' was changed to '?' --
the value is undefined or not given.

Automatic conversion script
Id: cif_fix_values 7556 2019-12-06 15:28:31Z antanas 
;
_cod_original_sg_symbol_H-M      'C 2/c'
_cod_database_code               4518450
_shelx_space_group_comment
;
The symmetry employed for this shelxl refinement is uniquely defined
by the following loop, which should always be used as a source of
symmetry information in preference to the above space-group names.
They are only intended as comments.
;
_shelxl_version_number           2014-3
_shelx_res_file
;
TITL SAVE_a.res in C2/c
REM Old TITL SAVE in C2/c

REM SHELXT solution in C2/c
REM R1 0.092,  Rweak 0.007,  Alpha 0.041,  Orientation as input
REM Formula found by SHELXT:  C20 N2 O5 Tm

CELL  0.71073  17.9171   9.4355  11.8787   90.000  125.177   90.000
ZERR   4.000   0.0006   0.0003   0.0004    0.000    0.001    0.000
LATT  7
SYMM -X, Y, 1/2-Z
SFAC C N O TM
UNIT 72 12 24 4
L.S. 10
BOND $H
LIST 6
acta
FMAP 2
PLAN 20
WGHT    0.035300    4.017400
FVAR       0.28757
TM1   4    0.500000   -0.160013    0.750000    10.50000    0.02782    0.00835 =
         0.02862    0.00000    0.02003    0.00000
N1    2    0.500000    0.577270    0.750000    10.50000    0.02299    0.01012 =
         0.02246    0.00000    0.01511    0.00000
N2    2    0.589811    0.734425    0.677708    11.00000    0.02856    0.01443 =
         0.03455    0.00055    0.02302    0.00003
O1    3    0.483850    0.060910    0.826936    11.00000    0.05790    0.01199 =
         0.04622   -0.00130    0.04048   -0.00040
O2    3    0.397138   -0.227116    0.514242    11.00000    0.04565    0.04033 =
         0.04274   -0.00767    0.01898    0.00537
O3    3    0.338284   -0.079394    0.582847    11.00000    0.04664    0.05150 =
         0.05375    0.00191    0.02973    0.01252
C1    1    0.545125    0.505197    0.708739    11.00000    0.02351    0.01062 =
         0.02365    0.00003    0.01341    0.00092
C2    1    0.500000    0.124875    0.750000    10.50000    0.03319    0.01499 =
         0.03398    0.00000    0.02039    0.00000
C3    1    0.500000    0.284652    0.750000    10.50000    0.02724    0.01117 =
         0.02756    0.00000    0.01631    0.00000
C4    1    0.595873    0.592789    0.669113    11.00000    0.02260    0.01374 =
         0.02368    0.00016    0.01352   -0.00075
C5    1    0.544874    0.357402    0.703766    11.00000    0.02945    0.01211 =
         0.03056   -0.00113    0.01970    0.00031
C6    1    0.335092   -0.156627    0.494999    11.00000    0.03591    0.02825 =
         0.03079    0.00047    0.01734    0.00239
C7    1    0.634337    0.819499    0.642979    11.00000    0.03947    0.01645 =
         0.04938    0.00245    0.03348   -0.00367
C8    1    0.647766    0.533397    0.628793    11.00000    0.03410    0.02148 =
         0.03480   -0.00105    0.02468    0.00306
C9    1    0.695190    0.621209    0.596407    11.00000    0.03799    0.02979 =
         0.04349    0.00272    0.03120    0.00368
C10   1    0.687737    0.767189    0.602075    11.00000    0.04092    0.02731 =
         0.04849    0.00424    0.03477    0.00042

HKLF 4

REM  SAVE_a.res in C2/c
REM R1 =  0.0184 for    1852 Fo > 4sig(Fo)  and  0.0188 for all    1887 data
REM    129 parameters refined using      0 restraints

END

WGHT      0.0279      3.8123

REM Highest difference peak  0.857,  deepest hole -0.682,  1-sigma level  0.111
Q1    1   0.6548  0.4370  0.6251  11.00000  0.05    0.86
Q2    1   0.5713  0.3050  0.6695  11.00000  0.05    0.79
Q3    1   0.6212  0.9187  0.6471  11.00000  0.05    0.78
Q4    1   0.2704 -0.1473  0.3965  11.00000  0.05    0.73
Q5    1   0.7324  0.5781  0.5654  11.00000  0.05    0.72
Q6    1   0.7232  0.8290  0.5862  11.00000  0.05    0.67
Q7    1   0.5000  0.2143  0.7500  10.50000  0.05    0.54
Q8    1   0.4314  0.0558  0.7391  11.00000  0.05    0.42
Q9    1   0.6119  0.7622  0.6597  11.00000  0.05    0.41
Q10   1   0.5316  0.3216  0.7324  11.00000  0.05    0.40
Q11   1   0.5000  0.6512  0.7500  10.50000  0.05    0.39
Q12   1   0.6806  0.6993  0.5810  11.00000  0.05    0.36
Q13   1   0.5486  0.4314  0.7138  11.00000  0.05    0.36
Q14   1   0.3796 -0.1600  0.5458  11.00000  0.05    0.35
Q15   1   0.5396 -0.0587  0.8514  11.00000  0.05    0.31
Q16   1   0.4898  0.5447  0.7888  11.00000  0.05    0.30
Q17   1   0.5406 -0.2797  0.8278  11.00000  0.05    0.29
Q18   1   0.5773 -0.1193  0.8605  11.00000  0.05    0.29
Q19   1   0.4012 -0.2409  0.6077  11.00000  0.05    0.27
Q20   1   0.6000  0.6675  0.6729  11.00000  0.05    0.26
;
_shelx_res_checksum              84950
_shelx_hkl_file
;
   4   0   0 2516.25   76.89
   4   0   0 2264.07   75.89
   4   0   0 2477.65   75.99
  -4   0   0 2571.84   75.89
  -4   0   0 2458.95   76.29
  -4   0   0 2404.46   76.59
  -8   0   0 3203.38   96.39
  -8   0   0 3052.89   94.69
   8   0   0 2685.73   94.69
  -8   0   0 2923.91   96.19
   8   0   0 2905.11   94.89
   8   0   0 3108.99   97.39
 -10   0   0 2903.41   91.09
  10   0   0 2760.52   91.99
  10   0   0 2597.44   88.89
  10   0   0 2703.13   89.59
 -10   0   0 2697.13   88.39
 -10   0   0 2664.23   90.39
  12   0   0 1921.61   71.39
  12   0   0 1840.72   67.29
 -12   0   0 2199.98   71.99
  12   0   0 1987.60   69.29
 -12   0   0 1852.11   69.59
  12   0   0 1957.40   68.59
 -12   0   0 2018.20   67.79
  14   0   0  686.93   31.70
  14   0   0  676.43   30.90
 -14   0   0  675.73   32.00
  16   0   0  395.46   23.90
  16   0   0  361.66   22.20
 -16   0   0  374.76   23.80
  18   0   0  387.06   25.60
 -18   0   0  346.27   23.80
  18   0   0  339.17   23.60
  -1  -1   0  903.71   27.90
  -1  -1   0  887.81   27.60
   1  -1   0  917.21   28.20
   1  -1   0  905.81   28.50
   1  -1   0  926.91   27.70
  -1   1   0  787.62   28.00
  -1   1   0  815.92   27.90
   1   1   0  894.61   27.60
  -1   1   0  914.51   28.70
   1   1   0  873.61   27.90
   3  -1   0  818.92   31.70
  -3  -1   0  999.90   31.40
   3  -1   0 1042.90   32.70
   3  -1   0 1015.30   31.70
  -3  -1   0  970.00   30.70
   3   1   0  966.10   31.30
   3   1   0  973.00   31.80
  -3   1   0  951.50   31.50
  -3   1   0  968.70   32.10
  -3   1   0  967.00   31.10
  -3   1   0  996.70   32.60
   3   1   0  954.80   30.60
   5  -1   0 2010.90   64.79
   5  -1   0 1802.62   65.29
  -5  -1   0 2130.19   64.89
  -5  -1   0 2099.39   64.59
  -5  -1   0 2019.70   65.49
   5  -1   0 2053.29   64.89
   5  -1   0 2094.69   66.69
   5   1   0 2050.89   64.19
  -5   1   0 2112.49   65.99
  -5   1   0 2064.49   64.49
   5   1   0 2078.99   65.89
  -5   1   0 2027.40   66.29
   5   1   0 2029.20   64.79
   7  -1   0 1889.81   70.69
   7  -1   0 2232.58   70.39
  -7  -1   0 2207.28   70.19
   7  -1   0 2161.88   70.39
   7  -1   0 2253.17   72.69
  -7  -1   0 2232.08   70.49
  -7  -1   0 2105.69   70.99
   7   1   0 2053.59   69.99
   7   1   0 2314.97   69.99
   7   1   0 2076.69   71.49
  -7   1   0 2250.97   69.99
  -7   1   0 2188.28   72.09
  -7   1   0 2305.67   71.99
  -9  -1   0  783.72   29.20
   9  -1   0  729.43   29.00
   9  -1   0  776.62   31.80
  -9  -1   0  784.32   29.90
   9  -1   0  718.93   30.10
  -9  -1   0  738.63   30.10
  -9   1   0  762.92   31.10
   9   1   0  737.63   29.20
  -9   1   0  805.22   31.20
   9   1   0  725.73   30.80
   9   1   0  721.83   28.60
  -9   1   0  783.52   28.90
  11  -1   0  634.14   27.10
  11  -1   0  676.93   30.50
 -11  -1   0  692.03   28.80
  11  -1   0  615.84   28.20
 -11  -1   0  619.04   28.20
  11  -1   0  594.94   27.00
 -11  -1   0  639.54   27.00
 -11   1   0  611.34   28.40
  11   1   0  649.14   27.10
 -11   1   0  739.03   30.60
  11   1   0  652.73   30.00
  11   1   0  618.04   27.20
 -11   1   0  667.63   26.90
 -13  -1   0  519.55   26.20
 -13  -1   0  443.96   24.10
  13  -1   0  496.25   27.70
  13  -1   0  512.15   25.60
  13  -1   0  480.55   24.00
  13  -1   0  483.85   23.90
 -13   1   0  497.05   25.60
  13   1   0  485.55   24.10
  13   1   0  486.35   23.70
  15  -1   0  169.38   14.90
 -15  -1   0  160.48   14.80
  15  -1   0  166.58   14.40
  15   1   0  170.38   14.30
 -15   1   0  153.58   14.40
  15   1   0  187.38   14.50
  17  -1   0  155.38   15.80
 -17  -1   0  142.59   15.70
  17  -1   0  147.39   16.00
  17   1   0  178.88   16.10
  17   1   0  169.38   15.60
 -17   1   0  133.99   14.90
   0  -2   0 1524.75   49.90
   0  -2   0 1535.55   48.00
   0  -2   0 1560.54   48.70
   0   2   0 1607.94   48.10
   0   2   0 1538.55   49.99
   0   2   0 1628.74   48.80
   2  -2   0  313.57   12.30
   2  -2   0  338.07   13.30
  -2  -2   0  327.57   12.30
   2  -2   0  343.67   13.80
  -2  -2   0  319.97   12.60
  -2   2   0  326.27   14.00
  -2   2   0  325.47   12.80
  -2   2   0  332.97   13.20
  -2   2   0  323.97   12.30
   2   2   0  325.87   12.30
  -4  -2   0   60.49    4.30
   4  -2   0   61.09    4.40
  -4  -2   0   60.59    3.50
   4  -2   0   71.19    4.90
   4  -2   0   64.99    5.40
   4  -2   0   48.20    4.50
   4   2   0   61.99    4.20
  -4   2   0   57.39    5.30
  -4   2   0   54.59    4.10
  -4   2   0   49.20    4.20
  -4   2   0   56.69    4.80
   4   2   0   62.69    4.50
   4   2   0   66.59    4.80
   6  -2   0   40.80    4.20
   6  -2   0   38.50    4.30
  -6  -2   0   39.90    4.20
  -6  -2   0   28.80    3.20
   6  -2   0   28.40    4.70
   6  -2   0   48.70    5.40
  -6  -2   0   37.20    4.30
   6   2   0   45.00    4.20
  -6   2   0   34.80    5.20
  -6   2   0   37.70    3.90
   6   2   0   34.50    3.20
  -6   2   0   22.00    3.50
   6   2   0   24.00    3.90
  -6   2   0   37.80    4.60
   8  -2   0  347.57   16.40
  -8  -2   0  357.96   17.00
   8  -2   0  326.97   16.20
  -8  -2   0  361.96   16.00
   8  -2   0  309.07   17.00
  -8  -2   0  386.06   16.50
   8  -2   0  375.76   18.50
  -8   2   0  368.86   16.00
   8   2   0  338.07   15.10
  -8   2   0  367.66   18.10
   8   2   0  347.17   16.10
  -8   2   0  349.67   18.00
   8   2   0  356.76   17.60
 -10  -2   0 1103.49   39.90
 -10  -2   0 1038.60   40.80
  10  -2   0  986.90   41.40
  10  -2   0 1109.79   43.40
  10  -2   0 1024.60   40.20
  10  -2   0 1067.39   40.30
 -10  -2   0 1086.29   40.10
  10   2   0 1072.09   38.90
  10   2   0 1065.39   40.10
 -10   2   0 1060.69   42.30
 -10   2   0 1217.98   43.60
 -10   2   0 1095.39   39.50
  10   2   0 1111.69   42.70
 -12  -2   0  330.17   18.30
  12  -2   0  315.47   20.60
 -12  -2   0  303.07   17.30
 -12  -2   0  306.97   17.90
  12  -2   0  287.37   17.30
  12  -2   0  322.47   17.90
  12  -2   0  301.27   18.50
 -12   2   0  302.77   18.80
 -12   2   0  325.77   19.80
  12   2   0  314.27   16.50
 -12   2   0  303.57   16.80
  12   2   0  305.77   19.70
  12   2   0  286.47   16.90
 -14  -2   0   93.19   12.80
  14  -2   0   75.89   10.50
 -14  -2   0   96.29   10.60
  14  -2   0   83.49   10.80
  14   2   0   73.69    9.00
 -14   2   0   79.49   11.70
  14   2   0   92.99   10.20
  16  -2   0  127.79   13.20
  16  -2   0  126.59   14.30
 -16  -2   0  127.09   13.90
  16   2   0  112.99   12.40
 -16   2   0  121.39   13.50
  18  -2   0   36.80   10.70
 -18  -2   0   40.70   10.20
  18  -2   0   31.20   10.00
 -18   2   0   30.10    9.40
  18   2   0   29.80    8.80
   1  -3   0 5983.60  179.48
  -1  -3   0 5715.13  177.48
  -1   3   0 5848.81  179.98
   3  -3   0 1551.04   51.19
   3  -3   0 1570.04   51.99
   3  -3   0 1489.25   49.60
   3  -3   0 1283.37   49.60
  -3  -3   0 1569.64   49.60
  -3  -3   0 1594.74   50.49
   3   3   0 1519.05   50.49
  -3   3   0 1652.03   50.59
  -3   3   0 1505.55   49.40
  -3   3   0 1535.85   52.69
  -3   3   0 1572.44   51.39
   3   3   0 1490.35   49.40
  -5  -3   0 2764.72   90.19
  -5  -3   0 3030.60   92.79
   5  -3   0 2894.91   92.99
   5  -3   0 2968.80   95.49
   5  -3   0 2977.40   93.89
  -5   3   0 3120.49   94.69
  -5   3   0 2825.32   92.29
   5   3   0 2848.01   92.49
   5   3   0 2960.10   93.49
   5   3   0 2945.61   93.79
  -5   3   0 2994.20   96.09
  -5   3   0 3007.30   94.29
   7  -3   0 3759.82  122.79
   7  -3   0 4083.69  125.89
  -7  -3   0 3805.92  120.49
  -7  -3   0 3881.51  122.29
   7  -3   0 4070.19  123.69
   7  -3   0 3356.16  123.49
  -7   3   0 3880.51  121.89
  -7   3   0 3968.90  123.69
  -7   3   0 3844.02  125.79
  -7   3   0 4251.97  125.29
   7   3   0 3871.51  122.89
   7   3   0 3838.62  122.29
   7   3   0 4087.39  124.49
   9  -3   0 1661.13   55.89
  -9  -3   0 1598.84   54.69
   9  -3   0 1595.84   58.29
  -9  -3   0 1632.84   53.89
   9  -3   0 1438.56   56.39
   9  -3   0 1501.95   54.99
   9   3   0 1508.45   54.29
   9   3   0 1517.35   54.99
  -9   3   0 1565.94   57.89
  -9   3   0 1546.25   53.99
  -9   3   0 1731.53   57.89
   9   3   0 1670.03   57.49
 -11  -3   0 1055.79   39.60
  11  -3   0 1052.99   43.70
  11  -3   0  896.71   40.80
 -11  -3   0 1134.19   39.80
  11  -3   0 1027.00   40.30
  11  -3   0  975.20   39.90
  11   3   0 1053.49   42.50
  11   3   0  982.60   39.20
 -11   3   0 1062.09   42.10
 -11   3   0 1038.10   38.90
 -11   3   0  977.50   42.00
  11   3   0 1028.10   40.00
 -13  -3   0 1149.78   42.90
  13  -3   0  980.90   42.00
  13  -3   0  977.50   43.40
 -13   3   0 1013.00   44.30
  13   3   0 1033.10   41.40
  13   3   0 1015.00   41.60
  15  -3   0  567.84   29.60
  15  -3   0  565.84   31.10
  15   3   0  606.54   29.30
  15   3   0  547.75   28.20
 -15   3   0  577.54   31.30
  17  -3   0  381.36   24.60
  17  -3   0  388.36   26.20
  17   3   0  344.07   23.00
  17   3   0  365.96   23.70
 -17   3   0  367.26   25.80
   0  -4   0 1380.26   45.10
   0  -4   0 1418.06   46.40
   0  -4   0 1459.25   47.50
   0  -4   0 1431.06   48.80
   0   4   0 1367.26   49.10
   0   4   0 1443.76   45.20
  -2  -4   0  984.90   34.00
   2  -4   0 1023.80   34.10
   2  -4   0 1007.20   36.30
   2  -4   0  908.11   33.40
  -2  -4   0  995.90   35.20
  -2  -4   0  968.10   30.60
   2   4   0  933.31   35.40
   2   4   0  961.40   34.00
  -2   4   0  961.60   36.10
  -2   4   0 1029.50   37.60
  -2   4   0  969.10   33.80
  -2   4   0  998.80   33.70
   4  -4   0 2216.38   72.29
  -4  -4   0 2219.58   71.99
  -4  -4   0 2264.27   72.99
  -4  -4   0 2198.58   68.39
   4  -4   0 2323.77   75.09
   4  -4   0 2002.70   72.29
   4  -4   0 2437.06   74.89
   4   4   0 2212.88   73.29
   4   4   0 2188.98   71.89
  -4   4   0 2447.16   73.39
  -4   4   0 2132.29   73.89
  -4   4   0 2295.77   72.09
  -4   4   0 2123.39   75.79
   6  -4   0 1988.50   67.59
  -6  -4   0 2001.70   67.09
  -6  -4   0 1996.80   63.99
   6  -4   0 1846.42   68.09
   6  -4   0 2074.29   70.39
   6  -4   0 2096.29   69.09
  -6   4   0 1993.20   71.29
  -6   4   0 2232.58   69.19
  -6   4   0 2057.09   66.99
   6   4   0 2132.99   69.09
  -6   4   0 1988.80   69.09
   6   4   0 2059.39   68.39
   6   4   0 2083.99   67.29
  -8  -4   0  804.72   30.50
   8  -4   0  764.82   31.30
  -8  -4   0  772.42   27.90
   8  -4   0  760.92   32.00
   8  -4   0  755.82   30.80
   8  -4   0  795.42   33.70
  -8   4   0  776.42   31.60
   8   4   0  752.62   30.90
   8   4   0  743.63   29.80
   8   4   0  798.42   32.20
  -8   4   0  747.63   33.60
  -8   4   0  768.62   29.70
  -8   4   0  777.02   31.70
  10  -4   0  521.85   27.60
 -10  -4   0  558.94   22.90
  10  -4   0  515.55   24.90
  10  -4   0  555.14   25.70
 -10  -4   0  564.14   24.80
  10  -4   0  546.65   26.50
 -10   4   0  558.84   28.00
  10   4   0  508.55   24.70
 -10   4   0  539.45   23.80
  10   4   0  561.84   26.80
  10   4   0  499.75   23.60
 -10   4   0  607.64   26.90
  12  -4   0  470.85   25.60
 -12  -4   0  520.75   23.50
  12  -4   0  463.55   26.90
  12  -4   0  462.05   24.30
  12   4   0  474.65   23.50
 -12   4   0  473.55   26.80
  12   4   0  471.65   24.20
  14  -4   0  318.67   20.70
  14  -4   0  314.57   21.50
 -14  -4   0  333.87   19.90
  14   4   0  325.57   20.20
  14   4   0  302.67   19.20
 -14   4   0  277.17   20.90
  16  -4   0  240.78   20.20
  16  -4   0  234.58   19.10
  16   4   0  190.08   16.80
 -16   4   0  187.88   19.00
  16   4   0  211.98   17.40
  18  -4   0  160.38   31.30
 -18   4   0  139.69   18.70
  -1  -5   0  233.98   13.40
   1  -5   0  251.77   12.10
  -1  -5   0  254.17   11.80
   1  -5   0  248.98   14.10
   1  -5   0  248.98   11.20
  -1  -5   0  245.28    9.90
  -1  -5   0  250.27   12.60
   1   5   0  258.87   10.30
  -1   5   0  235.98   14.00
  -1   5   0  240.48   11.20
  -1   5   0  237.58   14.50
  -1   5   0  266.87   12.50
   1   5   0  251.77   14.10
  -3  -5   0   19.10    1.80
  -3  -5   0   23.40    4.40
   3  -5   0   15.90    4.10
   3  -5   0   23.00    4.00
  -3  -5   0   19.40    4.10
   3  -5   0   22.00    3.80
  -3   5   0   19.40    3.70
  -3   5   0   25.30    3.90
   3   5   0   22.20    4.00
  -3   5   0   23.60    4.80
  -3   5   0   22.30    5.20
   3   5   0   19.20    4.30
  -5  -5   0   93.39    7.90
  -5  -5   0   95.09    7.50
   5  -5   0  103.29    8.90
  -5  -5   0   86.39    4.50
   5  -5   0   75.39    7.00
  -5  -5   0   83.49    4.60
   5  -5   0  103.19    8.00
   5  -5   0   99.79    9.20
  -5   5   0   81.39    9.10
   5   5   0   73.99    6.70
  -5   5   0   83.89    7.20
   5   5   0   97.29    8.20
  -5   5   0  101.69    8.80
  -5   5   0   80.49    7.20
   7  -5   0   73.29    7.60
   7  -5   0   85.29    9.70
   7  -5   0   75.99    8.80
  -7  -5   0   75.19    5.10
   7  -5   0   78.89    7.70
  -7  -5   0   80.49    7.80
  -7   5   0   71.29    7.30
  -7   5   0   84.49    8.70
   7   5   0   88.89    7.40
  -7   5   0   72.99    9.10
   7   5   0   83.49    8.90
  -7   5   0   76.39    7.90
   7   5   0   62.59    7.30
   9  -5   0  378.06   20.30
   9  -5   0  436.96   21.90
  -9  -5   0  396.46   16.80
   9  -5   0  387.26   21.30
   9  -5   0  395.46   22.80
  -9  -5   0  386.06   19.80
  -9   5   0  396.26   19.60
  -9   5   0  389.56   23.20
   9   5   0  428.96   21.30
   9   5   0  373.16   19.20
   9   5   0  426.26   22.20
  -9   5   0  387.26   21.20
  -9   5   0  428.36   21.50
 -11  -5   0  223.08   12.90
  11  -5   0  219.18   15.70
  11  -5   0  235.98   16.40
  11  -5   0  215.78   18.40
 -11   5   0  216.08   17.60
  11   5   0  209.88   15.20
 -11   5   0  211.68   15.30
  11   5   0  213.18   14.30
 -11   5   0  258.07   17.30
 -13  -5   0   19.00    6.40
  13  -5   0   23.80    7.40
  13  -5   0   16.40    5.90
  13   5   0   19.80    6.60
 -13   5   0   18.60    7.70
  13   5   0   19.60    5.90
  15  -5   0   51.49   10.30
 -15  -5   0   71.69   10.50
  15  -5   0   56.19   11.10
 -15   5   0   49.70   11.60
  15   5   0   65.59   11.00
  15   5   0   47.70    9.10
  17  -5   0   20.40    9.90
  17  -5   0   26.70    9.50
 -17   5   0   22.00   11.50
  17   5   0   15.40    7.80
  17   5   0   15.60    8.30
   0  -6   0 1280.17   44.80
   0  -6   0 1326.97   48.40
   0  -6   0 1251.77   42.50
   0  -6   0 1271.17   46.00
   0   6   0 1297.47   49.40
   0   6   0 1321.87   43.20
   0   6   0 1322.87   49.00
  -2  -6   0 2168.08   72.19
  -2  -6   0 2204.78   70.79
   2  -6   0 2173.98   71.49
   2  -6   0 2107.09   69.99
  -2  -6   0 2207.28   74.09
  -2  -6   0 2171.18   67.09
   2  -6   0 2212.58   74.99
  -2   6   0 2047.70   74.99
  -2   6   0 2227.38   71.89
   2   6   0 2158.48   74.89
  -2   6   0 2112.79   76.99
  -2   6   0 2202.08   70.69
  -4  -6   0 2562.04   85.39
   4  -6   0 2617.64   83.79
  -4  -6   0 2474.15   77.09
   4  -6   0 2669.13   87.39
  -4  -6   0 2538.35   83.69
   4  -6   0 2514.55   83.09
  -4   6   0 2512.15   86.79
   4   6   0 2470.95   83.59
  -4   6   0 2558.34   83.39
  -4   6   0 2486.25   89.59
  -4   6   0 2659.73   83.69
   4   6   0 2473.15   86.19
   6  -6   0 2047.80   70.09
   6  -6   0 2169.28   73.49
   6  -6   0 2025.80   70.09
  -6  -6   0 2122.09   63.49
  -6  -6   0 2082.09   63.59
  -6  -6   0 2060.39   71.29
   6  -6   0 2076.99   72.79
  -6  -6   0 1995.80   69.59
  -6   6   0 1930.41   75.49
   6   6   0 2000.80   71.79
  -6   6   0 2088.09   73.19
  -6   6   0 2113.39   70.39
   6   6   0 2026.60   69.69
  -6   6   0 2049.09   69.49
   6   6   0 2096.39   71.69
   8  -6   0 1242.78   48.80
   8  -6   0 1211.68   46.70
   8  -6   0 1217.48   49.40
  -8  -6   0 1240.08   46.30
  -8  -6   0 1275.47   40.60
   8  -6   0 1271.77   47.40
  -8   6   0 1310.77   47.50
  -8   6   0 1200.08   51.49
   8   6   0 1207.68   48.20
  -8   6   0 1236.68   48.80
  -8   6   0 1230.78   45.70
   8   6   0 1177.88   45.40
   8   6   0 1225.28   47.80
  10  -6   0  314.87   18.70
  10  -6   0  264.47   17.70
  10  -6   0  268.07   20.70
 -10  -6   0  304.97   13.80
  10   6   0  289.97   18.50
  10   6   0  287.87   16.80
 -10   6   0  262.87   20.40
 -10   6   0  263.57   16.80
 -10   6   0  286.27   19.00
  12  -6   0  304.97   20.10
 -12  -6   0  341.47   16.30
  12  -6   0  282.97   19.50
 -12   6   0  277.47   21.80
 -12   6   0  283.07   19.70
  12   6   0  311.37   19.80
  12   6   0  301.67   18.30
 -14  -6   0  554.44   24.60
  14  -6   0  519.85   29.80
  14  -6   0  599.34   31.20
 -14   6   0  518.95   32.60
  14   6   0  490.95   28.40
  14   6   0  521.85   27.60
  16  -6   0  446.06   28.20
  16  -6   0  427.06   28.10
  16   6   0  378.86   24.30
  16   6   0  401.66   26.80
 -16   6   0  403.86   30.20
  -1  -7   0  728.53   30.40
   1  -7   0  756.42   29.40
  -1  -7   0  755.22   25.70
   1  -7   0  787.42   27.30
  -1  -7   0  758.72   32.50
   1  -7   0  738.33   30.70
  -1  -7   0  693.93   28.60
   1  -7   0  748.63   32.90
  -1   7   0  717.53   34.30
  -1   7   0  736.33   28.00
  -1   7   0  714.43   33.20
   1   7   0  737.33   33.30
   1   7   0  764.92   26.50
  -3  -7   0 1264.37   47.40
   3  -7   0 1193.78   43.00
   3  -7   0 1220.48   44.70
   3  -7   0 1332.27   48.90
  -3  -7   0 1250.17   45.60
  -3  -7   0 1169.28   43.50
  -3  -7   0 1216.48   38.60
  -3   7   0 1274.97   44.20
   3   7   0 1161.38   47.70
  -3   7   0 1228.58   48.70
  -3   7   0 1185.58   50.59
  -3   7   0 1244.28   45.10
  -5  -7   0  771.32   32.80
   5  -7   0  846.12   32.30
   5  -7   0  819.92   36.00
  -5  -7   0  819.22   34.80
   5  -7   0  808.72   32.90
  -5   7   0  827.92   32.80
  -5   7   0  800.42   36.20
  -5   7   0  863.81   33.00
   5   7   0  820.92   33.20
   5   7   0  772.42   35.30
  -5   7   0  804.82   39.00
   7  -7   0 1050.69   39.70
   7  -7   0 1015.40   42.50
   7  -7   0  956.40   39.50
  -7   7   0 1029.90   39.40
  -7   7   0  907.81   44.70
   7   7   0  997.50   39.10
   7   7   0  954.80   41.40
  -7   7   0  983.50   42.30
  -7   7   0 1047.40   39.90
  -9  -7   0 1130.19   35.50
   9  -7   0  980.20   43.10
   9  -7   0 1188.08   44.50
  -9  -7   0 1017.50   35.20
  -9   7   0 1068.49   45.90
   9   7   0 1106.09   42.60
  -9   7   0 1058.09   49.10
  -9   7   0 1076.69   42.90
   9   7   0 1080.09   45.10
  11  -7   0  980.00   41.00
 -11  -7   0  933.31   31.90
  11  -7   0  866.21   39.80
 -11   7   0  886.51   44.90
  11   7   0  908.01   40.70
  11   7   0  914.21   38.30
 -11   7   0  876.71   41.70
  13  -7   0  673.23   34.60
  13  -7   0  761.72   36.00
 -13  -7   0  713.03   27.20
 -13   7   0  652.63   38.40
  13   7   0  700.63   35.70
  13   7   0  678.43   32.60
  15  -7   0  279.17   22.00
  15  -7   0  260.27   21.80
  15   7   0  260.57   21.60
  15   7   0  239.78   19.10
 -15   7   0  253.67   24.80
   0  -8   0   39.60    7.40
   0  -8   0   41.70    6.50
   0  -8   0   49.80    4.60
   0   8   0   43.50    8.70
   0   8   0   47.20    5.60
   0   8   0   49.20    8.70
  -2  -8   0   92.09    8.20
  -2  -8   0   87.49   14.50
   2  -8   0   94.49    7.10
   2  -8   0   94.49    8.60
  -2  -8   0   95.19    5.20
   2   8   0   95.99   11.50
  -2   8   0   75.99    7.80
  -2   8   0   86.59   10.50
  -2   8   0   94.59   13.70
   4  -8   0   62.39    6.60
   4  -8   0   63.49    7.80
  -4  -8   0   66.19    7.20
   4   8   0   54.79    9.30
  -4   8   0   66.89    7.90
  -4   8   0   51.29    9.60
  -4   8   0   39.30    9.40
  -4   8   0   64.59    8.80
   6  -8   0  219.88   15.00
   6  -8   0  224.88   14.00
  -6   8   0  264.47   18.10
   6   8   0  236.18   17.80
  -6   8   0  217.48   15.00
  -6   8   0  214.58   18.80
   6   8   0  236.18   15.30
  -6   8   0  221.68   15.60
   8  -8   0  312.07   17.80
   8  -8   0  282.07   18.10
  -8   8   0  270.87   20.30
  -8   8   0  265.77   22.60
   8   8   0  276.57   17.40
   8   8   0  280.57   20.30
  10  -8   0   18.90    6.30
  10  -8   0   13.80    5.40
  10   8   0   13.30    6.10
 -10   8   0   -3.10    5.90
  10   8   0   16.40    5.80
 -10   8   0   14.20    9.00
  12  -8   0   69.59   11.70
  12  -8   0   56.09   10.40
 -12   8   0   70.29   13.30
  12   8   0   75.69   13.00
 -12   8   0   54.99   13.00
  12   8   0   62.09   10.00
  14  -8   0   80.09   13.90
  14  -8   0   67.29   12.50
 -14   8   0   64.89   14.80
  14   8   0   72.09   13.60
  14   8   0   58.09   10.50
  -1  -9   0 2239.08   76.09
   1  -9   0 2253.77   76.39
   1  -9   0 2237.68   71.89
  -1  -9   0 2250.47   69.99
  -1   9   0 2166.98   82.49
  -1   9   0 2270.47   85.99
   1   9   0 2177.18   82.29
   1   9   0 2307.37   84.79
  -1   9   0 2141.49   73.59
   3  -9   0 1567.04   51.89
  -3  -9   0 1488.05   53.89
   3  -9   0 1490.55   54.69
  -3   9   0 1454.85   62.89
  -3   9   0 1545.95   60.89
  -3   9   0 1475.95   53.39
   3   9   0 1384.76   59.49
   5  -9   0 1379.96   47.70
  -5  -9   0 1232.48   47.60
   5  -9   0 1285.27   49.50
  -5   9   0 1284.17   54.49
  -5   9   0 1265.57   57.99
  -5   9   0 1268.27   48.60
  -5   9   0 1301.97   50.09
   5   9   0 1262.67   53.89
   7  -9   0 1031.50   42.20
   7  -9   0 1128.49   41.30
  -7  -9   0  990.90   40.00
  -7   9   0  962.20   49.30
  -7   9   0 1002.00   46.10
   7   9   0  939.51   45.10
   9  -9   0  776.52   33.50
   9  -9   0  714.83   34.60
  -9   9   0  710.53   40.90
  -9   9   0  724.33   38.10
   9   9   0  700.53   33.50
   9   9   0  710.43   37.60
  11  -9   0  531.45   30.30
  11  -9   0  591.74   29.30
  11   9   0  511.45   28.40
  11   9   0  589.24   32.70
 -11   9   0  506.55   31.60
 -11   9   0  504.55   35.50
   0 -10   0 1100.99   43.70
   0 -10   0 1134.89   38.00
   0  10   0 1166.18   53.69
   0  10   0 1050.49   49.50
   2 -10   0  923.21   32.90
   2 -10   0  907.21   37.20
  -2 -10   0  863.61   36.20
  -2  10   0  909.61   43.10
  -2  10   0  930.91   46.40
   2  10   0  842.22   43.40
   2  10   0  875.01   42.50
  -2  10   0  818.82   34.60
   4 -10   0  849.52   36.00
   4 -10   0  857.41   32.40
  -4 -10   0  847.92   34.90
  -4  10   0  751.52   42.90
   4  10   0  760.12   40.00
  -4  10   0  817.82   34.60
  -4  10   0  776.02   39.80
   6 -10   0  906.31   35.10
   6 -10   0  853.11   37.40
  -6 -10   0  806.22   35.30
   6  10   0  802.72   41.50
  -6  10   0  848.02   42.10
  -6  10   0  789.02   44.50
   8 -10   0  519.75   27.70
  -8 -10   0  467.85   24.90
   8 -10   0  521.15   25.50
   8  10   0  482.25   30.60
  -8  10   0  472.45   34.30
  -8  10   0  509.95   31.10
  10 -10   0  327.77   23.30
  10 -10   0  360.76   21.80
  10  10   0  337.17   26.70
 -10  10   0  405.06   31.60
 -10  10   0  353.86   27.00
  -1 -11   0    0.30    2.40
   1 -11   0   15.10    5.70
  -1 -11   0    3.70    5.50
   1  11   0   16.60    8.70
  -1  11   0    0.60    9.70
  -1  11   0    8.70    8.40
   1  11   0   11.70    9.30
  -3 -11   0    6.00    5.40
   3 -11   0   24.10    7.10
   3 -11   0   16.20    4.40
   3  11   0    7.40    8.20
   3  11   0   18.90   10.30
  -3  11   0   34.90   13.00
  -3  11   0   36.30   10.40
  -5 -11   0   -4.80    4.90
   5 -11   0    0.00    4.00
   5 -11   0    2.70    6.00
  -5  11   0   -4.20    6.90
   5  11   0    7.10    7.50
  -5  11   0    4.60   10.20
   7 -11   0   11.30    5.50
  -7 -11   0    8.40    6.30
   7 -11   0   12.50    7.20
  -7  11   0   -0.80    9.20
   7  11   0   14.90   10.30
  -7  11   0   -5.00   10.40
   0 -12   0  870.91   29.50
   0 -12   0  823.02   37.60
   0  12   0  843.92   45.20
   0  12   0  834.52   48.60
   2 -12   0  748.83   34.70
   2 -12   0  774.82   28.50
  -2 -12   0  734.93   34.20
   2  12   0  712.73   41.80
  -2  12   0  624.14   42.80
  -2  12   0  684.63   40.00
   2  12   0  708.73   44.30
 -18   0   1   -0.10    5.80
  18   0  -1   -0.80    5.80
  18   0  -1    1.50    6.20
  16   0  -1   -5.90    4.00
  16   0  -1   -0.10    4.70
 -16   0   1    0.00    4.50
  14   0  -1   -1.10    3.60
  14   0  -1    1.00    4.60
  14   0  -1   -1.30    3.30
 -14   0   1    4.60    5.30
 -14   0   1    0.50    4.10
  12   0  -1   -1.20    3.20
  12   0  -1    0.00    2.50
  12   0  -1    6.20    5.20
 -12   0   1   -1.40    3.00
 -12   0   1    0.50    3.20
 -12   0   1    6.60    3.40
  12   0  -1    1.80    2.50
  10   0  -1    2.00    2.30
  10   0  -1    2.60    2.40
  10   0  -1    4.00    3.80
 -10   0   1    2.00    2.70
 -10   0   1    3.70    2.30
 -10   0   1    4.20    2.50
   8   0  -1    4.40    2.70
  -8   0   1    9.20    2.80
   8   0  -1    6.10    2.10
  -8   0   1    2.90    1.60
   8   0  -1    4.20    2.10
  -8   0   1    4.40    1.90
   6   0  -1    7.30    1.90
   6   0  -1    3.30    1.90
  -6   0   1   10.60    2.20
  -6   0   1    6.70    2.10
   6   0  -1    5.10    1.60
  -4   0   1    3.80    1.00
  -4   0   1    2.50    0.90
   4   0  -1    3.20    1.00
   4   0  -1    5.20    1.60
  -4   0   1    5.40    1.50
   4   0  -1    3.50    1.10
   2   0  -1    7.10    1.10
  -2   0   1    9.20    1.30
   2   0  -1    8.70    0.90
   0   0  -1    3.60    0.70
   0   0  -1    4.10    0.50
   2   0   1    3.00    0.80
  -2   0  -1    3.00    1.10
   2   0   1    4.20    1.20
  -2   0  -1    2.70    0.90
   2   0   1    2.70    1.00
  -2   0  -1    1.70    0.70
   4   0   1    4.50    1.60
  -4   0  -1    7.30    2.20
   4   0   1    3.50    1.30
  -4   0  -1    4.20    1.40
   4   0   1    4.90    1.60
  -4   0  -1    5.00    1.70
   6   0   1    8.30    2.90
  -6   0  -1   12.40    2.80
  -6   0  -1    9.80    3.10
   8   0   1    1.20    1.80
  -8   0  -1    8.00    3.70
   8   0   1    5.20    2.40
   8   0   1    1.00    2.60
  -8   0  -1    4.90    2.60
  -8   0  -1    1.50    2.10
 -10   0  -1   -1.00    3.80
 -10   0  -1    0.70    2.90
 -10   0  -1    0.90    2.90
  10   0   1    2.30    2.40
  10   0   1    0.60    4.10
  10   0   1    1.10    2.10
  12   0   1    1.70    4.80
 -12   0  -1   -0.20    4.90
  12   0   1    1.10    3.20
  12   0   1   -3.50    5.90
 -12   0  -1    1.20    3.50
  12   0   1    0.50    3.40
  14   0   1   -3.50    4.00
  14   0   1    0.60    4.00
 -14   0  -1   -0.30    4.00
  16   0   1   -5.80    5.10
  16   0   1   -0.30    5.50
 -16   0  -1   -2.40    5.10
 -18   0  -1   -4.30    8.20
  18   0   1    6.90    7.80
  18   0   1    2.10    7.00
  19  -1  -1  240.58   22.00
 -19  -1   1  252.47   21.10
  19  -1  -1  275.67   21.50
  19   1  -1  245.28   19.90
 -19   1   1  218.08   20.50
  17  -1  -1  102.29   13.40
  17  -1  -1   95.09   13.30
 -17  -1   1   75.69   11.60
  17   1  -1   78.19   11.60
 -17   1   1   87.89   13.40
 -15  -1   1  542.55   27.80
  15  -1  -1  542.85   28.40
  15  -1  -1  506.95   26.30
 -15   1   1  526.95   27.80
  15   1  -1  491.25   25.60
  15   1  -1  523.65   26.60
  13  -1  -1 1145.19   48.50
  13  -1  -1 1157.28   44.80
  13  -1  -1 1142.19   46.20
  13  -1  -1 1111.19   43.30
 -13  -1   1 1060.99   44.90
 -13  -1   1 1136.09   43.70
 -13  -1   1 1232.98   45.10
  13   1  -1 1190.28   48.00
  13   1  -1 1171.38   44.60
 -13   1   1 1270.47   46.40
  13   1  -1 1137.99   44.60
 -13   1   1 1188.88   43.80
 -13   1   1 1166.48   46.60
 -11  -1   1 1641.94   55.09
  11  -1  -1 1582.34   58.69
 -11  -1   1 1501.45   55.99
 -11  -1   1 1627.14   55.09
  11  -1  -1 1556.54   54.19
  11  -1  -1 1518.45   55.09
  11  -1  -1 1479.05   56.19
  11   1  -1 1611.64   58.19
 -11   1   1 1497.35   57.09
 -11   1   1 1639.84   55.89
 -11   1   1 1592.34   54.49
  11   1  -1 1599.04   55.49
  11   1  -1 1586.64   54.99
  -9  -1   1 2627.64   87.29
  -9  -1   1 2723.53   85.89
   9  -1  -1 2590.94   85.99
   9  -1  -1 2692.13   85.29
   9  -1  -1 2725.73   89.29
   9  -1  -1 2589.04   87.19
  -9  -1   1 2605.44   85.19
   9   1  -1 2554.34   85.49
   9   1  -1 2687.93   86.19
  -9   1   1 2752.82   86.49
  -9   1   1 2594.94   88.09
   9   1  -1 2800.32   88.49
  -9   1   1 2663.43   85.39
   7  -1  -1 1566.94   55.59
   7  -1  -1 1677.73   54.29
  -7  -1   1 1645.74   55.89
  -7  -1   1 1683.03   54.29
   7  -1  -1 1691.83   57.39
  -7  -1   1 1684.63   54.79
  -7   1   1 1702.83   54.49
   7   1  -1 1740.53   56.69
   7   1  -1 1657.93   54.59
  -7   1   1 1673.63   54.99
  -7   1   1 1636.54   56.69
   7   1  -1 1746.33   55.39
  -5  -1   1 1226.08   40.80
  -5  -1   1 1291.97   40.40
   5  -1  -1 1203.88   41.40
   5  -1  -1 1256.37   40.40
   5  -1  -1 1292.17   42.80
  -5  -1   1 1265.27   41.60
  -5   1   1 1252.67   40.80
  -5   1   1 1257.37   40.40
   5   1  -1 1273.47   41.90
  -5   1   1 1220.38   42.40
  -3  -1   1  966.80   30.20
   3  -1  -1  949.21   30.80
  -3  -1   1  970.40   30.70
  -3  -1   1  965.70   30.90
   3  -1  -1  983.20   32.20
   3  -1  -1  955.00   30.40
   3  -1  -1  953.70   30.50
   3   1  -1  944.91   31.00
  -3   1   1  960.20   30.20
  -3   1   1  940.61   30.40
   3   1  -1  941.51   30.20
  -3   1   1  917.71   30.30
   3  -1   1  114.69    5.90
   3  -1   1  110.49    6.70
   3  -1   1  118.19    6.30
  -3  -1  -1  103.49    6.00
  -3  -1  -1  121.49    5.70
   3  -1   1  115.69    6.40
  -3  -1  -1  114.29    6.00
   3   1   1  104.89    5.40
   3   1   1  122.69    5.80
   3   1   1  121.09    6.30
  -3   1  -1  114.19    7.00
  -3   1  -1  111.09    6.20
  -3   1  -1  103.29    5.60
  -5  -1  -1 1411.36   44.70
  -5  -1  -1 1243.28   45.70
  -5  -1  -1 1343.97   45.40
   5  -1   1 1205.18   45.80
   5  -1   1 1419.66   45.70
   5  -1   1 1404.26   46.30
   5  -1   1 1363.56   45.00
   5   1   1 1321.47   44.30
   5   1   1 1422.66   46.00
   5   1   1 1364.26   44.70
  -5   1  -1 1372.16   44.70
  -5   1  -1 1380.46   46.00
  -5   1  -1 1420.86   47.50
  -7  -1  -1 1496.45   49.40
   7  -1   1 1432.16   49.80
   7  -1   1 1366.66   50.59
   7  -1   1 1505.65   50.29
   7  -1   1 1468.75   51.39
  -7  -1  -1 1483.45   51.59
  -7  -1  -1 1434.96   50.29
   7   1   1 1446.96   51.09
  -7   1  -1 1606.14   53.19
  -7   1  -1 1438.26   50.89
  -7   1  -1 1475.15   49.20
   7   1   1 1438.66   49.10
   7   1   1 1493.05   49.60
  -9  -1  -1 1106.59   42.00
   9  -1   1 1060.39   41.90
   9  -1   1 1021.30   40.70
  -9  -1  -1 1090.99   40.60
  -9  -1  -1 1085.59   39.20
   9  -1   1 1051.79   40.10
   9  -1   1 1041.00   39.70
  -9   1  -1 1042.80   40.70
   9   1   1 1100.19   41.70
  -9   1  -1 1112.69   39.30
   9   1   1 1102.19   39.30
   9   1   1 1043.70   39.40
  -9   1  -1 1232.08   43.70
 -11  -1  -1 1456.55   51.69
  11  -1   1 1397.86   53.29
 -11  -1  -1 1388.46   52.79
 -11  -1  -1 1517.35   55.09
  11  -1   1 1371.26   52.19
  11  -1   1 1473.45   55.59
  11  -1   1 1382.26   52.09
 -11   1  -1 1365.16   53.19
  11   1   1 1482.75   52.49
  11   1   1 1423.66   54.89
  11   1   1 1433.76   51.69
 -11   1  -1 1584.64   56.29
 -11   1  -1 1430.66   51.39
  13  -1   1  427.66   23.10
 -13  -1  -1  408.56   22.70
  13  -1   1  375.26   21.40
 -13  -1  -1  462.65   25.00
  13   1   1  386.56   21.00
 -13   1  -1  383.06   22.60
  13   1   1  421.26   21.90
 -15  -1  -1  326.47   21.10
  15  -1   1  319.97   20.40
  15  -1   1  310.27   21.20
 -15   1  -1  310.37   21.20
  15   1   1  340.17   20.60
  15   1   1  311.47   20.00
 -17  -1  -1  223.88   19.40
  17  -1   1  234.48   19.30
  17  -1   1  261.27   20.70
  17   1   1  222.68   18.70
  17   1   1  249.48   19.20
 -17   1  -1  221.58   19.60
 -18  -2   1  256.57   20.40
  18  -2  -1  296.67   22.90
  18  -2  -1  271.47   20.30
  18   2  -1  263.77   20.10
 -18   2   1  247.28   21.40
  16  -2  -1  470.15   27.60
  16  -2  -1  470.65   25.70
 -16  -2   1  471.85   26.40
  16   2  -1  446.16   24.70
 -16   2   1  457.25   26.90
  14  -2  -1 1030.70   44.50
  14  -2  -1 1038.40   42.60
 -14  -2   1 1002.60   42.70
 -14  -2   1 1134.59   42.60
  14  -2  -1 1055.69   42.00
 -14   2   1 1064.29   44.90
  14   2  -1 1012.60   41.80
  12  -2  -1  936.41   40.00
  12  -2  -1  966.00   37.80
  12  -2  -1  976.40   41.70
 -12  -2   1 1002.50   37.50
  12  -2  -1  969.20   38.50
 -12  -2   1  961.70   37.60
 -12  -2   1  923.41   38.50
  12   2  -1  944.51   37.80
 -12   2   1 1043.00   39.60
 -12   2   1  974.10   37.10
  12   2  -1  967.60   40.70
 -12   2   1  983.50   40.80
  10  -2  -1  264.87   16.10
 -10  -2   1  276.57   15.60
  10  -2  -1  306.27   15.50
 -10  -2   1  323.07   15.00
  10  -2  -1  316.77   16.00
 -10  -2   1  328.57   15.80
  10  -2  -1  295.07   17.70
 -10   2   1  331.77   16.50
 -10   2   1  307.47   15.00
  10   2  -1  327.67   16.00
 -10   2   1  296.67   17.40
  10   2  -1  309.47   17.30
  -8  -2   1 1862.21   63.79
  -8  -2   1 1894.01   62.99
   8  -2  -1 1949.70   66.29
   8  -2  -1 1665.73   63.89
  -8  -2   1 1860.21   61.69
   8  -2  -1 1881.91   63.09
   8  -2  -1 2072.09   63.29
  -8   2   1 1988.30   62.59
  -8   2   1 1986.10   63.69
  -8   2   1 1883.61   65.89
   8   2  -1 1914.11   63.19
   8   2  -1 1982.20   64.99
  -6  -2   1 3073.29   96.09
   6  -2  -1 3232.68   95.69
  -6  -2   1 3029.70   94.19
  -6  -2   1 3167.08   95.69
   6  -2  -1 2597.14   95.89
   6  -2  -1 2926.81   95.29
   6  -2  -1 3170.48   98.49
   6   2  -1 3269.57   96.99
  -6   2   1 2702.13   97.49
  -6   2   1 3024.20   94.69
   6   2  -1 3160.38   95.29
  -6   2   1 3023.30   95.29
  -6   2   1 3202.58   95.89
   6   2  -1 3078.99   95.59
   4  -2  -1  779.32   29.80
  -4  -2   1  876.81   29.80
   4  -2  -1  938.31   32.20
   4  -2  -1  900.81   30.10
   4  -2  -1  896.91   29.50
  -4  -2   1  883.71   29.50
  -4   2   1  831.02   28.90
   4   2  -1  905.01   30.20
  -4   2   1  902.71   32.40
  -4   2   1  889.71   30.00
   4   2  -1  880.01   29.60
   4   2  -1  881.61   29.80
  -4   2   1  886.01   29.50
   0  -2   1 2530.25   79.69
   0  -2   1 2485.25   78.59
   0  -2  -1 2632.04   78.09
   0  -2  -1 2603.84   79.29
   0   2  -1 2513.75   79.79
   0   2  -1 2601.24   78.99
   0   2   1 2410.16   79.09
   0   2  -1 2558.44   79.29
   0   2  -1 2671.23   78.89
  -2  -2  -1  569.24   20.10
   2  -2   1  619.44   22.70
   2  -2   1  630.44   22.80
  -2  -2  -1  647.14   21.40
   2   2   1  632.74   19.80
   2   2   1  640.14   22.50
   2   2   1  634.94   21.40
  -2   2  -1  682.13   22.30
  -2   2  -1  625.04   23.10
  -2   2  -1  634.54   22.90
  -2   2  -1  642.44   23.10
   4  -2   1 3366.56  103.19
   4  -2   1 3255.07  102.39
  -4  -2  -1 3373.56  101.19
  -4   2  -1 3278.57  103.09
  -4   2  -1 3335.47  104.09
   4   2   1 3069.49   99.49
  -4   2  -1 3314.77  101.49
   4   2   1 3150.78  100.89
   4   2   1 3289.77  102.39
  -6  -2  -1 1835.72   66.59
   6  -2   1 1966.30   66.89
  -6  -2  -1 2007.70   67.19
  -6  -2  -1 2185.88   66.69
   6  -2   1 2125.99   68.89
   6  -2   1 2099.69   67.79
   6  -2   1 1896.11   68.19
   6   2   1 2114.79   68.19
   6   2   1 2041.10   64.99
   6   2   1 2046.50   66.39
  -6   2  -1 2103.09   66.49
  -6   2  -1 2276.97   70.29
  -6   2  -1 2016.50   68.39
   8  -2   1 1161.48   41.20
  -8  -2  -1 1104.79   39.70
   8  -2   1 1072.39   40.40
   8  -2   1  967.90   40.90
   8  -2   1 1140.49   42.60
  -8  -2  -1 1124.19   40.80
  -8  -2  -1 1125.19   41.40
   8   2   1 1094.39   41.60
   8   2   1 1106.89   38.60
  -8   2  -1 1103.09   41.90
  -8   2  -1 1305.27   44.30
   8   2   1 1086.59   39.80
  -8   2  -1 1138.89   39.70
 -10  -2  -1  737.73   31.00
 -10  -2  -1  770.22   32.10
  10  -2   1  679.83   32.30
 -10  -2  -1  776.92   30.40
  10  -2   1  721.23   30.80
  10  -2   1  737.73   31.10
  10  -2   1  691.83   31.70
  10   2   1  762.42   29.20
 -10   2  -1  786.32   30.30
 -10   2  -1  832.72   34.30
 -10   2  -1  757.62   32.50
  10   2   1  773.02   33.00
  10   2   1  737.23   30.30
  12  -2   1  313.67   21.70
  12  -2   1  339.37   19.30
 -12  -2  -1  410.06   21.60
  12  -2   1  338.47   20.20
 -12  -2  -1  346.67   19.70
 -12   2  -1  322.47   20.00
  12   2   1  350.66   19.00
  12   2   1  363.06   18.10
 -14  -2  -1  232.18   17.20
  14  -2   1  232.08   17.80
  14  -2   1  271.47   18.10
 -14   2  -1  249.68   18.50
  14   2   1  247.68   16.90
  14   2   1  260.17   16.50
  16  -2   1  358.06   24.20
  16  -2   1  355.46   23.50
 -16  -2  -1  345.57   22.70
 -16   2  -1  353.56   24.00
  16   2   1  357.86   22.00
  16   2   1  338.37   22.00
  19  -3  -1   60.79   13.30
  19  -3  -1   60.59   12.20
 -19   3   1   42.70   11.40
  19   3  -1   52.19   10.60
  19   3  -1   38.50    9.60
  17  -3  -1   14.00    7.60
 -17  -3   1   26.20    7.60
  17  -3  -1   10.50    7.10
  17   3  -1   19.50    7.10
  17   3  -1    9.10    5.80
 -17   3   1   23.70    8.90
 -15  -3   1   18.40    6.90
  15  -3  -1   26.90    7.60
 -15  -3   1   43.70    8.70
  15  -3  -1   25.40    7.60
  15   3  -1   28.80    7.20
  15   3  -1   24.10    6.80
 -15   3   1   32.70    9.20
 -13  -3   1   77.09    8.80
 -13  -3   1   98.89    9.50
  13  -3  -1   85.59   10.50
  13  -3  -1   84.39   13.90
  13  -3  -1   88.29    9.80
  13  -3  -1   85.89   10.60
  13   3  -1   75.09    8.80
 -13   3   1   78.39   11.90
 -13   3   1   72.59    9.30
  13   3  -1   76.59    8.90
 -11  -3   1   11.00    3.40
  11  -3  -1    3.50    3.20
 -11  -3   1    4.60    3.40
  11  -3  -1   -0.20    3.10
  11  -3  -1    7.20    5.10
  11  -3  -1    2.40    3.00
 -11  -3   1    4.30    3.70
  11   3  -1    1.50    2.60
  11   3  -1    1.70    2.50
 -11   3   1    0.40    3.50
  11   3  -1    0.70    4.20
 -11   3   1    3.30    3.10
 -11   3   1    0.90    3.50
   9  -3  -1   99.29    8.00
   9  -3  -1  101.89    8.20
  -9  -3   1   92.99    7.90
  -9  -3   1   99.99    7.00
   9  -3  -1   85.39    9.80
   9  -3  -1   94.49    8.90
  -9  -3   1   94.69    8.20
   9   3  -1  106.89    8.10
  -9   3   1  100.69    7.50
   9   3  -1  100.39    7.90
  -9   3   1  107.69    8.20
  -9   3   1  112.59    8.60
  -9   3   1  123.19   10.30
   9   3  -1  104.99    9.60
  -7  -3   1  939.51   31.90
   7  -3  -1  923.51   33.80
  -7  -3   1  909.41   33.60
   7  -3  -1  946.61   34.20
   7  -3  -1  921.21   36.50
  -7   3   1  945.81   34.30
   7   3  -1  965.50   35.20
  -7   3   1  946.91   33.00
   7   3  -1  910.71   33.70
   7   3  -1  911.31   33.70
  -7   3   1  942.31   37.10
  -7   3   1  975.00   34.30
  -5  -3   1   11.00    2.60
  -5  -3   1   16.00    3.00
   5  -3  -1   14.30    3.00
   5  -3  -1   18.90    4.00
   5  -3  -1   20.20    3.50
   5  -3  -1   24.30    3.50
   5   3  -1   12.00    2.60
  -5   3   1   12.00    2.40
  -5   3   1   14.20    4.00
   5   3  -1   15.50    3.10
   5   3  -1   11.40    2.60
  -5   3   1   16.80    3.30
   3  -3  -1  110.79    6.50
   3  -3  -1  136.39    8.10
   3  -3  -1  137.09    8.70
  -3  -3   1  128.29    6.00
  -3  -3   1  130.99    7.20
   3  -3  -1  121.89    6.60
  -3  -3   1  112.99    6.90
  -3   3   1  119.49    7.60
   3   3  -1  125.89    7.00
  -3   3   1  129.99    6.60
   3   3  -1  133.09    7.60
  -3   3   1  140.19    6.80
  -3   3   1  126.59    9.00
  -1  -3   1   25.00    2.60
  -1  -3   1   27.30    2.40
  -1  -3   1   19.40    3.10
   1  -3  -1   29.20    3.50
   1  -3  -1   25.60    2.50
  -1  -3   1   24.30    2.90
   1  -3  -1   24.30    2.00
  -1   3   1   19.00    3.00
  -1   3   1   31.00    2.70
   1   3  -1   23.50    3.60
   1   3  -1   28.00    2.70
  -1   3   1   28.20    2.10
  -1   3   1   34.40    4.00
  -1  -3  -1    7.80    1.70
  -1  -3  -1    5.20    1.90
   1  -3   1    3.90    1.50
   1  -3   1    3.70    1.80
   1  -3   1    6.10    1.60
  -1   3  -1    1.00    1.10
  -1   3  -1    3.80    1.60
   1   3   1    6.30    1.60
  -1   3  -1    9.90    2.50
  -1   3  -1    3.70    1.80
   1   3   1    5.30    1.70
   3  -3   1   15.20    2.90
   3  -3   1   18.40    3.50
  -3  -3  -1   15.60    1.70
  -3  -3  -1   12.60    2.30
   3  -3   1   14.30    3.10
   3  -3   1   11.30    2.80
  -3   3  -1   11.70    2.70
  -3   3  -1   13.10    3.30
   3   3   1    7.30    1.80
   3   3   1    7.90    2.20
  -3   3  -1   12.00    2.90
  -3   3  -1    9.70    2.30
   5  -3   1  129.99    9.00
  -5  -3  -1  137.89    8.00
   5  -3   1  130.49    8.80
  -5  -3  -1  111.39    6.90
   5  -3   1  145.09    8.70
   5  -3   1  132.89    9.30
  -5   3  -1  129.89    9.00
   5   3   1  136.39    7.80
  -5   3  -1  130.49    8.00
  -5   3  -1  161.28   10.20
   5   3   1  132.19    6.30
   5   3   1  150.48    9.20
   5   3   1  136.49    8.70
  -5   3  -1  140.99    9.80
   7  -3   1    8.30    3.90
   7  -3   1   15.50    3.80
   7  -3   1   13.40    3.70
   7  -3   1   25.60    4.60
  -7  -3  -1   11.70    3.30
  -7  -3  -1   16.90    3.60
   7   3   1   11.00    3.30
  -7   3  -1    8.20    3.70
   7   3   1   14.20    3.30
  -7   3  -1   20.20    4.90
   7   3   1   20.90    4.90
  -7   3  -1    9.70    3.00
  -7   3  -1   15.90    3.70
   7   3   1   15.80    2.80
  -9  -3  -1    6.70    3.90
  -9  -3  -1    5.50    3.40
   9  -3   1    2.70    4.50
   9  -3   1   10.30    4.30
   9  -3   1    2.60    4.30
   9  -3   1    5.60    3.30
   9   3   1    6.60    4.70
  -9   3  -1    5.00    4.00
  -9   3  -1    0.80    3.50
  -9   3  -1    6.40    3.20
   9   3   1    4.00    2.70
   9   3   1    8.40    2.80
   9   3   1    4.10    3.30
  11  -3   1   88.39   10.70
  11  -3   1  111.69   10.30
  11  -3   1   99.09   13.10
 -11  -3  -1   95.09   10.00
  11  -3   1  106.99   10.30
 -11   3  -1   83.59   10.10
  11   3   1  102.09   12.90
  11   3   1   90.79    7.80
  11   3   1   82.99    8.60
  11   3   1   79.39    8.70
 -13  -3  -1   38.10    8.20
  13  -3   1   24.70    6.40
  13  -3   1   25.50    7.00
  13   3   1   28.10    6.70
 -13   3  -1   35.20    8.40
  13   3   1   32.20    6.30
  13   3   1   25.10    6.70
  15  -3   1    6.20    6.30
  15  -3   1    8.60    5.50
 -15   3  -1   13.60    7.30
  15   3   1    4.10    5.80
  15   3   1   -2.00    4.90
  17  -3   1    4.70    7.40
  17  -3   1    0.10    7.30
  17   3   1   -3.00    6.30
  17   3   1    8.60    7.30
 -17   3  -1    7.80    9.10
  18  -4  -1  232.18   21.40
  18  -4  -1  201.48   18.50
  18   4  -1  178.48   17.40
  18   4  -1  220.28   18.30
 -18   4   1  208.88   21.00
  16  -4  -1  288.67   21.50
  16  -4  -1  348.17   24.00
  16   4  -1  321.27   20.60
  16   4  -1  325.57   20.50
 -16   4   1  294.17   22.90
 -14  -4   1  652.93   28.40
  14  -4  -1  699.13   33.80
  14  -4  -1  590.94   29.90
  14   4  -1  574.24   29.00
  14   4  -1  657.33   30.00
 -14   4   1  597.54   32.60
 -12  -4   1  927.51   34.10
  12  -4  -1  865.31   38.70
  12  -4  -1  908.81   40.80
  12  -4  -1  885.01   36.70
  12  -4  -1  890.81   36.80
  12   4  -1  805.72   35.10
 -12   4   1  897.41   35.20
  12   4  -1  852.81   35.90
 -12   4   1  849.81   39.70
  10  -4  -1 1187.48   43.50
  10  -4  -1 1106.59   42.80
 -10  -4   1 1205.68   40.10
 -10  -4   1 1145.09   42.40
  10  -4  -1  961.40   43.40
  10  -4  -1 1149.39   46.50
  10   4  -1 1137.49   44.60
  10   4  -1 1107.29   42.20
  10   4  -1 1094.89   42.40
 -10   4   1 1235.48   44.40
 -10   4   1 1185.88   41.70
 -10   4   1 1136.49   43.00
 -10   4   1 1108.19   46.50
   8  -4  -1 1256.47   51.79
  -8  -4   1 1455.65   50.99
  -8  -4   1 1465.75   48.10
   8  -4  -1 1548.95   55.19
   8  -4  -1 1510.15   52.19
   8  -4  -1 1444.76   51.29
   8   4  -1 1496.85   52.69
  -8   4   1 1450.55   55.49
   8   4  -1 1440.66   50.79
  -8   4   1 1539.35   52.29
  -8   4   1 1483.85   50.19
   8   4  -1 1440.26   51.29
  -8   4   1 1523.85   52.29
  -6  -4   1 2585.94   84.19
   6  -4  -1 2704.73   85.99
  -6  -4   1 2571.64   81.19
  -6  -4   1 2651.03   84.49
   6  -4  -1 2602.44   87.39
   6  -4  -1 2526.65   83.99
  -6   4   1 2482.15   88.79
  -6   4   1 2756.52   84.89
   6   4  -1 2548.55   83.99
   6   4  -1 2544.85   84.79
  -6   4   1 2611.04   85.49
   6   4  -1 2664.93   85.29
  -6   4   1 2692.23   83.49
   4  -4  -1 4219.08  125.09
  -4  -4   1 3954.00  120.09
  -4  -4   1 3891.21  122.79
   4  -4  -1 3741.93  121.99
  -4  -4   1 3916.01  123.19
   4  -4  -1 4185.58  125.99
  -4   4   1 3901.91  121.89
  -4   4   1 3861.41  127.29
  -4   4   1 3916.21  124.49
  -4   4   1 3984.60  122.29
   4   4  -1 3940.91  122.79
   4   4  -1 3699.23  123.49
  -2  -4   1 3678.93  111.79
  -2  -4   1 3612.74  108.99
   2  -4  -1 3594.94  110.39
   2  -4  -1 3560.84  113.09
  -2  -4   1 3593.14  112.49
  -2  -4   1 3420.26  110.49
  -2   4   1 3453.65  113.09
   2   4  -1 3533.45  113.09
  -2   4   1 3494.65  110.29
   2   4  -1 3677.23  109.69
  -2   4   1 3688.83  109.59
  -2   4   1 3469.95  114.99
   0  -4   1 6414.56  197.08
   0  -4  -1 6280.47  196.28
   0  -4  -1 6362.76  194.48
   0   4  -1 6502.55  194.98
   0   4   1 6089.09  196.38
   0   4  -1 6083.39  197.28
   0   4  -1 6541.25  194.58
   0   4   1 6635.14  191.38
   0   4  -1 6547.84  197.18
   2  -4   1 5327.77  166.38
   2  -4   1 5292.77  166.08
  -2  -4  -1 5479.45  167.28
   2  -4   1 5862.01  168.78
  -2  -4  -1 5356.16  165.28
  -2   4  -1 5326.97  168.38
  -2   4  -1 5244.68  168.88
   2   4   1 5407.06  167.48
  -2   4  -1 5341.17  166.78
  -2   4  -1 5471.45  166.28
   2   4   1 5316.37  165.38
   4  -4   1 1999.60   68.69
  -4  -4  -1 1967.10   64.39
  -4  -4  -1 2090.19   67.99
   4  -4   1 2232.08   70.89
   4  -4   1 1985.70   69.39
   4  -4   1 2195.68   71.09
   4   4   1 2039.00   67.79
  -4   4  -1 2141.09   70.89
  -4   4  -1 2121.69   68.79
   4   4   1 2100.19   69.89
  -4   4  -1 2250.47   70.79
  -4   4  -1 2157.58   72.29
   6  -4   1 2262.67   74.89
   6  -4   1 2228.28   75.79
   6  -4   1 2303.27   76.89
  -6  -4  -1 2257.17   73.79
  -6  -4  -1 2192.68   71.29
   6  -4   1 2133.99   75.49
   6   4   1 2167.48   73.29
   6   4   1 2285.07   75.79
  -6   4  -1 2288.07   76.49
  -6   4  -1 2181.08   77.29
   6   4   1 2196.98   75.29
  -6   4  -1 2291.27   74.09
  -6   4  -1 2564.54   77.89
   8  -4   1 2221.88   78.39
  -8  -4  -1 2335.47   75.19
  -8  -4  -1 2240.38   73.29
   8  -4   1 2163.68   76.99
   8  -4   1 2284.57   77.19
   8  -4   1 2146.79   75.89
  -8   4  -1 2207.68   74.69
   8   4   1 2132.19   76.09
   8   4   1 2134.49   74.29
   8   4   1 2303.37   77.49
  -8   4  -1 2572.94   79.39
  -8   4  -1 2264.87   77.29
  -8   4  -1 2242.18   78.69
  10  -4   1 1070.39   42.40
  10  -4   1 1161.48   45.80
 -10  -4  -1 1046.60   39.80
 -10  -4  -1 1111.69   44.30
  10  -4   1 1034.50   42.70
  10  -4   1 1124.69   44.00
  10   4   1  983.10   40.20
 -10   4  -1 1061.69   44.60
  10   4   1 1060.39   42.20
  10   4   1 1114.09   44.60
 -10   4  -1 1086.49   41.00
  12  -4   1  433.56   23.70
  12  -4   1  449.26   24.60
 -12  -4  -1  445.76   22.10
  12   4   1  432.56   23.60
  12   4   1  456.15   22.70
 -12   4  -1  408.36   24.80
  14  -4   1  438.96   25.80
  14  -4   1  429.46   25.00
 -14  -4  -1  431.56   23.70
  14   4   1  396.16   23.80
 -14   4  -1  392.56   25.50
  14   4   1  376.86   22.40
  16  -4   1  352.76   24.60
  16  -4   1  308.67   22.40
  16   4   1  291.77   20.90
 -16   4  -1  299.87   23.70
  16   4   1  313.17   21.60
  17  -5  -1  379.56   25.60
  17  -5  -1  375.96   27.00
  17   5  -1  341.07   23.40
 -17   5   1  328.27   25.70
  17   5  -1  394.66   24.10
 -15  -5   1  755.92   32.50
  15  -5  -1  790.72   38.70
  15  -5  -1  696.33   35.30
  15   5  -1  680.33   33.50
 -15   5   1  696.03   38.20
  15   5  -1  762.42   34.80
 -13  -5   1  907.21   33.80
  13  -5  -1  848.02   39.40
  13  -5  -1  802.22   36.80
  13   5  -1  831.62   36.60
 -13   5   1  820.92   40.70
  13   5  -1  825.22   36.00
 -11  -5   1  838.02   30.20
  11  -5  -1  805.62   35.70
  11  -5  -1  701.83   33.10
  11  -5  -1  767.32   37.40
  11  -5  -1  764.92   34.10
 -11   5   1  740.93   37.30
  11   5  -1  811.92   34.00
 -11   5   1  821.52   32.50
 -11   5   1  904.71   45.30
  11   5  -1  732.83   32.50
 -11   5   1  797.52   34.40
   9  -5  -1 1800.22   67.89
   9  -5  -1 1816.22   66.29
  -9  -5   1 1871.51   60.29
   9  -5  -1 1920.41   66.39
   9  -5  -1 1815.62   64.79
  -9  -5   1 1839.22   64.29
  -9   5   1 1821.82   65.59
  -9   5   1 1885.11   63.39
   9   5  -1 1883.61   65.39
  -9   5   1 1707.93   68.89
   9   5  -1 1824.32   64.09
  -9   5   1 1979.80   65.29
   9   5  -1 1971.10   66.99
  -7  -5   1 3188.28  101.49
  -7  -5   1 3126.69  100.89
   7  -5  -1 2824.92  101.19
  -7  -5   1 3073.19   96.49
   7  -5  -1 3209.08  102.99
   7  -5  -1 3108.79  100.99
   7  -5  -1 3157.88  104.89
  -7   5   1 3128.49  102.79
  -7   5   1 3130.29  107.19
  -7   5   1 3128.99   99.89
   7   5  -1 3112.89  102.29
   7   5  -1 3084.09  100.69
   7   5  -1 3097.19  101.99
  -7   5   1 3279.47  101.09
   5  -5  -1 3237.58  104.29
   5  -5  -1 3157.48  100.59
  -5  -5   1 3155.58   97.09
   5  -5  -1 3225.18  103.39
  -5  -5   1 3208.68  101.79
  -5  -5   1 3120.39  100.89
   5  -5  -1 2698.03   99.99
   5   5  -1 3174.28  101.09
  -5   5   1 3219.48  107.09
  -5   5   1 3114.09  102.99
  -5   5   1 3216.98  100.09
   5   5  -1 3118.69  102.39
  -5   5   1 3316.17  100.39
   3  -5  -1 3450.75  106.89
   3  -5  -1 3580.84  110.19
  -3  -5   1 3307.57  103.99
  -3  -5   1 3441.56  108.09
  -3  -5   1 3263.17  108.69
  -3  -5   1 3316.57  106.59
  -3   5   1 3301.17  110.19
  -3   5   1 3416.46  112.89
  -3   5   1 3388.16  106.69
  -3   5   1 3525.75  105.99
   3   5  -1 3299.17  109.49
   3   5  -1 3455.05  108.19
  -1  -5   1 2101.69   69.29
  -1  -5   1 2076.99   72.19
  -1  -5   1 2279.17   74.29
   1  -5  -1 2199.68   71.79
   1  -5  -1 2339.57   74.29
   1  -5  -1 2237.18   70.79
  -1  -5   1 2202.08   71.29
  -1   5   1 2278.87   68.99
   1   5  -1 2296.27   70.69
  -1   5   1 2097.69   74.29
  -1   5   1 2152.68   75.49
   1   5  -1 2243.18   74.89
  -1  -5  -1 1646.94   53.09
  -1  -5  -1 1609.44   53.89
   1  -5   1 1521.75   53.89
  -1  -5  -1 1611.64   55.89
   1  -5   1 1696.53   57.19
   1  -5   1 1615.24   53.49
  -1   5  -1 1652.43   54.39
   1   5   1 1561.04   56.39
  -1   5  -1 1616.24   57.89
  -1   5  -1 1584.04   57.09
  -1   5  -1 1688.93   54.79
   3  -5   1 3281.17  105.49
  -3  -5  -1 3195.98  104.09
   3  -5   1 3141.79  102.79
   3  -5   1 3234.88  102.99
  -3  -5  -1 3226.88  102.09
   3   5   1 3282.07  102.29
   3   5   1 3088.69  104.29
  -3   5  -1 3178.78  105.69
  -3   5  -1 3165.68  102.69
  -3   5  -1 3219.88  107.19
  -3   5  -1 3459.05  104.19
   5  -5   1 2901.91   93.69
   5  -5   1 2887.11   95.29
  -5  -5  -1 2776.02   91.79
   5  -5   1 2770.52   92.89
   5  -5   1 2842.82   95.09
   5   5   1 2841.12   91.89
  -5   5  -1 3086.59   94.99
   5   5   1 2764.72   94.09
  -5   5  -1 2943.11   92.89
   5   5   1 2904.91   94.09
  -5   5  -1 2835.02   95.49
  -5   5  -1 2748.02   96.99
   7  -5   1 1533.65   56.99
   7  -5   1 1607.74   58.49
   7  -5   1 1570.04   57.69
   7  -5   1 1613.84   59.29
  -7  -5  -1 1653.83   56.19
  -7  -5  -1 1632.64   51.89
  -7   5  -1 1532.35   58.59
  -7   5  -1 1770.02   59.39
   7   5   1 1556.04   57.69
   7   5   1 1728.63   58.99
  -7   5  -1 1665.53   56.49
   7   5   1 1551.64   55.39
  -7   5  -1 1562.74   60.39
   9  -5   1 1667.73   61.39
  -9  -5  -1 1641.44   60.19
   9  -5   1 1567.24   59.19
   9  -5   1 1559.64   59.79
   9  -5   1 1639.54   59.19
  -9  -5  -1 1653.73   53.89
  -9   5  -1 1576.04   61.79
  -9   5  -1 1762.22   61.69
  -9   5  -1 1579.04   59.99
  -9   5  -1 1653.43   57.59
   9   5   1 1404.66   55.99
   9   5   1 1604.94   59.09
   9   5   1 1684.03   66.19
  11  -5   1 1040.70   44.10
  11  -5   1 1067.29   47.30
  11  -5   1 1154.38   45.90
 -11  -5  -1 1141.39   40.20
 -11   5  -1 1034.90   46.80
  11   5   1 1074.29   44.50
  11   5   1 1066.89   42.40
  13  -5   1  472.45   27.30
 -13  -5  -1  549.95   24.70
  13  -5   1  562.04   29.20
  13   5   1  512.05   25.90
  13   5   1  507.95   27.60
 -13   5  -1  493.25   29.60
 -15  -5  -1  427.66   25.00
  15  -5   1  529.05   29.50
  15  -5   1  488.65   28.80
 -15   5  -1  468.25   30.10
  15   5   1  468.25   27.80
  15   5   1  415.16   25.00
  16  -6  -1    1.90    6.30
 -16  -6   1    7.90    8.20
  16  -6  -1    9.60    7.50
  16   6  -1    2.10    6.60
  16   6  -1    0.80    5.80
 -16   6   1    5.10    8.80
 -14  -6   1    6.90    5.50
  14  -6  -1    2.50    5.80
  14  -6  -1    8.20    6.30
  14   6  -1    4.00    5.20
  14   6  -1    9.70    5.50
 -14   6   1    5.70    7.50
  12  -6  -1   59.79   10.00
  12  -6  -1   60.79   10.10
 -12  -6   1   54.19    6.70
  12   6  -1   56.29    9.70
 -12   6   1   42.90    8.40
 -12   6   1   55.19   11.60
  12   6  -1   52.89    8.90
  10  -6  -1    6.00    4.70
  10  -6  -1    4.70    3.80
  10  -6  -1    0.00    6.20
  10  -6  -1    2.40    5.40
 -10  -6   1    3.20    2.50
 -10   6   1   -5.90    3.90
 -10   6   1    2.50    4.00
 -10   6   1    1.90    4.10
  10   6  -1    6.10    4.30
 -10   6   1   12.10    7.20
  10   6  -1    4.80    3.30
   8  -6  -1   85.39    8.70
   8  -6  -1   62.09   10.40
  -8  -6   1   70.99    5.50
  -8  -6   1   56.09    7.70
  -8  -6   1   75.89    5.40
   8  -6  -1   89.89   10.00
   8  -6  -1   51.59    7.60
   8   6  -1   73.79    8.70
  -8   6   1   78.39    7.90
  -8   6   1   91.79    8.70
   8   6  -1   79.79    9.30
  -8   6   1   65.19   11.50
   8   6  -1   77.29    7.60
  -8   6   1   70.69    8.50
   6  -6  -1  200.48   14.60
  -6  -6   1  175.78   11.90
   6  -6  -1  170.68   13.70
  -6  -6   1  176.98    8.50
   6  -6  -1  171.88   11.60
  -6  -6   1  173.48   12.50
   6  -6  -1  188.38   11.80
  -6   6   1  194.18   11.60
   6   6  -1  182.68   13.20
  -6   6   1  213.98   12.00
   6   6  -1  198.18   13.20
  -6   6   1  184.88   15.90
   6   6  -1  179.88   11.70
  -6   6   1  197.58   13.80
   4  -6  -1   21.60    6.00
  -4  -6   1   19.80    4.60
  -4  -6   1   14.10    4.90
  -4  -6   1   18.30    2.50
   4  -6  -1   27.70    4.60
   4  -6  -1   13.40    3.40
  -4   6   1   15.10    4.60
   4   6  -1   12.70    4.40
   4   6  -1   11.50    3.40
  -4   6   1   24.10    4.50
  -4   6   1   20.10    4.00
  -4   6   1   26.80    6.80
  -2  -6   1  340.07   13.50
   2  -6  -1  318.67   14.10
  -2  -6   1  326.17   17.50
   2  -6  -1  353.66   18.50
  -2  -6   1  339.07   15.70
  -2  -6   1  331.87   16.90
   2  -6  -1  337.67   15.50
   2   6  -1  345.37   14.50
  -2   6   1  347.17   14.30
   2   6  -1  341.77   18.60
  -2   6   1  338.57   20.00
  -2   6   1  329.97   18.30
  -2   6   1  335.17   15.80
   0  -6  -1  250.87   10.40
   0  -6  -1  272.57   14.10
   0  -6   1  264.87   13.60
   0  -6  -1  274.97   13.10
   0  -6   1  239.38   12.10
   0  -6  -1  290.57   16.10
   0  -6   1  276.07   15.10
   0  -6   1  295.97   16.50
   0   6  -1  293.77   17.10
   0   6  -1  253.87   16.10
   0   6   1  285.47   16.50
   0   6  -1  293.77   13.70
   0   6   1  295.97   11.00
   2  -6   1  518.45   21.60
   2  -6   1  513.85   22.20
  -2  -6  -1  528.15   22.20
   2  -6   1  498.25   24.40
  -2  -6  -1  540.75   24.10
  -2  -6  -1  531.75   21.20
  -2   6  -1  522.25   26.10
  -2   6  -1  537.15   25.50
  -2   6  -1  527.65   22.70
   2   6   1  516.45   24.50
  -2   6  -1  529.05   22.50
  -4  -6  -1  497.15   23.10
  -4  -6  -1  464.75   21.00
   4  -6   1  483.25   23.70
   4  -6   1  471.05   21.50
   4  -6   1  472.15   21.10
   4   6   1  453.55   22.90
  -4   6  -1  443.96   24.70
  -4   6  -1  461.85   23.80
  -4   6  -1  509.25   22.50
   4   6   1  465.75   20.80
  -4   6  -1  506.35   21.80
  -6  -6  -1   18.80    5.00
   6  -6   1   20.30    6.80
   6  -6   1   26.70    5.50
   6  -6   1   10.60    5.70
   6  -6   1   18.60    4.60
   6   6   1   19.10    4.40
  -6   6  -1   23.90    6.80
   6   6   1   27.40    6.30
  -6   6  -1   21.20    5.50
  -6   6  -1   29.00    6.20
   6   6   1   33.40    6.70
  -6   6  -1   25.10    5.50
   8  -6   1   65.39    8.10
   8  -6   1   62.79   10.90
  -8  -6  -1   68.39    4.60
   8  -6   1   60.39    8.40
  -8   6  -1   68.69    9.80
  -8   6  -1   73.09    9.30
  -8   6  -1   81.79   11.10
  -8   6  -1   60.29   10.60
   8   6   1   68.69    7.60
   8   6   1   56.09    8.90
  10  -6   1   31.80    7.30
  10  -6   1   17.40    5.50
  10  -6   1   21.70    9.10
 -10  -6  -1   25.60    4.30
 -10   6  -1   27.60    8.30
  10   6   1   26.80    6.30
  10   6   1   27.80    7.00
 -10   6  -1   22.70    6.70
  12  -6   1   18.60    6.20
 -12  -6  -1   24.70    5.30
  12  -6   1    5.40    6.20
  12   6   1   12.00    5.90
  12   6   1   14.50    5.40
 -12   6  -1   15.10    8.70
  14  -6   1   49.10    9.90
  14  -6   1   26.90    8.20
 -14  -6  -1   47.20    8.40
 -14   6  -1   45.40   11.80
  14   6   1   25.90    8.40
  14   6   1   42.30    8.80
  15  -7  -1  325.17   23.80
  15  -7  -1  401.06   26.00
  15   7  -1  344.57   24.20
  15   7  -1  340.57   22.20
 -15   7   1  303.27   27.00
  13  -7  -1  527.25   28.80
 -13  -7   1  569.14   23.00
  13  -7  -1  598.84   30.90
  13   7  -1  526.45   27.50
 -13   7   1  463.55   32.20
 -13   7   1  523.05   29.40
  13   7  -1  553.44   29.70
 -11  -7   1  221.68   11.30
  11  -7  -1  222.58   16.20
  11  -7  -1  237.58   16.90
 -11   7   1  214.88   16.80
  11   7  -1  190.58   16.10
 -11   7   1  192.08   19.70
  11   7  -1  225.38   15.40
   9  -7  -1  272.47   16.90
   9  -7  -1  256.67   16.60
  -9  -7   1  250.97   11.60
  -9  -7   1  256.87   11.30
  -9   7   1  240.58   20.50
  -9   7   1  268.37   16.40
  -9   7   1  245.18   18.10
  -9   7   1  264.07   16.40
   9   7  -1  256.47   17.90
   9   7  -1  244.48   15.80
  -7  -7   1 1558.04   58.09
  -7  -7   1 1531.85   50.39
   7  -7  -1 1593.74   56.99
  -7  -7   1 1539.95   50.39
   7  -7  -1 1555.14   59.79
   7  -7  -1 1549.94   56.89
   7   7  -1 1643.94   57.59
   7   7  -1 1542.25   59.69
  -7   7   1 1679.23   56.39
  -7   7   1 1585.04   59.99
   7   7  -1 1575.84   58.99
  -7   7   1 1668.33   56.49
  -7   7   1 1577.24   64.49
   5  -7  -1 1265.97   46.30
  -5  -7   1 1276.77   45.70
   5  -7  -1 1288.57   45.60
  -5  -7   1 1319.77   48.80
   5  -7  -1 1280.37   49.70
  -5  -7   1 1263.77   47.40
  -5  -7   1 1211.78   40.60
  -5   7   1 1335.57   45.50
  -5   7   1 1296.77   46.10
  -5   7   1 1268.47   50.09
  -5   7   1 1235.08   53.69
   5   7  -1 1195.18   49.00
   3  -7  -1  847.12   33.00
  -3  -7   1  829.72   29.20
   3  -7  -1  901.81   37.20
  -3  -7   1  877.71   36.30
  -3  -7   1  860.41   33.10
  -3  -7   1  877.01   34.90
   3  -7  -1  869.31   31.60
  -3   7   1  892.31   31.80
  -3   7   1  877.91   37.60
  -3   7   1  853.21   33.20
  -3   7   1  854.01   39.60
   3   7  -1  839.22   37.30
  -1  -7   1  912.01   35.10
   1  -7  -1  960.50   36.30
   1  -7  -1  994.70   39.20
  -1  -7   1  931.01   38.50
   1  -7  -1  900.91   34.50
  -1  -7   1  917.41   36.90
   1  -7  -1  928.41   31.80
   1   7  -1  935.11   34.00
   1   7  -1  935.61   39.60
   1   7  -1  928.41   39.40
  -1   7   1  939.81   32.30
  -1   7   1  927.51   39.10
  -1   7   1  944.91   41.20
   1  -7   1  751.72   30.00
   1  -7   1  738.83   31.40
  -1  -7  -1  741.33   30.30
   1  -7   1  755.02   28.40
  -1  -7  -1  795.92   33.20
  -1  -7  -1  733.73   28.80
   1  -7   1  742.83   33.40
  -1   7  -1  721.43   29.50
   1   7   1  782.52   33.70
  -1   7  -1  758.52   33.90
  -1   7  -1  757.92   35.00
   3  -7   1 1115.89   39.10
   3  -7   1 1059.79   43.40
   3  -7   1 1076.29   40.10
  -3  -7  -1 1041.50   39.80
  -3  -7  -1 1063.09   38.40
  -3  -7  -1 1060.19   42.20
  -3   7  -1 1012.00   45.00
  -3   7  -1 1066.29   40.40
  -3   7  -1 1025.10   43.40
  -3   7  -1 1090.59   40.60
   3   7   1  978.10   42.40
  -5  -7  -1  676.33   31.10
   5  -7   1  687.33   29.20
  -5  -7  -1  646.14   28.30
   5  -7   1  698.03   28.70
   5  -7   1  659.13   31.70
  -5   7  -1  679.13   29.30
  -5   7  -1  754.52   30.70
   5   7   1  642.24   30.80
  -5   7  -1  672.33   33.90
  -5   7  -1  657.73   32.00
   5   7   1  672.03   28.60
   7  -7   1  917.51   35.60
   7  -7   1  812.02   36.90
   7  -7   1  862.21   35.70
   7   7   1  849.72   34.40
  -7   7  -1  801.02   39.80
  -7   7  -1  884.91   36.60
  -7   7  -1  829.82   38.20
   7   7   1  804.62   36.80
  -7   7  -1  814.32   34.70
   9  -7   1  597.04   30.30
   9  -7   1  692.03   30.70
  -9   7  -1  608.24   34.30
   9   7   1  652.03   29.00
   9   7   1  671.23   32.20
  -9   7  -1  644.24   32.70
  11  -7   1  124.79   12.40
  11  -7   1  109.29   12.80
 -11  -7  -1  100.59    6.80
 -11   7  -1   94.79   14.10
  11   7   1   91.49   10.60
  11   7   1  114.09   13.80
 -11   7  -1  104.39   16.00
  13  -7   1  192.78   16.80
  13  -7   1  190.28   18.00
 -13   7  -1  166.28   19.60
  13   7   1  175.48   16.80
  13   7   1  159.08   14.50
  14  -8  -1  359.46   25.60
 -14  -8   1  382.56   17.50
  14  -8  -1  414.26   26.00
  14   8  -1  370.46   23.40
 -14   8   1  383.56   26.40
 -14   8   1  371.06   29.70
  14   8  -1  344.57   24.20
  12  -8  -1  611.04   31.40
 -12  -8   1  615.74   22.60
 -12  -8   1  570.04   22.40
  12  -8  -1  642.14   31.60
 -12   8   1  579.94   37.00
  12   8  -1  549.65   28.90
 -12   8   1  580.54   32.30
  12   8  -1  598.44   32.30
  10  -8  -1 1240.88   48.20
  10  -8  -1 1164.78   47.90
 -10  -8   1 1175.58   38.60
 -10  -8   1 1233.98   38.60
 -10   8   1 1112.29   49.80
  10   8  -1 1217.68   50.69
  10   8  -1 1130.69   46.80
 -10   8   1 1147.19   54.79
   8  -8  -1 1811.02   62.89
  -8  -8   1 1802.12   54.09
   8  -8  -1 1720.33   63.09
  -8  -8   1 1667.03   53.79
  -8   8   1 1718.73   61.99
  -8   8   1 1836.92   62.29
  -8   8   1 1665.63   65.99
   8   8  -1 1714.83   66.49
  -8   8   1 1662.63   71.29
   8   8  -1 1652.73   62.69
  -6  -8   1 1071.09   35.50
   6  -8  -1 1142.29   41.80
  -6  -8   1 1082.39   41.50
   6  -8  -1 1099.69   42.60
  -6  -8   1 1026.00   35.00
  -6   8   1 1102.89   50.89
  -6   8   1 1111.39   42.40
  -6   8   1 1182.78   42.00
   6   8  -1 1032.00   45.70
  -6   8   1 1131.99   47.00
   4  -8  -1 1104.39   42.50
   4  -8  -1 1184.88   41.10
  -4  -8   1 1133.49   42.50
  -4  -8   1 1116.59   37.00
  -4   8   1 1176.68   41.30
   4   8  -1 1074.59   47.00
  -4   8   1 1194.08   43.40
  -4   8   1 1094.19   50.19
  -4   8   1 1093.09   46.70
   2  -8  -1 2082.29   74.89
  -2  -8   1 2027.40   69.69
  -2  -8   1 2099.59   65.89
   2  -8  -1 2035.30   69.59
  -2  -8   1 2007.90   74.39
   2  -8  -1 2123.59   66.49
   2  -8  -1 1972.20   71.39
  -2   8   1 2033.80   75.39
  -2   8   1 2056.29   78.59
  -2   8   1 2065.19   66.99
   2   8  -1 1980.20   74.99
   0  -8  -1 2053.59   80.39
   0  -8   1 2192.08   81.29
   0  -8   1 2039.10   87.59
   0  -8   1 2048.99   71.39
   0  -8  -1 2072.09   70.39
   0  -8  -1 2020.20   71.99
   0  -8  -1 2104.79   65.49
   0  -8   1 2092.69   68.19
   0   8  -1 2192.88   78.69
   0   8  -1 2048.00   70.09
   0   8   1 2095.99   66.09
   0   8  -1 2078.89   77.09
   0   8   1 2156.88   76.79
   0   8   1 2150.78   78.89
  -2  -8  -1 2359.26   77.69
   2  -8   1 2297.07   79.19
   2  -8   1 2415.16   77.09
   2   8   1 2327.87   83.99
  -2   8  -1 2355.76   86.49
  -2   8  -1 2336.47   78.99
  -2   8  -1 2266.27   84.19
  -4  -8  -1 1981.70   67.19
   4  -8   1 1958.60   69.09
   4  -8   1 1980.80   67.39
  -4   8  -1 1841.72   75.39
  -4   8  -1 2071.09   69.89
  -4   8  -1 1995.50   73.99
  -4   8  -1 1960.70   69.39
   4   8   1 1950.80   72.79
   6  -8   1  759.12   32.80
   6  -8   1  781.92   31.50
   6   8   1  718.23   34.90
   6   8   1  688.93   31.30
  -6   8  -1  751.52   38.60
  -6   8  -1  730.73   33.00
  -6   8  -1  702.23   35.40
   8  -8   1  668.93   29.90
   8  -8   1  637.54   30.80
  -8   8  -1  648.14   36.00
  -8   8  -1  629.24   33.50
   8   8   1  647.34   29.60
   8   8   1  633.54   32.70
  10  -8   1  908.61   41.00
  10  -8   1  965.20   40.20
  10   8   1  903.51   42.50
  10   8   1  890.51   38.80
 -10   8  -1  906.71   46.20
 -10   8  -1  889.21   43.00
  12  -8   1  630.14   33.60
  12  -8   1  663.43   32.90
  12   8   1  584.74   34.10
 -12   8  -1  619.94   34.70
  12   8   1  636.74   31.00
 -12   8  -1  586.44   36.90
  13  -9  -1   83.59   13.10
  13  -9  -1   62.79   12.10
 -13   9   1   82.39   17.80
 -13   9   1   72.19   13.60
  13   9  -1   60.19   10.50
  13   9  -1   69.39   12.40
  11  -9  -1  165.38   14.80
  11  -9  -1  135.29   14.90
  11   9  -1  141.49   17.00
 -11   9   1  127.39   19.40
  11   9  -1  117.79   13.20
 -11   9   1  143.09   16.70
   9  -9  -1  144.49   12.30
   9  -9  -1  121.39   12.40
   9   9  -1  130.19   13.10
  -9   9   1  127.49   15.00
   9   9  -1  121.19   14.00
  -9   9   1  128.09   18.90
  -7  -9   1   47.30    7.90
   7  -9  -1   65.99    8.00
   7  -9  -1   58.79    9.40
  -7   9   1   59.79    9.00
   7   9  -1   45.70   10.50
  -7   9   1   44.60   10.10
  -7   9   1   66.99   14.10
  -7   9   1   70.89    9.60
  -5  -9   1  225.78    9.80
  -5  -9   1  229.18   15.10
   5  -9  -1  260.87   14.60
   5  -9  -1  272.97   16.50
  -5   9   1  314.17   18.00
  -5   9   1  297.17   16.00
  -5   9   1  262.47   19.60
  -5   9   1  226.78   21.10
   5   9  -1  255.07   20.00
  -3  -9   1  199.08   13.40
   3  -9  -1  221.58   14.20
  -3  -9   1  210.88    9.70
   3  -9  -1  220.18   11.80
  -3   9   1  204.98   12.50
  -3   9   1  183.28   16.30
   3   9  -1  198.38   17.20
  -3   9   1  218.68   20.10
  -1  -9   1  125.29   10.50
   1  -9  -1  108.09    9.60
   1  -9  -1  123.39    7.30
  -1  -9   1  119.09    7.60
  -1   9   1   99.49   12.40
  -1   9   1  118.49    8.00
   1   9  -1   87.39   13.10
   1   9  -1  107.39    9.20
   1   9  -1  110.19   13.40
  -1   9   1   97.49   15.60
   1  -9   1  212.08   11.40
   1  -9   1  176.88   13.20
  -1  -9  -1  184.28   12.70
  -1   9  -1  188.38   18.10
   1   9   1  151.58   15.30
  -1   9  -1  202.88   13.50
  -1   9  -1  200.98   17.30
   1   9   1  214.18   18.30
  -3  -9  -1   92.59    9.20
   3  -9   1   76.39    9.10
   3  -9   1  105.09    8.50
  -3   9  -1   95.29   13.30
   3   9   1   95.19   13.30
  -3   9  -1   92.99   15.50
  -3   9  -1   94.79   10.80
   5  -9   1  129.89   11.60
   5  -9   1  141.09   10.80
  -5  -9  -1  133.09   11.00
  -5   9  -1  138.89   15.40
  -5   9  -1  146.99   17.00
   5   9   1  117.09   13.90
  -5   9  -1  125.99   13.40
   7  -9   1  172.78   13.00
   7  -9   1  169.28   14.10
  -7  -9  -1  175.88   13.00
   7   9   1  153.98   15.90
  -7   9  -1  157.38   17.00
  -7   9  -1  166.48   19.00
   9  -9   1   66.79   10.90
   9  -9   1   87.89   10.60
   9   9   1   67.09   12.70
  -9   9  -1  103.79   17.80
   9   9   1   74.99   10.70
  -9   9  -1   57.49   11.40
  11  -9   1   54.09   11.20
  11  -9   1   69.59   10.80
  11   9   1   66.09   13.10
 -11   9  -1   59.39   12.70
 -11   9  -1   57.09   15.10
  11   9   1   53.79    9.70
  10 -10  -1  123.29   14.60
  10 -10  -1  133.49   12.90
 -10 -10   1  123.59   12.80
 -10  10   1  124.29   17.40
 -10  10   1  136.79   21.50
  10  10  -1  109.79   15.90
  -8 -10   1  392.46   22.60
   8 -10  -1  442.66   22.60
   8 -10  -1  394.66   23.50
   8  10  -1  421.36   28.10
  -8  10   1  439.96   28.10
  -8  10   1  360.06   30.40
   6 -10  -1  483.75   25.00
  -6 -10   1  445.16   23.30
   6 -10  -1  477.75   22.40
  -6  10   1  462.45   23.60
   6  10  -1  449.16   29.40
  -6  10   1  447.46   28.80
  -6  10   1  438.26   32.10
  -4 -10   1  165.78    7.70
   4 -10  -1  187.98   11.60
  -4 -10   1  146.49   12.60
   4 -10  -1  201.68   14.30
  -4  10   1  211.88   13.70
   4  10  -1  145.89   16.20
  -4  10   1  195.68   21.00
  -4  10   1  227.58   18.40
  -2 -10   1  204.18   14.60
  -2 -10   1  215.58   10.30
   2 -10  -1  243.98   11.70
   2 -10  -1  201.98   14.40
   2  10  -1  198.38   19.00
   2  10  -1  215.58   19.80
  -2  10   1  184.38   18.10
  -2  10   1  179.28   12.10
  -2  10   1  226.68   22.40
   0 -10  -1  510.15   25.20
   0 -10   1  522.75   21.50
   0 -10   1  528.45   25.90
   0  10  -1  570.74   31.80
   0  10  -1  545.35   33.40
   0  10   1  569.44   31.80
   0  10   1  510.95   32.50
   0  10  -1  541.55   24.50
  -2 -10  -1  382.76   20.50
   2 -10   1  420.96   18.80
   2 -10   1  382.76   21.70
  -2  10  -1  430.86   29.00
  -2  10  -1  410.66   21.90
   2  10   1  370.56   27.10
  -2  10  -1  406.36   26.80
   2  10   1  360.96   24.90
   4 -10   1  212.08   13.60
  -4 -10  -1  220.78   15.00
   4 -10   1  212.18   15.90
   4  10   1  210.28   18.80
  -4  10  -1  238.08   20.30
  -4  10  -1  238.08   22.30
  -4  10  -1  202.58   16.60
   6 -10   1  175.28   15.40
   6 -10   1  213.58   14.10
  -6 -10  -1  169.78   13.60
  -6  10  -1  184.08   17.90
  -6  10  -1  153.88   19.80
   6  10   1  191.08   19.30
  -8 -10  -1  156.98   13.70
   8 -10   1  181.38   14.10
   8 -10   1  151.28   15.40
  -8  10  -1  127.89   17.80
  -8  10  -1  118.99   18.40
   8  10   1  159.58   18.40
  10 -10   1  151.18   14.30
  10 -10   1  146.69   16.50
 -10  10  -1  162.98   23.30
  10  10   1  124.39   18.80
 -10  10  -1  113.69   17.10
  10  10   1  124.59   15.00
  -9 -11   1 1019.60   43.30
   9 -11  -1 1072.59   43.00
   9 -11  -1 1024.80   45.50
   9  11  -1  991.80   50.39
  -9  11   1  997.50   49.99
  -9  11   1  977.20   55.89
   7 -11  -1 1182.38   48.60
   7 -11  -1 1218.88   45.60
  -7 -11   1 1113.89   46.70
  -7  11   1 1181.48   54.19
  -7  11   1 1122.49   58.79
   7  11  -1 1145.49   54.79
   5 -11  -1  772.32   35.70
  -5 -11   1  815.92   35.80
   5 -11  -1  857.61   32.70
   5  11  -1  814.42   42.20
  -5  11   1  736.33   34.00
  -5  11   1  778.32   41.40
  -5  11   1  795.72   46.80
   3 -11  -1 1165.58   40.40
   3 -11  -1 1080.49   45.10
  -3 -11   1 1123.09   36.50
  -3 -11   1 1133.09   45.80
  -3  11   1 1165.48   57.39
  -3  11   1 1152.28   52.19
   3  11  -1 1118.99   54.09
   3  11  -1 1143.19   53.29
  -3  11   1 1068.99   41.80
   1 -11  -1 1283.37   50.29
  -1 -11   1 1320.77   44.10
  -1 -11   1 1286.17   51.09
   1  11  -1 1310.77   60.69
   1  11  -1 1298.67   58.29
  -1  11   1 1298.37   62.29
  -1  11   1 1336.57   58.79
   1 -11   1  826.62   30.10
  -1 -11  -1  757.12   33.90
   1 -11   1  783.52   35.30
   1  11   1  775.12   44.40
  -1  11  -1  770.22   43.70
  -1  11  -1  782.12   41.30
  -1  11  -1  740.13   33.30
   1  11   1  799.02   41.60
   3 -11   1  977.10   41.70
  -3 -11  -1  968.30   39.90
   3 -11   1  997.70   37.20
  -3  11  -1  991.50   51.29
  -3  11  -1 1004.00   48.60
  -3  11  -1  909.71   41.30
   3  11   1  952.20   49.40
   3  11   1  940.81   47.60
  -5 -11  -1  915.91   38.80
   5 -11   1  941.91   41.30
   5 -11   1  941.91   37.20
  -5  11  -1  911.41   49.40
  -5  11  -1  951.70   47.30
   5  11   1  857.61   45.80
  -7 -11  -1  588.84   28.90
   7 -11   1  595.34   27.80
   7 -11   1  554.64   30.60
  -7  11  -1  563.44   38.80
  -7  11  -1  524.35   34.10
   7  11   1  542.95   35.20
  -4 -12   1  228.38   17.70
   4 -12  -1  224.28   18.10
   4 -12  -1  236.58   14.00
  -4  12   1  204.88   25.50
   4  12  -1  204.78   22.50
   4  12  -1  185.98   21.30
  -4  12   1  194.48   21.40
  -2 -12   1  244.58   18.30
   2 -12  -1  257.77   18.40
  -2 -12   1  242.18   11.00
  -2  12   1  239.48   22.10
   2  12  -1  227.48   23.20
  -2  12   1  242.88   26.80
   2  12  -1  221.38   24.50
   0 -12  -1  234.48   17.60
   0 -12   1  262.47   18.80
   0 -12   1  253.87   12.90
   0  12   1  220.78   23.30
   0  12   1  214.98   26.00
   0  12  -1  211.38   22.80
   0  12  -1  223.88   25.30
   2 -12   1  173.18   15.70
   2 -12   1  147.09   10.90
  -2 -12  -1  143.29   14.90
   2  12   1  117.49   20.40
  -2  12  -1  156.38   23.70
  20   0  -2  771.92   38.80
 -20   0   2  754.62   40.30
 -18   0   2  564.74   31.40
  18   0  -2  601.34   31.10
  16   0  -2  635.74   30.80
 -16   0   2  661.63   32.70
  16   0  -2  661.13   30.50
  14   0  -2 1856.41   63.99
  14   0  -2 1957.70   68.09
 -14   0   2 1735.23   67.19
 -14   0   2 1864.21   64.79
  14   0  -2 1800.22   65.69
  14   0  -2 1847.72   69.99
 -14   0   2 1893.61   65.59
 -12   0   2 1163.58   44.70
  12   0  -2 1162.88   46.20
  12   0  -2 1112.99   42.70
  12   0  -2 1159.28   41.30
 -12   0   2 1182.88   42.50
  12   0  -2 1121.19   43.70
 -12   0   2 1188.18   42.40
  10   0  -2 2196.38   72.79
  10   0  -2 2171.08   71.89
 -10   0   2 2160.08   73.59
 -10   0   2 2121.39   70.99
  10   0  -2 2235.38   74.89
 -10   0   2 2174.98   71.29
   8   0  -2 5434.96  158.48
  -8   0   2 5319.27  157.98
  -8   0   2 4855.01  159.58
   8   0  -2 5119.59  160.48
   8   0  -2 5061.59  158.98
  -8   0   2 5009.60  157.48
  -6   0   2 2657.53   83.69
   6   0  -2 2583.94   83.59
   6   0  -2 2707.23   85.59
  -6   0   2 2700.03   85.19
  -6   0   2 2785.12   83.79
  -4   0  -2 7627.14  233.38
  -6   0  -2 3108.59  107.89
   6   0   2 3426.76  105.59
  -6   0  -2 3437.56  104.99
   6   0   2 3496.85  106.89
  -6   0  -2 3381.86  105.89
   6   0   2 3245.48  106.39
   8   0   2 2154.08   72.19
  -8   0  -2 2284.37   76.19
   8   0   2 2194.18   74.19
  -8   0  -2 2086.39   72.49
   8   0   2 2118.89   72.69
  -8   0  -2 2221.18   71.59
 -10   0  -2 1518.95   56.49
 -10   0  -2 1549.14   54.79
  10   0   2 1482.45   55.39
  10   0   2 1488.25   55.99
  10   0   2 1546.15   57.99
 -10   0  -2 1715.13   60.39
  10   0   2 1661.53   56.79
  12   0   2  963.00   38.50
  12   0   2  935.11   37.90
  12   0   2  926.71   41.80
 -12   0  -2  826.62   37.50
  14   0   2  608.94   29.60
  14   0   2  565.44   28.60
 -14   0  -2  554.34   29.10
 -16   0  -2  405.56   26.30
  16   0   2  486.65   27.20
  16   0   2  438.76   26.10
  19  -1  -2    1.10    6.30
 -19  -1   2    7.70    7.10
  19   1  -2    4.00    6.50
 -19   1   2    8.60    7.80
  17  -1  -2   61.39   10.40
 -17  -1   2   51.89    9.50
  17  -1  -2   59.39   11.20
  17   1  -2   49.90    9.30
 -17   1   2   53.19   10.80
  15  -1  -2  461.85   24.40
  15  -1  -2  502.55   26.60
  15  -1  -2  514.05   23.80
 -15  -1   2  485.85   25.60
  15   1  -2  469.35   24.30
 -15   1   2  437.16   25.20
  13  -1  -2  414.16   21.10
 -13  -1   2  434.26   21.00
 -13  -1   2  432.26   22.50
  13  -1  -2  451.95   20.40
  13  -1  -2  439.06   23.00
 -13  -1   2  442.16   20.70
  13  -1  -2  408.76   24.50
  13   1  -2  424.26   24.00
 -13   1   2  438.46   21.20
  13   1  -2  406.96   21.00
 -13   1   2  459.45   23.70
 -13   1   2  428.56   20.60
 -11  -1   2  309.77   15.30
  11  -1  -2  324.17   17.50
  11  -1  -2  339.17   19.00
  11  -1  -2  304.87   15.00
 -11  -1   2  299.57   16.80
 -11  -1   2  335.07   16.20
  11  -1  -2  306.97   16.10
 -11   1   2  332.67   16.10
 -11   1   2  319.07   17.80
  11   1  -2  322.27   18.50
 -11   1   2  333.97   15.80
  11   1  -2  320.77   16.30
  -9  -1   2 1232.18   43.90
   9  -1  -2 1204.58   43.90
   9  -1  -2 1202.38   42.50
  -9  -1   2 1256.87   42.50
   9  -1  -2 1198.38   45.40
   9  -1  -2 1238.58   41.50
  -9  -1   2 1196.78   41.70
   9   1  -2 1265.67   45.00
   9   1  -2 1251.77   43.00
  -9   1   2 1225.18   42.20
  -9   1   2 1200.48   44.70
  -7  -1   2 1885.11   60.99
   7  -1  -2 1892.31   59.89
  -7  -1   2 1834.82   59.39
   7  -1  -2 1924.91   62.69
   7  -1  -2 1769.82   60.69
   7  -1  -2 1838.02   58.69
  -7  -1   2 1811.82   59.79
  -7   1   2 1835.72   59.39
   7   1  -2 1932.91   60.39
  -7   1   2 1777.52   61.89
   7   1  -2 1879.31   61.59
  -7   1   2 1871.21   59.59
   5  -1  -2  951.40   29.10
  -5  -1   2  893.01   30.00
   5  -1  -2  859.71   29.50
   5  -1  -2  866.51   31.70
  -5  -1   2  911.31   30.50
   5   1  -2  895.91   28.80
  -5   1   2  873.41   31.80
  -5   1   2  863.21   28.70
   5   1  -2  869.11   30.00
   5   1  -2  969.90   31.10
  -5   1   2  884.71   29.30
   3  -1  -2 3378.66  100.49
  -3  -1   2 3399.06  100.79
  -3  -1   2 3308.07  100.29
   3  -1  -2 3344.67  102.79
  -3   1   2 3231.58  100.49
   3   1  -2 3210.78  100.49
  -3   1   2 3381.26  102.89
  -1  -1   2 2039.30   62.29
  -1  -1   2 2019.50   62.49
   1   1  -2 2027.10   63.49
  -1   1   2 1994.90   62.29
   1   1  -2 2066.29   62.39
   1   1  -2 2038.30   62.59
  -1   1   2 2031.90   62.29
  -1  -1  -2  112.79    5.40
   1  -1   2  109.69    5.90
   1  -1   2  113.89    5.20
   1  -1   2  119.49    5.60
  -1  -1  -2  113.19    4.80
   1   1   2  110.19    5.30
   1   1   2  108.39    4.80
  -1   1  -2  112.99    5.60
  -1   1  -2  129.89    5.20
  -1   1  -2  126.69    6.20
   3  -1   2  786.22   29.20
   3  -1   2  835.52   28.10
  -3  -1  -2  801.12   28.20
   3  -1   2  815.42   27.70
  -3  -1  -2  829.52   27.00
   3  -1   2  805.12   28.50
   3   1   2  806.42   27.90
   3   1   2  761.72   27.70
  -3   1  -2  801.02   27.70
   3   1   2  816.02   27.10
  -3   1  -2  828.82   27.50
  -3   1  -2  788.92   29.80
   5  -1   2 1402.06   51.29
  -5  -1  -2 1542.25   49.40
   5  -1   2 1476.15   49.90
  -5  -1  -2 1475.95   50.09
  -5  -1  -2 1357.26   50.79
   5  -1   2 1623.94   51.29
   5  -1   2 1578.94   51.09
  -5   1  -2 1482.35   52.99
   5   1   2 1480.15   49.80
   5   1   2 1573.74   50.89
   5   1   2 1540.55   49.70
  -5   1  -2 1529.15   49.60
  -5   1  -2 1523.95   50.39
   7  -1   2  493.75   20.80
  -7  -1  -2  519.05   20.40
  -7  -1  -2  482.15   21.00
   7  -1   2  504.65   22.10
  -7  -1  -2  452.75   22.00
   7  -1   2  504.25   21.50
   7  -1   2  450.75   21.50
   7   1   2  524.95   22.10
  -7   1  -2  554.04   24.40
   7   1   2  481.25   20.30
  -7   1  -2  473.15   21.00
   7   1   2  465.25   20.10
  -7   1  -2  476.65   20.00
   9  -1   2  844.12   34.20
   9  -1   2  876.81   35.40
   9  -1   2  870.01   34.30
  -9  -1  -2  792.72   33.20
  -9  -1  -2  818.12   35.10
   9  -1   2  832.62   33.10
  -9  -1  -2  821.72   32.20
   9   1   2  799.02   32.10
  -9   1  -2  823.72   32.10
   9   1   2  845.12   34.70
  -9   1  -2  989.60   38.10
  -9   1  -2  800.62   33.40
   9   1   2  821.62   32.50
  11  -1   2  486.95   23.70
 -11  -1  -2  469.55   23.80
  11  -1   2  501.85   24.70
 -11  -1  -2  499.85   26.10
  11  -1   2  469.35   26.00
  11   1   2  505.15   23.50
 -11   1  -2  579.84   31.70
  11   1   2  445.36   25.40
 -11   1  -2  441.76   23.70
  11   1   2  491.15   23.00
  13  -1   2  190.08   14.60
  13  -1   2  203.08   15.40
 -13  -1  -2  160.58   14.30
 -13   1  -2  159.68   14.20
  13   1   2  186.48   13.70
  13   1   2  174.68   13.80
  15  -1   2  200.38   16.80
 -15  -1  -2  188.98   16.40
  15  -1   2  177.88   15.80
 -15   1  -2  175.88   16.20
  15   1   2  181.28   15.80
  15   1   2  191.38   15.70
  17  -1   2  131.39   16.40
  17  -1   2   84.09   14.30
 -17  -1  -2   98.19   14.40
 -17   1  -2  110.79   16.30
  17   1   2   78.99   13.50
  17   1   2  133.19   15.50
  20  -2  -2   56.09   11.50
 -20  -2   2   38.40    9.60
  20   2  -2   61.49   11.70
  20   2  -2   50.39   10.50
 -20   2   2   55.99   13.20
  18  -2  -2   34.10   10.60
 -18  -2   2   27.10    8.60
  18  -2  -2   32.40    8.80
 -18   2   2   13.90    8.50
  18   2  -2   27.70    8.00
  18   2  -2   44.40    8.60
  16  -2  -2  135.29   14.30
  16  -2  -2  117.19   12.60
 -16  -2   2  118.79   12.10
  16   2  -2  130.59   12.50
 -16   2   2  123.89   14.20
 -14  -2   2  456.85   21.90
 -14  -2   2  438.16   23.30
  14  -2  -2  423.96   22.60
  14  -2  -2  457.45   22.10
  14  -2  -2  429.36   24.80
 -14   2   2  416.26   24.20
  14   2  -2  416.86   22.20
 -14   2   2  496.65   22.50
  12  -2  -2  369.56   19.20
  12  -2  -2  381.86   21.00
  12  -2  -2  367.76   22.20
 -12  -2   2  417.76   18.50
 -12  -2   2  368.56   19.70
  12  -2  -2  415.76   18.80
 -12  -2   2  374.86   18.90
  12   2  -2  399.56   21.50
 -12   2   2  374.76   18.30
 -12   2   2  408.96   19.50
 -12   2   2  385.36   21.40
  12   2  -2  354.56   18.90
  10  -2  -2  818.92   29.80
  10  -2  -2  809.22   33.80
 -10  -2   2  760.42   29.00
 -10  -2   2  817.72   30.50
  10  -2  -2  718.63   31.70
 -10  -2   2  768.92   31.10
  10  -2  -2  758.82   30.20
  10   2  -2  831.82   32.80
  10   2  -2  806.52   29.60
 -10   2   2  778.62   30.00
 -10   2   2  843.42   30.00
 -10   2   2  718.23   32.50
  10   2  -2  780.12   30.50
   8  -2  -2 1079.69   36.30
  -8  -2   2 1057.59   36.80
   8  -2  -2  985.60   37.90
  -8  -2   2 1037.60   35.80
  -8  -2   2 1027.80   37.40
   8  -2  -2 1074.29   40.10
   8  -2  -2  938.41   36.20
  -8   2   2 1085.69   40.00
   8   2  -2 1060.89   37.10
  -8   2   2 1049.09   36.00
   8   2  -2 1072.09   38.50
   8   2  -2 1071.19   36.00
  -8   2   2 1056.89   35.90
  -8   2   2 1012.00   36.10
  -6  -2   2  738.83   25.70
   6  -2  -2  748.63   25.30
   6  -2  -2  690.03   24.90
  -6  -2   2  683.13   25.50
   6  -2  -2  728.73   28.00
   6  -2  -2  693.73   26.10
   6   2  -2  730.83   24.80
  -6   2   2  711.63   24.90
  -6   2   2  608.64   27.20
   6   2  -2  686.73   25.40
  -6   2   2  721.53   24.60
  -6   2   2  714.63   24.90
   4  -2  -2 1646.34   52.09
   4  -2  -2 1669.13   54.29
  -4  -2   2 1615.44   51.29
   4  -2  -2 1651.23   51.99
   4  -2  -2 1555.24   50.79
  -4  -2   2 1592.54   51.99
   4   2  -2 1648.04   52.09
  -4   2   2 1621.84   51.79
  -4   2   2 1576.64   50.59
   4   2  -2 1665.23   51.99
  -4   2   2 1536.75   50.79
  -4   2   2 1699.23   54.89
   4   2  -2 1621.74   51.69
  -2  -2   2  141.89    6.50
  -2  -2   2  139.49    6.80
  -2  -2   2  135.39    7.00
  -2  -2   2  152.68    7.20
   2  -2  -2  128.49    5.50
   2  -2  -2  138.09    6.80
  -2   2   2  133.79    6.80
   2   2  -2  137.09    6.90
  -2   2   2  139.89    5.50
   2   2  -2  140.29    7.20
  -2   2   2  140.59    8.20
   2   2  -2  132.39    6.90
  -2   2   2  145.49    5.70
   0  -2  -2   78.79    4.80
   0  -2   2   72.39    4.70
   0  -2   2   78.99    5.10
   0  -2  -2   66.79    3.40
   0  -2   2   65.29    4.30
   0   2  -2   68.99    4.40
   0   2   2   69.79    3.50
   0   2   2   66.49    4.40
   0   2  -2   68.49    4.80
   0   2  -2   82.49    5.30
   0   2  -2   65.99    4.30
   0   2   2   70.09    3.20
  -2  -2  -2  702.33   22.40
   2  -2   2  620.54   23.20
   2  -2   2  658.33   24.10
  -2  -2  -2  659.93   21.80
   2  -2   2  610.94   24.10
   2  -2   2  701.83   23.70
  -2   2  -2  692.23   23.70
  -2   2  -2  675.63   25.30
   2   2   2  649.83   21.90
   2   2   2  617.04   23.70
  -2   2  -2  646.74   24.20
  -2   2  -2  662.83   23.50
   2   2   2  657.83   22.10
   4  -2   2  280.47   13.30
   4  -2   2  273.67   12.60
  -4  -2  -2  284.27   11.80
  -4  -2  -2  257.57   11.80
   4  -2   2  291.67   13.40
   4  -2   2  249.68   13.60
  -4   2  -2  279.77   12.40
   4   2   2  262.37   11.60
  -4   2  -2  275.67   14.50
  -4   2  -2  276.47   13.30
   4   2   2  274.97   12.90
   4   2   2  262.57   11.00
  -4   2  -2  274.07   12.90
  -6  -2  -2  397.56   16.70
   6  -2   2  383.96   18.00
   6  -2   2  407.66   18.60
  -6  -2  -2  364.96   17.30
   6  -2   2  411.56   17.80
   6  -2   2  360.76   18.30
   6   2   2  391.76   16.00
  -6   2  -2  404.36   18.20
   6   2   2  403.96   16.80
   6   2   2  411.16   18.40
  -6   2  -2  399.96   17.00
  -8  -2  -2  161.98   10.10
   8  -2   2  158.48   12.00
  -8  -2  -2  139.79   10.80
   8  -2   2  156.98   11.00
   8  -2   2  162.98   11.60
   8  -2   2  139.99   10.00
   8   2   2  152.28    9.90
   8   2   2  152.28   11.50
  -8   2  -2  148.29    9.80
  -8   2  -2  147.99   10.90
   8   2   2  154.68    9.30
  -8   2  -2  180.68   13.60
 -10  -2  -2   76.99    8.70
  10  -2   2   86.79   11.40
  10  -2   2   71.89    8.50
  10  -2   2   67.49    9.60
  10  -2   2   81.79    8.60
 -10  -2  -2   76.19    9.20
  10   2   2   73.59    7.10
  10   2   2   81.79    8.00
 -10   2  -2   75.39    8.30
  10   2   2   79.99   11.20
 -10   2  -2   74.99   11.00
 -10   2  -2   70.79    8.80
 -12  -2  -2  241.28   17.50
  12  -2   2  200.28   18.60
  12  -2   2  214.18   15.40
  12  -2   2  216.08   16.00
 -12   2  -2  214.38   15.90
  12   2   2  225.78   14.20
  12   2   2  227.08   14.90
  14  -2   2  141.39   14.00
  14  -2   2  163.78   14.80
  14   2   2  155.08   13.10
 -14   2  -2  125.59   13.90
  14   2   2  142.99   12.60
  16  -2   2   61.19   11.80
  16  -2   2   53.69   10.70
  16   2   2   44.00    9.20
 -16   2  -2   57.49   11.20
  16   2   2   66.89   10.80
  19  -3  -2  348.47   25.00
  19  -3  -2  377.86   28.40
 -19  -3   2  392.26   25.40
  19   3  -2  376.86   24.40
  19   3  -2  348.67   22.80
 -19   3   2  356.26   26.70
  17  -3  -2  539.55   28.90
  17  -3  -2  559.74   32.40
 -17  -3   2  507.85   28.00
 -17   3   2  527.75   31.20
  17   3  -2  510.45   26.60
  17   3  -2  506.55   27.60
 -15  -3   2 1153.98   42.90
 -15  -3   2 1043.40   44.30
  15  -3  -2 1124.49   44.10
  15  -3  -2 1067.89   44.40
  15  -3  -2 1039.30   47.30
  15   3  -2 1072.19   42.70
  15   3  -2 1114.39   44.20
 -15   3   2 1016.10   46.80
  13  -3  -2 1622.34   62.59
 -13  -3   2 1596.34   56.99
  13  -3  -2 1536.65   57.49
  13  -3  -2 1605.24   56.69
 -13  -3   2 1727.13   55.79
 -13  -3   2 1412.46   57.09
  13  -3  -2 1353.26   59.09
  13   3  -2 1666.33   56.59
  13   3  -2 1608.04   57.39
 -13   3   2 1587.44   61.79
 -13   3   2 1632.04   56.09
 -13   3   2 1550.54   60.89
  11  -3  -2 1815.52   67.59
 -11  -3   2 1942.51   63.79
  11  -3  -2 1866.71   62.99
  11  -3  -2 1773.52   63.49
 -11  -3   2 1807.72   61.19
 -11  -3   2 1773.02   63.79
 -11   3   2 1874.21   62.29
 -11   3   2 1911.41   63.49
  11   3  -2 1823.92   63.49
  11   3  -2 1879.81   66.29
 -11   3   2 1805.32   67.39
  11   3  -2 1770.72   62.29
   9  -3  -2 1318.27   53.49
   9  -3  -2 1546.95   56.09
  -9  -3   2 1480.55   52.49
  -9  -3   2 1537.05   50.69
  -9  -3   2 1561.24   52.59
   9  -3  -2 1491.65   52.19
   9  -3  -2 1607.94   52.49
  -9   3   2 1536.45   51.09
   9   3  -2 1544.65   52.59
  -9   3   2 1525.65   56.39
   9   3  -2 1573.24   54.29
  -9   3   2 1513.85   51.89
  -9   3   2 1491.35   51.89
   9   3  -2 1536.25   51.89
   7  -3  -2 3359.66  107.49
   7  -3  -2 3259.27  103.29
   7  -3  -2 2783.22  103.99
  -7  -3   2 3259.37  103.69
   7  -3  -2 3453.65  104.19
  -7   3   2 3295.47  107.89
   7   3  -2 3259.97  103.89
  -7   3   2 3352.56  102.99
  -7   3   2 3409.66  103.89
   7   3  -2 3251.57  103.19
  -7   3   2 3217.98  102.29
   7   3  -2 3487.45  105.19
   5  -3  -2 6581.94  193.68
   5  -3  -2 6057.69  191.68
  -5  -3   2 6852.71  193.38
  -5  -3   2 6091.69  192.08
   5  -3  -2 6310.17  195.78
   5  -3  -2 5471.15  192.18
   5   3  -2 6777.82  193.28
   5   3  -2 6047.99  192.68
  -5   3   2 6347.56  196.88
  -5   3   2 6286.67  191.28
   5   3  -2 6787.02  193.28
  -5   3   2 6136.09  193.08
  -3  -3   2 4866.11  150.58
   3  -3  -2 4950.80  151.18
  -3  -3   2 4907.51  150.58
  -3   3   2 4857.01  148.69
  -3   3   2 4780.12  150.98
   3   3  -2 4964.60  151.38
   3   3  -2 4906.51  150.58
  -3   3   2 4990.90  154.08
   1  -3  -2 2007.00   62.19
   1  -3  -2 2005.20   61.69
  -1  -3   2 2048.40   64.89
  -1  -3   2 2006.40   63.39
  -1  -3   2 1981.50   63.19
   1  -3  -2 1984.40   64.09
  -1  -3   2 1934.71   64.19
  -1   3   2 1971.70   60.29
   1   3  -2 2018.50   63.59
   1   3  -2 1944.11   64.89
   1   3  -2 2088.09   64.19
  -1   3   2 1945.11   64.19
   1  -3   2 3687.33  110.89
  -1  -3  -2 3567.94  107.89
  -1  -3  -2 3694.53  110.29
   1  -3   2 3986.90  110.09
   1  -3   2 3408.46  109.49
  -1   3  -2 3458.65  110.29
  -1   3  -2 3601.44  110.99
   1   3   2 3119.59  109.49
   1   3   2 3680.33  107.99
  -1   3  -2 3024.70  110.09
  -1   3  -2 3533.35  109.59
  -3  -3  -2 3817.62  116.29
   3  -3   2 3939.21  120.99
   3  -3   2 3550.74  120.59
  -3  -3  -2 4004.00  118.39
   3  -3   2 3875.11  120.29
   3  -3   2 3624.04  119.49
   3   3   2 3757.42  115.79
  -3   3  -2 3998.00  119.79
  -3   3  -2 3869.91  120.69
   3   3   2 3914.31  120.49
  -3   3  -2 3866.21  121.19
   3   3   2 3791.42  118.09
  -3   3  -2 3906.21  122.29
   5  -3   2 1737.93   57.99
  -5  -3  -2 1800.82   56.79
   5  -3   2 1642.84   59.09
   5  -3   2 1765.52   58.99
  -5  -3  -2 1599.84   55.29
   5  -3   2 1755.92   58.99
   5   3   2 1676.43   54.19
  -5   3  -2 1767.32   57.59
   5   3   2 1773.92   58.59
  -5   3  -2 1878.31   61.49
  -5   3  -2 1682.63   58.69
  -5   3  -2 1664.23   58.99
   5   3   2 1671.73   58.29
   5   3   2 1704.83   56.29
   7  -3   2 1819.72   62.29
  -7  -3  -2 1753.82   59.19
   7  -3   2 1706.43   61.79
   7  -3   2 1702.63   60.29
   7  -3   2 1790.22   61.39
  -7  -3  -2 1711.63   58.79
  -7   3  -2 1952.70   64.79
   7   3   2 1675.93   58.79
   7   3   2 1803.32   61.79
  -7   3  -2 1747.83   61.49
  -7   3  -2 1761.22   59.59
   7   3   2 1765.02   56.99
   7   3   2 1715.23   60.89
  -9  -3  -2 1839.22   63.39
   9  -3   2 1776.72   65.19
   9  -3   2 1795.62   65.99
   9  -3   2 1702.93   64.29
   9  -3   2 1854.41   67.09
  -9  -3  -2 1844.72   63.79
   9   3   2 1802.42   61.09
  -9   3  -2 2154.18   70.29
   9   3   2 1844.42   63.39
   9   3   2 1860.81   66.29
  -9   3  -2 1921.31   63.89
  -9   3  -2 1836.42   65.99
  11  -3   2  584.34   27.90
  11  -3   2  537.65   26.30
 -11  -3  -2  568.14   26.30
  11  -3   2  520.65   28.80
  11   3   2  525.15   24.90
  11   3   2  540.05   23.30
 -11   3  -2  502.65   26.50
 -13  -3  -2  419.66   23.40
  13  -3   2  387.56   23.10
  13  -3   2  357.26   22.00
  13   3   2  352.16   20.60
  13   3   2  388.16   19.80
 -13   3  -2  337.17   22.30
  13   3   2  354.06   22.00
  15  -3   2  450.85   26.80
  15  -3   2  541.65   29.50
 -15   3  -2  436.16   27.50
  15   3   2  456.25   27.50
  15   3   2  467.75   24.70
  15   3   2  456.75   25.70
  18  -4  -2  225.08   21.20
  18  -4  -2  179.08   17.00
 -18   4   2  193.78   20.70
  18   4  -2  176.38   16.00
  18   4  -2  209.48   17.40
  16  -4  -2  348.17   24.50
  16  -4  -2  377.86   23.10
 -16  -4   2  344.07   27.90
  16   4  -2  338.67   20.70
  16   4  -2  318.57   20.70
 -16   4   2  357.86   25.00
 -14  -4   2  507.85   23.50
  14  -4  -2  478.85   28.20
  14  -4  -2  543.75   26.60
  14  -4  -2  495.35   25.50
  14   4  -2  553.74   26.20
 -14   4   2  590.94   35.80
  14   4  -2  515.95   25.20
 -14   4   2  482.55   28.90
  12  -4  -2  403.06   21.10
  12  -4  -2  413.86   21.50
 -12  -4   2  435.76   19.10
  12  -4  -2  366.16   22.60
 -12  -4   2  403.16   21.00
  12  -4  -2  434.96   25.10
  12   4  -2  443.66   21.50
  12   4  -2  410.06   23.00
 -12   4   2  424.86   19.90
  12   4  -2  416.36   20.60
 -12   4   2  419.26   21.30
 -12   4   2  413.26   24.30
  10  -4  -2  933.01   39.70
  10  -4  -2  918.01   35.50
  10  -4  -2  935.11   35.60
 -10  -4   2  904.81   32.70
 -10  -4   2  920.41   35.50
  10  -4  -2  769.82   36.40
  10   4  -2  903.41   35.00
  10   4  -2  933.31   37.30
 -10   4   2  909.51   35.30
  10   4  -2  919.01   35.50
 -10   4   2  964.00   35.40
 -10   4   2  856.51   39.20
 -10   4   2  929.81   34.00
   8  -4  -2 2276.17   75.69
  -8  -4   2 2194.38   68.89
   8  -4  -2 2124.59   70.99
   8  -4  -2 2222.48   72.39
   8  -4  -2 1789.72   71.69
  -8  -4   2 2163.38   71.39
  -8   4   2 2115.99   76.09
   8   4  -2 2081.59   71.19
  -8   4   2 2206.38   72.09
  -8   4   2 2226.28   70.59
   8   4  -2 2193.58   72.49
  -8   4   2 2197.98   69.89
   8   4  -2 2074.89   71.09
   6  -4  -2  792.72   30.00
   6  -4  -2  704.93   30.50
  -6  -4   2  864.91   31.30
   6  -4  -2  805.72   31.60
   6  -4  -2  906.61   34.60
  -6  -4   2  808.12   30.50
  -6   4   2  871.61   35.60
  -6   4   2  854.41   32.00
  -6   4   2  862.51   29.80
   6   4  -2  829.42   30.90
   6   4  -2  851.61   31.40
  -6   4   2  840.62   29.60
   6   4  -2  828.92   31.40
   4  -4  -2 1094.29   42.70
   4  -4  -2 1275.17   43.00
   4  -4  -2 1394.56   47.30
  -4  -4   2 1346.17   44.80
  -4  -4   2 1341.07   42.80
  -4  -4   2 1253.57   44.40
   4  -4  -2 1341.87   45.60
   4   4  -2 1287.77   45.30
  -4   4   2 1265.47   42.10
  -4   4   2 1328.47   42.90
   4   4  -2 1304.57   44.60
  -4   4   2 1344.97   49.00
  -4   4   2 1295.17   45.70
   2  -4  -2 2801.12   86.89
  -2  -4   2 2745.83   87.99
   2  -4  -2 2779.12   89.59
  -2  -4   2 2823.62   87.29
   2  -4  -2 2813.82   85.89
  -2  -4   2 2852.51   90.09
  -2  -4   2 2835.02   89.39
  -2   4   2 2733.63   89.89
   2   4  -2 2757.12   90.49
  -2   4   2 2809.12   92.39
  -2   4   2 2736.23   86.69
  -2   4   2 2792.12   85.39
   2   4  -2 2834.42   88.19
   0  -4   2 1359.86   47.90
   0  -4  -2 1354.06   44.90
   0  -4  -2 1364.26   44.30
   0  -4   2 1384.66   46.20
   0  -4   2 1347.27   45.50
   0  -4  -2 1375.06   47.10
   0   4  -2 1377.66   46.50
   0   4  -2 1377.36   48.60
   0   4   2 1334.47   47.30
   0   4  -2 1418.66   47.90
   0   4  -2 1432.36   47.20
  -2  -4  -2 1364.96   44.40
   2  -4   2 1283.37   45.80
   2  -4   2 1373.26   46.00
  -2  -4  -2 1369.16   46.80
   2  -4   2 1348.67   47.50
   2   4   2 1348.27   44.40
   2   4   2 1298.77   46.60
  -2   4  -2 1323.17   47.70
  -2   4  -2 1371.26   46.00
  -2   4  -2 1304.27   47.60
  -2   4  -2 1382.26   47.70
   4  -4   2 1140.29   41.60
  -4  -4  -2 1075.69   35.20
   4  -4   2 1130.09   41.10
  -4  -4  -2 1113.99   38.60
   4  -4   2 1101.89   40.00
   4  -4   2 1056.59   41.00
  -4   4  -2 1222.58   43.10
  -4   4  -2 1161.78   42.00
  -4   4  -2 1136.29   40.00
   4   4   2 1164.78   40.80
  -4   4  -2 1113.69   41.70
   4   4   2 1118.19   38.40
   4   4   2 1027.60   40.20
   6  -4   2  613.54   27.80
   6  -4   2  676.63   28.90
   6  -4   2  689.73   28.90
   6  -4   2  663.43   27.70
  -6  -4  -2  646.44   23.80
  -6  -4  -2  703.53   26.60
  -6   4  -2  671.13   27.10
   6   4   2  648.44   25.90
  -6   4  -2  680.03   29.20
   6   4   2  652.93   28.10
  -6   4  -2  662.43   29.00
   6   4   2  663.03   28.20
  -6   4  -2  772.42   31.10
   6   4   2  676.03   23.30
   8  -4   2  639.14   29.00
  -8  -4  -2  690.63   27.30
  -8  -4  -2  708.73   25.80
   8  -4   2  677.33   30.30
   8  -4   2  636.14   28.30
   8  -4   2  619.74   28.80
   8   4   2  647.34   29.50
   8   4   2  618.94   26.40
   8   4   2  623.44   28.50
  -8   4  -2  633.74   29.60
   8   4   2  678.53   24.30
  -8   4  -2  655.93   27.60
  10  -4   2  782.72   34.20
  10  -4   2  778.92   33.60
 -10  -4  -2  760.72   30.60
  10  -4   2  768.62   35.70
  10   4   2  766.42   33.60
  10   4   2  752.32   29.10
 -10   4  -2  733.73   34.20
  10   4   2  754.12   31.50
  12  -4   2  311.87   19.80
 -12  -4  -2  287.47   17.50
  12  -4   2  300.87   19.90
 -12   4  -2  257.97   19.40
  12   4   2  290.07   17.60
  12   4   2  279.97   19.00
  14  -4   2  151.78   15.20
  14  -4   2  114.59   14.20
  14   4   2  150.08   14.70
 -14   4  -2  126.99   14.90
  14   4   2  134.19   13.10
  16  -4   2  120.49   15.50
  16  -4   2   98.79   14.80
  16   4   2   83.49   12.80
 -16   4  -2  102.39   15.80
  16   4   2  129.29   15.20
  17  -5  -2   36.10   11.10
  17  -5  -2   30.40    9.00
  17   5  -2   31.20    8.60
  17   5  -2   25.30    8.00
 -17   5   2   26.50   11.10
  15  -5  -2  107.39   12.90
 -15  -5   2  103.19   10.40
  15  -5  -2   91.09   13.10
  15   5  -2   98.09   11.30
 -15   5   2   98.09   15.30
  15   5  -2  101.39   12.60
  13  -5  -2  109.59   13.30
 -13  -5   2  128.19    9.70
  13  -5  -2  117.99   12.90
  13  -5  -2  134.09   12.50
 -13   5   2  132.49   14.50
  13   5  -2  112.09   11.20
 -13   5   2  126.09   11.80
  13   5  -2  126.49   11.40
 -13   5   2  104.19   11.00
  11  -5  -2  103.29    9.70
  11  -5  -2  103.39   11.00
 -11  -5   2  100.19   10.30
 -11  -5   2  106.69    7.80
  11  -5  -2   97.89   10.60
  11  -5  -2   91.29   12.80
 -11   5   2  100.99   12.80
  11   5  -2  109.49   10.00
  11   5  -2  119.29   11.80
 -11   5   2  106.69    9.90
 -11   5   2   92.19    8.80
  11   5  -2   99.39    9.60
 -11   5   2   96.09    9.80
   9  -5  -2  201.28   14.80
   9  -5  -2  286.57   18.60
   9  -5  -2  261.27   16.00
   9  -5  -2  244.78   14.60
  -9  -5   2  257.17   12.20
  -9  -5   2  259.17   14.80
   9   5  -2  277.87   15.50
   9   5  -2  256.07   14.70
  -9   5   2  253.87   13.60
  -9   5   2  262.47   14.60
   9   5  -2  280.17   16.50
  -9   5   2  258.67   15.40
  -9   5   2  264.57   18.50
   7  -5  -2  273.77   17.40
  -7  -5   2  290.97   15.30
  -7  -5   2  298.57   15.10
   7  -5  -2  318.47   16.70
   7  -5  -2  270.47   14.40
  -7  -5   2  271.77   12.80
  -7   5   2  289.97   16.00
   7   5  -2  279.57   15.50
  -7   5   2  289.87   13.90
  -7   5   2  273.07   14.10
   7   5  -2  285.37   14.90
   7   5  -2  289.97   15.60
  -7   5   2  280.37   19.00
  -5  -5   2  657.13   26.50
   5  -5  -2  658.63   25.40
  -5  -5   2  671.83   24.10
   5  -5  -2  683.13   28.00
   5  -5  -2  662.23   28.80
  -5  -5   2  662.63   26.70
  -5   5   2  679.93   25.00
  -5   5   2  655.73   31.00
   5   5  -2  601.14   27.00
  -5   5   2  660.73   27.80
   5   5  -2  656.83   26.60
  -5   5   2  678.63   25.10
   3  -5  -2  275.17   12.50
   3  -5  -2  281.87   15.00
  -3  -5   2  252.37   12.70
  -3  -5   2  266.17   11.70
  -3  -5   2  275.67   14.50
   3  -5  -2  225.88   11.20
  -3  -5   2  280.37   14.20
  -3   5   2  279.37   12.50
   3   5  -2  252.67   14.80
  -3   5   2  273.17   11.30
  -3   5   2  266.37   17.10
  -3   5   2  269.67   14.90
  -1  -5   2   26.50    3.40
   1  -5  -2   33.90    3.70
  -1  -5   2   41.10    6.20
   1  -5  -2   35.40    5.60
  -1  -5   2   37.40    4.50
  -1  -5   2   40.40    5.80
   1  -5  -2   40.60    4.40
  -1   5   2   32.40    5.10
   1   5  -2   36.60    4.50
  -1   5   2   35.60    2.50
   1   5  -2   32.00    5.80
  -1  -5  -2  385.06   17.60
  -1  -5  -2  351.96   15.00
   1  -5   2  331.27   17.30
   1  -5   2  317.37   15.10
   1  -5   2  328.67   15.60
  -1  -5  -2  330.77   14.10
  -1   5  -2  330.57   16.50
  -1   5  -2  410.56   19.10
  -1   5  -2  306.87   17.30
   1   5   2  320.67   16.80
  -1   5  -2  340.07   16.10
   3  -5   2   81.19    8.20
   3  -5   2   85.99    7.50
   3  -5   2   66.29    6.40
  -3  -5  -2   73.59    7.50
  -3  -5  -2   94.99    6.90
  -3   5  -2   80.39    7.90
   3   5   2   81.19    6.40
  -3   5  -2   73.39    7.70
  -3   5  -2   83.09    8.50
   3   5   2   85.49    7.70
  -3   5  -2   71.69    6.80
  -5  -5  -2   29.40    5.00
   5  -5   2   36.50    6.60
   5  -5   2   30.20    6.30
  -5  -5  -2   29.80    2.20
   5  -5   2   36.00    6.10
   5  -5   2   49.30    6.00
   5   5   2   28.50    4.70
  -5   5  -2   33.20    6.60
  -5   5  -2   35.20    6.40
  -5   5  -2   41.30    7.50
   5   5   2   35.40    6.10
   5   5   2   46.60    7.10
  -5   5  -2   27.00    5.10
   7  -5   2  231.18   15.30
  -7  -5  -2  220.48   13.00
  -7  -5  -2  204.08    9.50
   7  -5   2  210.18   14.00
   7  -5   2  202.58   14.70
   7  -5   2  195.68   13.20
  -7   5  -2  201.88   15.10
   7   5   2  207.58   12.40
  -7   5  -2  208.78   13.50
   7   5   2  222.68   15.40
  -7   5  -2  195.28   14.50
  -7   5  -2  228.48   16.10
   7   5   2  218.28   14.20
   9  -5   2   43.90    9.30
   9  -5   2   35.10    7.00
   9  -5   2   33.30    6.50
  -9  -5  -2   41.30    5.40
   9   5   2   50.69    8.70
  -9   5  -2   25.80    7.50
   9   5   2   45.60    6.60
 -11  -5  -2   78.19    8.40
  11  -5   2   84.99   10.50
  11  -5   2   64.99    9.90
  11   5   2   91.69   12.30
 -11   5  -2   90.89   13.10
  11   5   2   68.89    9.30
  13  -5   2   93.29   13.20
  13  -5   2   90.09   12.10
 -13  -5  -2  100.19   11.30
  13   5   2   85.49   13.20
  13   5   2   82.89   11.10
 -13   5  -2   86.89   14.40
  15  -5   2   31.60   10.10
  15  -5   2   25.50    8.90
 -15   5  -2   26.10   10.20
  15   5   2   21.40    8.90
  15   5   2   21.60    7.90
  18  -6  -2  425.16   30.20
  18  -6  -2  380.56   27.20
  18   6  -2  385.26   25.40
  18   6  -2  303.37   24.30
 -18   6   2  340.27   29.50
  16  -6  -2  678.13   36.70
  16  -6  -2  585.64   32.60
 -16  -6   2  634.04   28.60
  16   6  -2  653.53   32.50
  16   6  -2  571.24   31.10
 -16   6   2  640.14   38.20
  14  -6  -2  734.03   35.30
 -14  -6   2  722.43   30.00
  14  -6  -2  784.72   38.20
  14   6  -2  745.33   34.90
 -14   6   2  763.22   40.50
  14   6  -2  762.32   34.50
 -14   6   2  729.73   34.90
  12  -6  -2 1047.30   43.70
  12  -6  -2 1103.69   46.30
 -12  -6   2 1108.99   38.60
 -12   6   2 1080.19   44.10
 -12   6   2 1014.20   49.10
  12   6  -2 1047.70   42.80
  12   6  -2 1039.10   43.30
 -12   6   2 1081.39   41.80
  10  -6  -2  691.13   31.80
 -10  -6   2  731.53   26.40
  10  -6  -2  694.03   30.60
  10  -6  -2  670.73   34.40
  10  -6  -2  639.44   31.40
 -10   6   2  739.93   30.40
  10   6  -2  722.53   30.60
 -10   6   2  698.53   29.10
 -10   6   2  685.33   31.50
 -10   6   2  682.83   36.00
  10   6  -2  707.03   31.30
   8  -6  -2  696.83   33.20
  -8  -6   2  773.32   27.00
   8  -6  -2  795.82   33.10
  -8  -6   2  744.83   30.40
  -8  -6   2  715.63   30.40
   8  -6  -2  721.13   30.10
   8  -6  -2  634.74   30.10
  -8   6   2  690.43   31.40
  -8   6   2  724.83   28.90
   8   6  -2  762.62   32.00
   8   6  -2  689.43   31.00
  -8   6   2  669.03   35.50
  -8   6   2  762.52   29.50
   8   6  -2  715.13   30.10
   6  -6  -2 1763.22   69.59
  -6  -6   2 2143.69   67.39
  -6  -6   2 2079.29   71.59
   6  -6  -2 2004.80   70.09
  -6  -6   2 2157.18   71.99
   6  -6  -2 2197.58   73.69
  -6   6   2 2133.69   78.69
  -6   6   2 2246.08   69.99
  -6   6   2 2125.09   73.69
   6   6  -2 2092.49   71.59
   6   6  -2 2189.18   72.29
   6   6  -2 2084.59   73.09
  -6   6   2 2143.09   69.19
  -4  -6   2 2589.64   86.49
  -4  -6   2 2547.45   82.19
   4  -6  -2 2751.72   88.89
   4  -6  -2 2625.14   84.59
  -4  -6   2 2614.24   85.09
  -4  -6   2 2656.83   87.49
  -4   6   2 2633.74   84.39
  -4   6   2 2503.05   91.99
  -4   6   2 2715.23   83.09
  -4   6   2 2616.14   88.79
   4   6  -2 2503.05   88.59
  -2  -6   2 2363.26   77.89
  -2  -6   2 2288.27   76.49
  -2  -6   2 2248.77   74.59
   2  -6  -2 2308.57   73.69
  -2  -6   2 2154.88   72.19
   2  -6  -2 2119.29   71.19
   2  -6  -2 2368.56   77.89
   2  -6  -2 2324.17   74.79
   2   6  -2 2224.58   78.49
  -2   6   2 2225.38   78.09
  -2   6   2 2239.88   80.79
   2   6  -2 2329.67   74.39
  -2   6   2 2360.26   71.09
   0  -6   2 2264.77   75.19
   0  -6  -2 2367.96   78.99
   0  -6   2 2373.16   79.79
   0  -6  -2 2351.06   74.79
   0  -6   2 2322.87   76.79
   0  -6   2 2299.27   78.29
   0  -6  -2 2411.86   76.09
   0   6   2 2265.47   79.19
   0   6  -2 2349.06   77.39
   0   6  -2 2260.07   80.19
   0   6  -2 2331.87   80.29
  -2  -6  -2 2081.29   71.29
   2  -6   2 2098.39   69.59
  -2  -6  -2 2089.89   67.09
   2  -6   2 2095.29   72.39
  -2  -6  -2 2082.49   68.29
   2  -6   2 1965.80   68.79
   2   6   2 2000.00   71.39
  -2   6  -2 2015.20   73.19
  -2   6  -2 2034.20   69.69
  -2   6  -2 2120.69   73.29
  -2   6  -2 2101.09   70.89
   4  -6   2 1456.25   53.89
  -4  -6  -2 1444.76   49.70
   4  -6   2 1362.76   50.69
   4  -6   2 1398.06   51.09
  -4   6  -2 1455.25   55.19
   4   6   2 1358.66   52.49
   4   6   2 1414.16   49.50
  -4   6  -2 1493.75   53.39
  -4   6  -2 1357.36   53.59
  -4   6  -2 1475.05   51.29
   6  -6   2 1089.19   45.70
   6  -6   2 1158.08   44.90
   6  -6   2 1134.79   43.60
  -6  -6  -2 1128.79   42.00
   6  -6   2 1162.58   43.90
  -6   6  -2 1147.49   43.20
  -6   6  -2 1058.89   46.30
   6   6   2 1124.79   41.60
  -6   6  -2 1239.38   46.50
   6   6   2 1165.58   45.30
   6   6   2 1126.59   44.80
  -6   6  -2 1075.49   45.70
   8  -6   2 1352.66   53.09
   8  -6   2 1401.06   51.69
   8  -6   2 1381.16   51.89
  -8  -6  -2 1274.67   42.70
   8   6   2 1295.67   51.99
  -8   6  -2 1342.37   53.89
  -8   6  -2 1319.07   54.29
   8   6   2 1370.06   49.10
  10  -6   2  562.24   29.00
 -10  -6  -2  560.94   21.90
  10  -6   2  626.84   29.50
  10   6   2  593.64   29.80
  10   6   2  566.04   26.70
 -10   6  -2  582.94   31.40
  12  -6   2   88.69   12.70
 -12  -6  -2   87.09    8.90
  12   6   2  112.79   13.90
  12   6   2   98.09   11.40
 -12   6  -2  104.19   15.10
  14  -6   2  166.48   16.80
  14  -6   2  182.58   18.10
  14   6   2  166.08   18.00
 -14   6  -2  167.98   19.20
  14   6   2  142.99   14.70
  17  -7  -2  328.77   25.70
  17  -7  -2  262.47   23.60
  17   7  -2  325.67   23.80
  17   7  -2  248.68   20.60
 -17   7   2  265.87   27.70
 -15  -7   2  304.27   17.20
  15  -7  -2  332.97   23.90
  15  -7  -2  295.27   22.10
 -15   7   2  299.07   26.00
  15   7  -2  315.87   22.00
  15   7  -2  292.67   20.40
  13  -7  -2  549.54   29.20
  13  -7  -2  606.84   31.40
 -13  -7   2  605.04   23.60
 -13   7   2  527.15   29.60
  13   7  -2  552.94   29.30
  13   7  -2  563.04   28.40
 -13   7   2  502.95   33.20
 -11  -7   2 1742.93   56.19
  11  -7  -2 1727.03   64.89
 -11  -7   2 1650.43   56.89
  11  -7  -2 1651.93   62.99
 -11   7   2 1690.43   70.69
  11   7  -2 1652.93   62.19
 -11   7   2 1694.03   64.49
  11   7  -2 1759.62   64.69
 -11   7   2 1711.13   61.09
  -9  -7   2 1946.31   62.89
   9  -7  -2 1969.60   69.49
   9  -7  -2 1909.41   68.29
   9  -7  -2 1986.20   71.99
  -9  -7   2 1957.60   62.49
  -9  -7   2 1904.61   69.49
  -9   7   2 1718.83   69.39
  -9   7   2 2029.40   67.39
   9   7  -2 1765.72   69.69
  -9   7   2 1946.31   77.09
  -9   7   2 2070.99   67.29
   9   7  -2 1887.71   68.29
   7  -7  -2 1844.02   65.99
   7  -7  -2 1916.71   66.59
  -7  -7   2 1806.12   66.99
  -7  -7   2 1815.12   61.29
   7  -7  -2 2077.79   70.19
  -7  -7   2 1907.01   67.89
  -7   7   2 1920.31   69.79
  -7   7   2 1903.51   74.79
   7   7  -2 1812.02   66.79
  -7   7   2 2042.20   65.19
   7   7  -2 1952.20   69.59
  -7   7   2 1885.51   65.19
   7   7  -2 1942.31   68.49
  -5  -7   2 1215.28   41.70
  -5  -7   2 1263.67   47.40
  -5  -7   2 1267.77   45.60
  -5  -7   2 1250.17   47.90
   5  -7  -2 1282.17   45.50
   5  -7  -2 1162.58   44.30
   5  -7  -2 1270.77   49.40
  -5   7   2 1260.57   49.40
  -5   7   2 1180.08   52.79
  -5   7   2 1320.77   43.80
   5   7  -2 1284.37   49.99
  -5   7   2 1297.97   45.30
  -3  -7   2  827.12   33.30
   3  -7  -2  877.51   33.00
  -3  -7   2  838.82   30.50
   3  -7  -2  885.51   34.10
   3  -7  -2  774.62   30.60
  -3  -7   2  849.61   35.40
  -3  -7   2  926.91   36.90
   3  -7  -2  952.20   37.70
  -3   7   2  934.01   30.90
   3   7  -2  887.91   37.90
  -3   7   2  912.81   41.30
  -3   7   2  848.62   37.00
  -1  -7   2 1324.57   49.40
  -1  -7   2 1266.17   45.50
   1  -7  -2 1337.67   49.00
   1  -7  -2 1227.08   44.00
   1  -7  -2 1324.77   45.70
  -1  -7   2 1269.97   47.50
  -1  -7   2 1220.58   43.20
   1   7  -2 1273.07   45.50
   1   7  -2 1225.98   49.70
   1   7  -2 1324.87   49.90
  -1   7   2 1216.28   49.00
  -1   7   2 1125.19   39.80
  -1   7   2 1269.27   51.69
  -1  -7  -2 1219.08   43.10
   1  -7   2 1241.78   45.50
   1  -7   2 1222.88   47.00
  -1  -7  -2 1211.08   44.60
  -1  -7  -2 1230.58   47.80
   1  -7   2 1263.87   48.70
   1  -7   2 1254.27   44.20
  -1   7  -2 1288.07   46.40
  -1   7  -2 1262.07   49.99
   1   7   2 1181.88   47.90
  -1   7  -2 1220.08   45.80
  -1   7  -2 1226.18   49.30
   3  -7   2  946.81   40.50
   3  -7   2  926.41   36.10
  -3  -7  -2  937.11   34.70
  -3  -7  -2  941.21   38.90
  -3  -7  -2  939.71   36.00
   3  -7   2  916.31   36.90
  -3   7  -2  941.61   41.70
  -3   7  -2 1000.30   37.90
  -3   7  -2  912.01   40.20
   3   7   2  894.71   39.20
  -3   7  -2  999.30   38.90
   5  -7   2  430.26   21.90
   5  -7   2  425.06   21.10
  -5  -7  -2  440.66   23.10
   5   7   2  405.76   20.30
  -5   7  -2  440.66   22.30
  -5   7  -2  467.95   24.00
   5   7   2  421.26   23.30
  -5   7  -2  451.85   25.00
  -5   7  -2  404.66   25.00
   7  -7   2  376.36   21.10
   7  -7   2  377.86   22.40
   7  -7   2  398.86   20.90
  -7   7  -2  341.97   23.50
   7   7   2  384.66   22.60
   7   7   2  374.36   19.60
  -7   7  -2  412.56   24.00
   9  -7   2  795.02   34.20
   9  -7   2  760.22   34.60
   9   7   2  709.93   31.50
   9   7   2  735.93   35.70
  -9   7  -2  702.43   37.10
  -9   7  -2  720.43   36.10
  11  -7   2  559.14   28.30
  11  -7   2  504.15   28.30
 -11  -7  -2  482.75   18.50
 -11   7  -2  496.85   30.90
  11   7   2  511.45   28.90
  11   7   2  485.95   25.20
  13  -7   2  439.56   28.50
  13  -7   2  482.35   27.80
 -13   7  -2  446.16   30.50
  13   7   2  445.36   25.30
  13   7   2  446.16   28.70
  14  -8  -2   21.80    7.90
 -14  -8   2   14.10    5.00
 -14  -8   2    3.00    4.60
  14  -8  -2   20.10    7.80
 -14   8   2   17.50    8.50
  14   8  -2    2.50    5.50
  14   8  -2   11.60    8.30
 -14   8   2    3.00    8.90
  12  -8  -2   57.09   10.50
  12  -8  -2   92.09   11.50
 -12  -8   2   68.09    7.10
 -12  -8   2   84.09    7.00
  12   8  -2   76.99   12.70
  12   8  -2   70.79   11.10
 -12   8   2   75.59   12.40
 -12   8   2   79.69   15.70
 -10  -8   2   34.50    4.80
  10  -8  -2   35.50    7.50
  10  -8  -2   28.90    7.80
 -10  -8   2   35.00    4.70
 -10   8   2   19.70   10.00
  10   8  -2   33.50    6.90
 -10   8   2   32.30    7.60
  10   8  -2   35.10    8.90
 -10   8   2   37.90    8.90
   8  -8  -2   88.09    9.30
  -8  -8   2   82.49    6.40
  -8  -8   2   69.89    5.70
   8  -8  -2  114.09   10.70
  -8   8   2  111.29   11.70
   8   8  -2   59.19    9.00
  -8   8   2  112.19    9.80
   8   8  -2   95.59   11.70
  -8   8   2   91.29   14.60
  -6  -8   2  260.97   16.60
  -6  -8   2  293.57   13.40
   6  -8  -2  366.16   18.50
   6  -8  -2  330.57   17.30
  -6   8   2  386.16   18.70
  -6   8   2  388.96   22.50
  -6   8   2  375.36   17.10
  -6   8   2  342.47   24.60
   6   8  -2  283.07   20.00
  -4  -8   2   46.20    4.60
   4  -8  -2   47.40    5.60
   4  -8  -2   52.69    7.20
  -4  -8   2   48.60    6.90
  -4   8   2   58.19    9.40
   4   8  -2   51.69    9.80
  -4   8   2   50.49   11.40
  -4   8   2   54.69    5.90
  -2  -8   2   88.69    8.60
   2  -8  -2   81.09   12.40
   2  -8  -2   83.39    5.90
  -2  -8   2   90.19   12.80
  -2  -8   2   75.79    6.40
   2  -8  -2  112.89   10.30
   2  -8  -2   90.69    8.10
  -2   8   2   95.99   10.70
  -2   8   2   83.79   13.40
  -2   8   2   82.49    6.00
   2   8  -2   92.49    8.60
   2   8  -2  105.19   11.40
   2   8  -2   93.89   11.20
   0  -8  -2   59.59    8.40
   0  -8  -2   59.69    6.80
   0  -8   2   59.39    7.30
   0  -8   2   55.59    6.20
   0   8  -2   61.89   10.30
   0   8  -2   50.89    9.70
   0   8  -2   58.99    7.90
   0   8   2   59.19    9.90
   0   8   2   62.69   11.00
  -2  -8  -2   14.30    3.90
   2  -8   2    7.60    4.40
   2  -8   2   17.50    4.40
  -2   8  -2    8.70    5.10
  -2   8  -2   25.40    8.00
  -2   8  -2   10.70    5.80
   2   8   2    8.90    4.60
  -2   8  -2   15.50    5.80
   4  -8   2   80.49    8.20
  -4  -8  -2   68.29    7.40
   4  -8   2   75.09    8.50
   4   8   2   82.59   11.90
  -4   8  -2   70.09   11.60
  -4   8  -2   65.29   11.30
  -4   8  -2   77.59   11.00
   6  -8   2   10.30    5.50
   6  -8   2   13.90    4.60
  -6   8  -2   17.10    6.80
   6   8   2   14.20    5.10
  -6   8  -2   20.40    8.40
   6   8   2   26.30    7.90
   8  -8   2  109.09   12.30
   8  -8   2  107.29   11.00
  -8   8  -2  110.39   16.30
   8   8   2  117.59   11.30
  -8   8  -2  112.49   15.60
   8   8   2  109.39   13.40
  10  -8   2  144.29   15.30
  10  -8   2  154.38   14.10
 -10   8  -2  156.28   19.00
 -10   8  -2  151.08   17.40
  10   8   2  143.79   13.20
  10   8   2  161.68   16.00
  12  -8   2    7.50    7.90
  12  -8   2   18.10    8.00
  12   8   2   28.40   10.30
 -12   8  -2   29.80   13.20
  12   8   2   22.30    7.80
  13  -9  -2  414.36   26.50
  13  -9  -2  449.95   26.40
 -13  -9   2  383.86   16.30
 -13   9   2  333.47   31.10
  13   9  -2  377.36   24.10
 -13   9   2  383.46   26.50
  13   9  -2  396.96   27.10
  11  -9  -2  566.04   30.00
 -11  -9   2  597.54   21.10
 -11  -9   2  552.34   21.10
  11  -9  -2  639.64   30.80
 -11   9   2  619.14   38.60
  11   9  -2  541.05   32.00
  11   9  -2  595.04   30.30
 -11   9   2  577.74   32.80
   9  -9  -2 1147.79   46.30
  -9  -9   2 1061.99   36.80
   9  -9  -2 1202.48   45.90
  -9  -9   2 1132.69   37.10
  -9   9   2 1093.59   55.59
  -9   9   2 1138.89   49.40
   9   9  -2 1147.39   49.99
   9   9  -2 1073.99   46.10
  -9   9   2 1123.29   44.80
  -7  -9   2 1011.70   35.30
   7  -9  -2 1132.79   42.00
  -7  -9   2 1034.20   42.00
   7  -9  -2 1081.79   42.80
  -7   9   2 1107.99   41.00
  -7   9   2 1065.09   47.40
  -7   9   2 1034.40   42.20
   7   9  -2 1093.19   48.00
  -7   9   2 1043.50   52.29
   5  -9  -2  798.82   32.90
   5  -9  -2  785.42   30.70
  -5  -9   2  773.72   32.70
  -5  -9   2  749.03   27.40
  -5   9   2  789.02   37.50
  -5   9   2  787.02   30.50
  -5   9   2  765.12   41.90
   5   9  -2  734.43   37.10
   3  -9  -2 1234.58   42.50
  -3  -9   2 1239.18   42.50
   3  -9  -2 1224.48   46.00
  -3  -9   2 1222.88   46.70
   3   9  -2 1263.47   53.09
  -3   9   2 1260.17   56.29
  -3   9   2 1226.58   42.50
  -3   9   2 1204.28   51.89
  -1  -9   2 1654.73   55.69
  -1  -9   2 1653.03   59.39
   1  -9  -2 1598.54   57.49
   1   9  -2 1637.24   58.29
  -1   9   2 1599.34   64.19
   1   9  -2 1695.53   65.39
   1   9  -2 1649.13   65.59
  -1   9   2 1586.44   67.59
   1  -9   2 1967.70   70.79
   1  -9   2 2051.39   67.99
  -1  -9  -2 2000.30   68.69
   1   9   2 2031.40   78.79
   1   9   2 2016.20   76.39
  -1   9  -2 1974.30   76.39
  -1   9  -2 1991.60   71.29
  -1   9  -2 2067.49   78.39
  -3  -9  -2 1738.93   60.69
   3  -9   2 1742.93   60.89
   3  -9   2 1721.03   63.39
  -3   9  -2 1778.82   64.89
  -3   9  -2 1753.62   68.89
  -3   9  -2 1729.73   70.69
   3   9   2 1715.23   67.69
  -5  -9  -2  881.31   35.30
   5  -9   2  854.91   37.90
   5  -9   2  914.21   36.50
  -5   9  -2  897.11   42.70
   5   9   2  886.81   41.70
  -5   9  -2  848.72   43.90
   7  -9   2  608.04   29.90
   7  -9   2  598.84   27.80
  -7   9  -2  540.95   33.60
  -7   9  -2  558.44   32.40
   7   9   2  562.84   31.90
   9  -9   2  651.73   33.40
   9  -9   2  650.73   31.20
   9   9   2  629.14   35.60
   9   9   2  630.54   30.90
  -9   9  -2  636.24   38.30
  -9   9  -2  648.04   36.70
  12 -10  -2  394.16   24.00
  12 -10  -2  360.96   25.20
 -12  10   2  336.37   31.50
  12  10  -2  335.07   26.30
  12  10  -2  340.67   23.90
 -12  10   2  385.86   27.70
 -10 -10   2  526.75   27.30
  10 -10  -2  541.45   27.70
  10 -10  -2  541.05   29.60
 -10  10   2  542.25   32.30
  10  10  -2  491.95   32.10
 -10  10   2  552.24   38.50
   8 -10  -2  523.55   25.00
   8 -10  -2  504.05   26.20
  -8 -10   2  475.95   25.10
  -8  10   2  489.25   35.00
   8  10  -2  430.66   29.90
  -8  10   2  489.85   30.20
  -6 -10   2  545.25   20.60
   6 -10  -2  614.94   28.40
  -6 -10   2  574.34   27.50
   6 -10  -2  572.04   25.50
  -6  10   2  536.65   37.00
  -6  10   2  553.14   25.50
   6  10  -2  543.65   32.60
  -6  10   2  605.34   32.40
   4 -10  -2  957.70   39.40
  -4 -10   2  998.20   40.30
  -4 -10   2  960.90   34.10
   4 -10  -2  993.80   36.20
  -4  10   2  981.10   36.50
  -4  10   2  905.01   48.90
   4  10  -2 1021.80   46.90
  -4  10   2 1024.40   46.30
  -2 -10   2  874.91   37.20
   2 -10  -2  855.91   35.80
  -2 -10   2  897.61   32.30
  -2  10   2  840.02   45.70
   2  10  -2  903.41   44.10
  -2  10   2  871.61   30.40
  -2  10   2  878.11   42.70
   2  10  -2  899.81   43.40
   0 -10  -2  746.53   31.10
   0 -10   2  711.03   28.40
   0 -10   2  715.63   32.60
   0  10  -2  739.33   39.40
   0  10   2  709.93   40.40
   0  10  -2  672.93   31.60
   0  10   2  781.62   37.90
   0  10  -2  722.13   37.70
   2 -10   2  813.62   32.10
   2 -10   2  799.22   35.40
  -2 -10  -2  825.72   33.50
  -2  10  -2  809.72   36.20
   2  10   2  795.22   42.10
   2  10   2  782.62   40.00
  -2  10  -2  770.62   40.50
  -2  10  -2  769.32   41.80
   4 -10   2  695.63   29.70
  -4 -10  -2  671.43   29.80
   4 -10   2  677.03   32.40
   4  10   2  679.53   36.90
  -4  10  -2  678.43   37.40
  -4  10  -2  712.03   39.30
   6 -10   2  593.44   29.70
   6 -10   2  559.34   26.70
  -6 -10  -2  568.54   26.80
  -6  10  -2  521.75   34.90
   6  10   2  600.14   33.60
  -6  10  -2  514.45   32.80
  -8 -10  -2  495.65   25.20
   8 -10   2  477.05   27.70
   8 -10   2  504.45   26.00
   8  10   2  435.46   29.90
  -8  10  -2  490.65   33.80
  -8  10  -2  460.65   31.40
   9 -11  -2    6.70    7.50
  -9 -11   2   -4.90    5.90
   9 -11  -2   -0.80    5.60
   9  11  -2   10.80   10.30
  -9  11   2    0.40    9.00
  -9  11   2   -8.90   11.90
  -7 -11   2   14.60    6.60
   7 -11  -2    7.40    5.50
   7 -11  -2   -2.30    6.30
   7  11  -2   24.60   10.00
  -7  11   2   -1.00    8.00
  -7  11   2   -6.30   10.30
  -7  11   2   -1.10    8.30
  -5 -11   2    1.20    5.50
   5 -11  -2    7.40    5.80
   5 -11  -2    0.90    4.40
  -5 -11   2    3.70    2.50
  -5  11   2   13.00   10.50
   5  11  -2  -10.20    7.30
  -5  11   2    3.30    6.30
  -5  11   2   32.40    9.90
  -3 -11   2   -2.30    5.30
   3 -11  -2    2.30    5.20
  -3 -11   2   10.70    3.60
  -3  11   2    7.70    7.00
   3  11  -2   13.00   10.50
  -3  11   2   -1.90    9.00
  -3  11   2    6.60    4.60
   3  11  -2    2.10    7.10
   1 -11  -2    7.40    5.00
  -1 -11   2   -0.40    4.50
  -1 -11   2    2.50    3.50
   1  11  -2   -3.60    8.60
  -1  11   2   -9.80    7.60
  -1  11   2    1.60    9.60
   1  11  -2   13.50    8.30
  -1 -11  -2    9.50    5.90
   1 -11   2   13.70    4.60
   1 -11   2    6.70    6.30
  -1  11  -2    9.40    7.10
   1  11   2    5.70    9.90
  -1  11  -2   10.10    8.70
   1  11   2    0.90    7.80
  -1  11  -2   17.70   10.50
   3 -11   2    1.90    4.00
  -3 -11  -2   -0.20    5.40
   3 -11   2   -0.80    5.50
  -3  11  -2  -16.00    7.50
  -3  11  -2   10.90    9.90
   3  11   2    8.60    9.40
   3  11   2   -3.90    8.40
   5 -11   2   16.20    5.60
  -5 -11  -2    6.70    6.50
   5 -11   2   11.00    7.70
  -5  11  -2   28.00   12.40
   5  11   2    7.20    9.90
  -5  11  -2    0.20    8.50
  -4 -12   2  402.16   15.40
  -4 -12   2  422.96   24.60
   4 -12  -2  415.46   23.80
   4  12  -2  377.66   30.80
  -4  12   2  335.47   28.20
  -4  12   2  382.36   34.10
   4  12  -2  347.67   29.40
  -2 -12   2  702.13   25.90
   2 -12  -2  665.83   32.10
  -2 -12   2  691.63   33.30
  -2  12   2  680.33   44.80
   2  12  -2  653.23   41.40
  -2  12   2  666.93   39.50
   2  12  -2  640.94   38.30
   0 -12   2  691.13   33.50
   0 -12  -2  725.33   32.40
   0 -12   2  710.63   27.20
   0  12  -2  617.24   40.50
   0  12   2  552.54   38.10
   0  12  -2  630.04   37.80
   0  12   2  655.13   42.60
 -20   0   3   -8.60    5.80
  20   0  -3   -2.20    5.90
 -18   0   3    1.80    5.70
  18   0  -3   -5.00    4.90
 -16   0   3    1.40    4.60
  16   0  -3   -1.60    3.60
  16   0  -3    0.30    4.90
  14   0  -3    2.60    3.20
 -14   0   3    5.80    3.30
 -14   0   3    1.30    3.30
  14   0  -3    0.00    3.30
  14   0  -3    4.40    6.30
 -14   0   3   -4.90    2.90
  12   0  -3    2.90    2.30
  12   0  -3   -2.00    3.80
 -12   0   3   10.30    3.50
 -12   0   3    2.10    2.60
 -12   0   3    1.50    2.90
  12   0  -3    3.00    2.40
  10   0  -3    4.60    1.90
 -10   0   3    3.90    2.50
 -10   0   3    8.00    2.50
 -10   0   3    3.80    2.20
  10   0  -3    4.60    3.60
  10   0  -3    5.10    2.60
  -8   0   3    2.00    1.40
  -8   0   3    2.60    1.60
   8   0  -3    6.60    2.60
  -8   0   3    1.70    1.70
   8   0  -3    1.90    1.30
  -6   0   3    6.10    1.50
   6   0  -3    4.20    1.80
   6   0  -3    1.60    1.10
   6   0  -3    4.80    0.90
  -6   0   3    6.00    2.00
  -4   0   3    2.60    0.90
   4   0  -3    2.50    0.90
   4   0  -3    6.40    1.70
  -4   0   3    6.10    1.60
   2   0  -3    3.20    0.90
  -2   0   3    3.90    0.80
  -2   0   3    3.40    1.20
   0   0   3    8.20    1.20
   0   0   3    9.80    1.30
   0   0   3    6.70    1.70
   0   0  -3    4.20    1.00
   2   0   3    9.00    1.90
  -2   0  -3    2.40    1.70
   2   0   3    4.50    1.70
  -2   0  -3    5.00    1.40
   2   0   3    8.10    1.80
  -2   0  -3    5.00    1.40
  -4   0  -3    1.50    1.50
   4   0   3    1.50    2.00
   4   0   3    3.60    2.10
  -4   0  -3    1.80    2.10
  -4   0  -3    4.30    1.80
   4   0   3    6.30    1.90
   6   0   3    2.40    1.90
  -6   0  -3    3.70    2.20
  -6   0  -3    4.50    3.20
   6   0   3    5.40    2.70
  -6   0  -3    2.20    2.30
   6   0   3   -2.90    2.40
   8   0   3    3.00    2.70
  -8   0  -3    0.10    2.90
   8   0   3    5.00    2.60
   8   0   3   -0.60    3.60
  -8   0  -3    1.30    2.50
  -8   0  -3    1.30    4.10
  10   0   3   -1.10    2.80
  10   0   3    7.70    6.20
 -10   0  -3   -0.50    3.50
  10   0   3   -0.20    2.90
 -10   0  -3    0.40    5.60
  12   0   3    0.60    4.10
  12   0   3    1.20    3.70
 -12   0  -3    3.90    4.30
 -14   0  -3   -3.40    5.50
  14   0   3    4.00    5.60
  14   0   3    0.80    4.90
  16   0   3   14.00    8.10
  16   0   3    3.80    6.80
 -16   0  -3   10.30    7.70
 -21  -1   3  135.69   17.30
  21  -1  -3  158.48   17.50
  21   1  -3  121.99   16.80
 -21   1   3  156.68   18.00
  19  -1  -3  397.06   25.20
 -19  -1   3  423.96   26.60
  19   1  -3  433.66   25.70
 -19   1   3  392.16   26.60
  17  -1  -3  562.34   26.50
  17  -1  -3  509.25   27.30
 -17  -1   3  524.85   28.30
  17   1  -3  507.85   25.00
 -17   1   3  501.05   28.50
  17   1  -3  543.45   27.70
  15  -1  -3  552.14   24.10
 -15  -1   3  458.75   25.50
  15  -1  -3  526.45   25.40
 -15  -1   3  545.55   25.20
 -15  -1   3  532.65   24.40
 -15   1   3  502.05   26.90
 -15   1   3  574.04   24.90
  15   1  -3  467.85   24.60
 -13  -1   3  934.51   35.70
 -13  -1   3  946.51   35.20
  13  -1  -3  868.41   35.70
  13  -1  -3  932.31   40.20
  13  -1  -3  931.91   34.10
 -13  -1   3  884.01   37.30
 -13   1   3  918.11   38.70
 -13   1   3  917.61   35.30
  13   1  -3  880.31   39.00
 -13   1   3  938.31   35.30
  13   1  -3  896.51   36.10
  11  -1  -3 1280.87   48.60
 -11  -1   3 1194.28   43.60
  11  -1  -3 1235.88   44.90
  11  -1  -3 1247.48   42.80
 -11  -1   3 1258.07   44.60
 -11  -1   3 1241.28   46.20
 -11   1   3 1314.87   44.30
  11   1  -3 1334.57   48.30
 -11   1   3 1166.18   46.80
 -11   1   3 1266.57   44.30
  11   1  -3 1313.57   45.50
   9  -1  -3 4223.48  127.49
   9  -1  -3 4134.39  125.49
   9  -1  -3 4102.09  130.79
  -9  -1   3 4208.18  127.39
  -9  -1   3 4118.19  127.09
  -9  -1   3 3920.91  128.49
   9   1  -3 4000.00  127.59
  -9   1   3 4177.98  126.69
   9   1  -3 4100.49  129.89
  -9   1   3 3935.71  126.69
  -9   1   3 3938.61  129.99
   7  -1  -3 5090.89  156.98
  -7  -1   3 4911.11  153.88
  -7  -1   3 4871.01  154.78
   7  -1  -3 5149.28  152.28
   7  -1  -3 4941.31  153.68
  -7   1   3 5168.88  153.38
   7   1  -3 5122.69  154.38
  -7   1   3 4936.11  153.98
   7   1  -3 5102.09  155.68
   7   1  -3 4976.30  151.88
   5  -1  -3 3621.14  110.89
  -5  -1   3 3508.15  108.49
  -5  -1   3 3518.75  108.69
  -5  -1   3 3614.54  106.49
   5  -1  -3 3494.55  107.69
   5  -1  -3 3444.86  106.99
   5   1  -3 3560.44  108.69
  -5   1   3 3528.85  107.49
   5   1  -3 3526.25  109.09
  -5   1   3 3533.75  110.69
  -5   1   3 3580.34  106.69
   5   1  -3 3491.05  106.89
  -3  -1   3 2378.36   72.59
  -3  -1   3 2325.07   72.09
  -3  -1   3 2374.86   73.19
   3  -1  -3 2418.36   74.79
   3  -1  -3 2384.86   72.19
   3   1  -3 2292.37   73.19
  -3   1   3 2457.35   75.09
  -3   1   3 2356.46   71.29
   3   1  -3 2394.26   72.39
   3   1  -3 2430.56   72.39
  -3   1   3 2259.57   72.19
  -1  -1   3   34.60    3.30
  -1  -1   3   38.40    3.00
   1  -1  -3   31.70    2.80
  -1  -1   3   37.20    2.70
   1  -1  -3   31.50    1.40
  -1   1   3   32.90    2.80
   1   1  -3   29.90    2.70
   1   1  -3   24.50    3.00
   1   1  -3   42.20    2.90
   1  -1   3 3644.24  115.99
   1  -1   3 3873.21  113.69
  -1  -1  -3 3731.23  115.09
   1  -1   3 3588.44  114.29
   1  -1   3 3754.72  115.59
  -1  -1  -3 3723.93  113.19
   1   1   3 3904.01  113.39
  -1   1  -3 3733.03  114.69
  -1   1  -3 3774.12  113.19
   1   1   3 3699.13  114.79
   1   1   3 3752.32  114.29
   3  -1   3 5840.32  172.48
   3  -1   3 5297.27  172.48
  -3  -1  -3 5503.65  169.78
   3  -1   3 6021.10  171.18
   3  -1   3 5498.35  170.78
  -3  -1  -3 5578.94  171.98
   3   1   3 5731.03  171.28
  -3   1  -3 5583.54  174.38
   3   1   3 5742.43  170.18
   3   1   3 5223.28  171.38
  -3   1  -3 5500.65  170.18
  -3   1  -3 5666.03  170.78
   5  -1   3  394.86   17.10
   5  -1   3  424.76   18.00
   5  -1   3  390.76   18.80
  -5  -1  -3  414.06   16.60
   5  -1   3  384.66   18.00
  -5   1  -3  417.16   17.00
   5   1   3  425.56   17.00
   5   1   3  403.86   17.80
   5   1   3  387.56   17.30
  -5   1  -3  377.86   19.80
  -5   1  -3  399.76   17.00
   7  -1   3  472.25   21.90
  -7  -1  -3  475.65   20.80
  -7  -1  -3  505.05   20.40
  -7  -1  -3  463.85   22.60
   7  -1   3  484.85   22.10
   7  -1   3  463.45   20.70
   7  -1   3  453.85   21.90
   7   1   3  488.45   20.80
  -7   1  -3  447.46   24.00
   7   1   3  485.75   21.90
   7   1   3  498.85   20.60
  -7   1  -3  464.25   20.90
  -7   1  -3  475.15   20.10
  -9  -1  -3  518.45   23.80
  -9  -1  -3  492.15   25.90
  -9  -1  -3  526.45   23.10
   9  -1   3  522.35   25.30
   9  -1   3  568.14   26.30
   9  -1   3  515.75   23.80
   9  -1   3  500.75   24.50
  -9   1  -3  565.74   28.70
  -9   1  -3  499.95   23.60
  -9   1  -3  510.85   22.90
   9   1   3  540.25   23.60
   9   1   3  560.14   23.80
   9   1   3  563.74   25.90
  11  -1   3  481.25   24.40
  11  -1   3  456.55   23.40
 -11  -1  -3  484.15   26.80
  11  -1   3  482.05   26.80
 -11  -1  -3  435.96   23.00
  11   1   3  511.15   23.60
 -11   1  -3  433.76   23.40
  11   1   3  482.45   23.40
  11   1   3  449.86   26.80
  13  -1   3  605.64   29.70
  13  -1   3  532.05   28.10
 -13  -1  -3  515.45   27.70
  13   1   3  602.54   28.50
  13   1   3  602.34   28.20
 -13   1  -3  527.45   28.00
  15  -1   3  221.18   17.90
  15  -1   3  240.68   18.60
 -15   1  -3  191.28   18.00
  15   1   3  197.88   17.00
  15   1   3  200.08   16.70
  20  -2  -3  329.27   23.80
 -20  -2   3  319.17   23.80
 -20   2   3  331.47   25.30
  20   2  -3  314.17   22.90
  20   2  -3  281.37   20.10
  18  -2  -3  303.27   20.20
 -18  -2   3  292.97   20.80
  18   2  -3  309.27   18.80
 -18   2   3  281.07   21.90
  18   2  -3  306.87   20.60
  16  -2  -3  913.81   40.30
  16  -2  -3  973.30   38.80
 -16  -2   3  934.41   41.10
  16  -2  -3 1015.70   45.10
  16   2  -3  964.20   38.30
 -16   2   3  975.80   43.90
  16   2  -3  950.40   40.40
 -14  -2   3 1254.67   46.20
 -14  -2   3 1275.97   45.20
 -14  -2   3 1087.59   46.70
  14  -2  -3 1112.19   48.90
  14  -2  -3 1174.38   46.40
  14  -2  -3 1285.27   45.30
  14  -2  -3 1233.58   51.49
 -14   2   3 1272.17   45.40
 -14   2   3 1236.58   50.09
  14   2  -3 1297.97   56.89
 -14   2   3 1221.38   46.00
  14   2  -3 1203.48   46.70
  14   2  -3 1215.18   44.50
  12  -2  -3 1309.57   49.10
 -12  -2   3 1397.76   49.30
  12  -2  -3 1448.66   48.20
  12  -2  -3 1292.37   51.69
  12  -2  -3 1394.26   53.99
 -12  -2   3 1346.37   48.00
 -12  -2   3 1383.06   50.79
  12   2  -3 1390.36   49.90
  12   2  -3 1386.36   52.29
 -12   2   3 1416.36   48.40
 -12   2   3 1399.76   48.70
  12   2  -3 1361.06   47.60
 -12   2   3 1350.56   52.69
  10  -2  -3 2114.19   74.29
  10  -2  -3 2031.00   72.19
 -10  -2   3 2207.68   70.39
  10  -2  -3 2077.89   69.89
 -10  -2   3 2062.09   70.89
 -10  -2   3 2126.69   69.19
  10  -2  -3 2159.58   68.79
  10   2  -3 2089.79   70.39
  10   2  -3 2117.69   68.29
 -10   2   3 2219.88   69.19
 -10   2   3 2054.79   73.49
  10   2  -3 2203.68   72.79
 -10   2   3 2063.69   69.19
  -8  -2   3  893.81   31.60
  -8  -2   3  856.31   31.80
   8  -2  -3  843.32   30.70
   8  -2  -3  896.11   30.50
   8  -2  -3  884.61   34.60
  -8   2   3  900.51   30.30
  -8   2   3  834.92   29.70
   8   2  -3  880.01   29.90
  -8   2   3  836.82   34.20
   8   2  -3  812.12   32.30
  -8   2   3  886.01   30.80
   8   2  -3  888.91   31.80
   6  -2  -3 2344.37   75.69
  -6  -2   3 2313.67   70.79
   6  -2  -3 2206.08   71.19
  -6  -2   3 2229.08   72.09
  -6  -2   3 2254.37   72.59
   6  -2  -3 2367.76   71.89
   6   2  -3 2269.97   72.59
  -6   2   3 2082.69   75.09
  -6   2   3 2303.77   70.99
   6   2  -3 2275.17   71.29
   6   2  -3 2401.56   73.09
  -6   2   3 2307.57   71.79
  -6   2   3 2262.57   71.29
  -4  -2   3 5322.07  161.98
   4  -2  -3 5464.15  161.98
   4  -2  -3 5354.46  165.08
  -4  -2   3 5502.95  162.98
   4   2  -3 5168.68  162.28
  -4   2   3 5181.68  162.08
   4   2  -3 5133.79  162.68
   4   2  -3 5329.67  161.88
  -4   2   3 5585.04  166.18
   2  -2  -3 1937.01   61.19
   2  -2  -3 1981.80   63.59
  -2  -2   3 2039.40   64.39
  -2  -2   3 2024.00   64.29
  -2  -2   3 2077.29   63.69
  -2  -2   3 2019.20   64.79
   2  -2  -3 2031.50   61.39
   2   2  -3 2056.99   64.29
  -2   2   3 1982.70   63.69
   2   2  -3 2083.79   65.39
  -2   2   3 2075.19   66.29
   0  -2  -3 2583.24   74.49
   0  -2   3 2411.56   77.29
   0  -2   3 2377.46   76.59
   0  -2  -3 2419.96   75.49
   0  -2   3 2312.37   77.39
   0   2  -3 2538.95   75.39
   0   2  -3 2376.16   77.39
   0   2   3 2501.25   74.39
   0   2   3 2413.46   77.09
   0   2  -3 2472.15   76.99
   0   2  -3 2507.25   78.89
   0   2   3 2486.15   75.39
   2  -2   3 2600.24   83.69
  -2  -2  -3 2798.42   82.09
   2  -2   3 2733.33   83.19
  -2  -2  -3 2606.94   82.59
   2  -2   3 2619.84   84.99
   2  -2   3 2694.83   84.99
  -2   2  -3 2649.43   83.89
  -2   2  -3 2750.62   87.09
  -2   2  -3 2632.04   84.89
   2   2   3 2523.55   82.39
  -2   2  -3 2686.33   82.89
   2   2   3 2620.34   81.89
   4  -2   3 2041.60   63.59
   4  -2   3 1948.80   64.29
   4  -2   3 1951.90   63.09
   4  -2   3 1865.91   65.09
  -4  -2  -3 1960.00   61.69
  -4  -2  -3 1930.61   62.59
   4   2   3 1879.61   61.69
  -4   2  -3 1918.31   62.79
  -4   2  -3 1940.21   62.69
   4   2   3 1857.31   63.29
  -4   2  -3 1867.91   66.59
   4   2   3 1930.01   61.59
  -6  -2  -3 1068.79   36.80
   6  -2   3 1068.09   39.30
  -6  -2  -3  960.20   37.80
   6  -2   3 1005.20   39.50
   6  -2   3 1056.29   38.20
   6  -2   3 1141.29   39.40
  -6   2  -3 1044.30   42.30
   6   2   3 1009.90   36.30
  -6   2  -3 1012.30   37.30
   6   2   3 1092.09   39.10
  -6   2  -3 1032.30   37.90
   6   2   3 1023.90   36.80
   8  -2   3 1066.09   41.40
   8  -2   3 1100.39   42.60
   8  -2   3 1051.49   42.70
  -8  -2  -3 1017.40   41.80
  -8  -2  -3 1148.89   40.50
   8  -2   3 1143.29   43.20
   8   2   3 1103.99   40.60
   8   2   3 1144.99   43.30
  -8   2  -3 1095.89   41.70
  -8   2  -3 1219.68   47.40
   8   2   3 1124.59   40.00
  -8   2  -3 1128.39   40.90
 -10  -2  -3  638.34   30.10
  10  -2   3  658.33   31.10
  10  -2   3  646.44   29.80
  10  -2   3  610.74   28.60
  10   2   3  660.83   27.20
  10   2   3  621.64   27.70
 -10   2  -3  660.83   29.20
  10   2   3  675.43   31.30
  12  -2   3  223.18   16.50
  12  -2   3  213.28   15.80
  12   2   3  218.08   14.30
  12   2   3  202.78   14.80
 -12   2  -3  195.78   15.20
  14  -2   3  166.68   15.90
  14  -2   3  165.38   15.80
 -14   2  -3  171.48   16.50
  14   2   3  190.98   15.70
  14   2   3  185.98   14.80
  19  -3  -3   12.00    7.60
 -19  -3   3   -2.30    5.30
 -19   3   3    7.40    7.20
  19   3  -3    1.70    5.40
  19   3  -3    1.40    6.10
 -17  -3   3   61.79   10.10
  17  -3  -3   80.19   13.40
  17  -3  -3   79.59   11.70
  17   3  -3   70.09   10.90
  17   3  -3   73.79   10.10
 -17   3   3   75.89   12.90
  15  -3  -3   79.29   10.10
  15  -3  -3   82.39   11.50
 -15  -3   3   79.69    8.80
  15  -3  -3   78.49   10.90
 -15  -3   3   89.89   10.40
 -15   3   3   65.89   11.70
  15   3  -3   81.49    8.90
 -15   3   3   80.69    9.00
  15   3  -3   66.09    9.40
  13  -3  -3   68.69    8.90
 -13  -3   3   59.29    8.10
 -13  -3   3   64.59    8.00
 -13  -3   3   61.19    6.80
  13  -3  -3   64.39    7.40
  13  -3  -3   68.39    8.20
  13  -3  -3   54.09   10.20
  13   3  -3   56.99    8.10
 -13   3   3   75.89    8.00
  13   3  -3   55.19    6.90
 -13   3   3   78.99    7.40
  13   3  -3   56.59    9.70
 -13   3   3   65.79   10.60
 -11  -3   3  334.47   17.40
  11  -3  -3  338.47   19.40
  11  -3  -3  348.47   17.10
  11  -3  -3  329.77   17.20
 -11  -3   3  343.37   17.90
 -11  -3   3  358.46   16.40
  11  -3  -3  360.26   21.20
 -11   3   3  351.06   20.70
  11   3  -3  364.06   19.70
  11   3  -3  343.37   16.40
 -11   3   3  362.46   17.10
  11   3  -3  365.26   18.00
 -11   3   3  381.66   16.80
 -11   3   3  362.96   16.70
   9  -3  -3  342.87   15.50
   9  -3  -3  302.17   14.90
  -9  -3   3  332.47   15.80
  -9  -3   3  317.77   15.50
   9  -3  -3  313.67   18.30
   9  -3  -3  309.57   16.70
   9   3  -3  332.37   16.80
   9   3  -3  310.07   15.60
  -9   3   3  340.57   18.90
  -9   3   3  320.87   14.70
  -9   3   3  315.77   14.20
   9   3  -3  305.27   14.50
  -9   3   3  303.07   14.30
  -7  -3   3   50.69    5.20
   7  -3  -3   47.60    5.00
   7  -3  -3   54.09    5.60
   7  -3  -3   58.19    6.80
  -7  -3   3   50.69    4.50
   7  -3  -3   47.50    4.50
   7   3  -3   50.59    5.20
  -7   3   3   60.69    4.60
  -7   3   3   51.89    4.80
  -7   3   3   46.20    4.10
  -7   3   3   68.29    7.60
   7   3  -3   50.29    4.70
   7   3  -3   52.39    5.50
  -5  -3   3  336.47   14.30
  -5  -3   3  348.47   14.90
  -5  -3   3  360.06   15.40
   5  -3  -3  332.87   16.90
   5  -3  -3  372.96   15.40
   5  -3  -3  333.07   13.50
  -5   3   3  335.97   13.40
  -5   3   3  369.26   15.40
   5   3  -3  358.56   14.70
  -5   3   3  348.67   18.00
   5   3  -3  349.96   15.20
   5   3  -3  326.57   14.90
  -5   3   3  357.26   13.40
  -3  -3   3 1194.28   41.30
  -3  -3   3 1255.57   41.20
   3  -3  -3 1184.98   38.60
  -3  -3   3 1235.18   41.40
   3  -3  -3 1289.27   41.20
   3   3  -3 1174.78   41.70
   3   3  -3 1181.68   41.40
  -3   3   3 1224.58   38.50
  -3   3   3 1246.18   44.60
  -3   3   3 1184.28   41.10
  -3   3   3 1214.68   38.60
   1  -3  -3  134.79    7.80
  -1  -3   3  133.69    8.30
   1  -3  -3  135.79    6.00
  -1  -3   3  139.19    7.90
  -1  -3   3  132.19    7.50
  -1   3   3  130.99    7.80
  -1   3   3  135.49    5.90
   1   3  -3  124.09    7.40
   1   3  -3  136.09    7.30
   1   3  -3  137.49    8.40
   1   3  -3  145.29    8.70
   1  -3   3    9.90    2.30
   1  -3   3    4.60    2.10
   1  -3   3    3.70    1.90
  -1  -3  -3    4.80    1.30
  -1  -3  -3    2.90    1.30
   1  -3   3    1.60    1.50
  -1   3  -3    6.40    2.50
   1   3   3    4.40    1.30
  -1   3  -3    7.40    2.60
  -1   3  -3    6.30    2.20
  -1   3  -3    5.20    2.00
   1   3   3    3.00    1.70
   1   3   3    5.60    1.20
   3  -3   3   35.40    4.50
   3  -3   3   38.00    4.40
   3  -3   3   34.70    5.30
   3  -3   3   36.30    4.60
  -3  -3  -3   45.80    4.10
  -3  -3  -3   37.70    3.30
   3   3   3   30.30    4.70
  -3   3  -3   41.70    4.70
  -3   3  -3   43.10    4.80
  -3   3  -3   36.20    5.60
   3   3   3   41.60    4.90
   3   3   3   42.20    3.80
   3   3   3   39.50    3.10
  -3   3  -3   37.30    5.40
   5  -3   3    2.20    2.50
   5  -3   3    2.70    2.50
  -5  -3  -3    6.40    2.40
   5  -3   3    1.30    2.90
   5  -3   3    4.40    3.00
  -5  -3  -3    2.20    2.20
   5   3   3    3.50    2.70
   5   3   3    5.40    1.80
  -5   3  -3    3.50    2.70
   5   3   3    2.60    2.50
  -5   3  -3    4.10    3.80
   5   3   3    6.20    2.20
  -5   3  -3   -1.90    2.20
  -7  -3  -3   37.60    5.60
   7  -3   3   35.20    6.50
   7  -3   3   29.20    5.70
   7  -3   3   21.60    5.20
  -7  -3  -3   36.10    5.60
   7  -3   3   25.40    5.90
  -7   3  -3   25.10    5.20
   7   3   3   32.10    4.00
   7   3   3   33.40    6.60
  -7   3  -3   41.60    8.70
  -7   3  -3   42.30    6.30
   7   3   3   32.60    5.00
   9  -3   3   91.69    9.40
   9  -3   3   83.79    9.40
   9  -3   3   98.19   11.40
  -9  -3  -3   84.09    9.10
   9   3   3   83.29    7.10
   9   3   3   80.59    8.10
   9   3   3  110.49   11.80
  -9   3  -3   74.99    8.80
  11  -3   3    9.40    8.50
  11  -3   3    8.70    4.60
 -11  -3  -3   12.60    6.70
  11  -3   3    8.00    5.00
  11   3   3    6.10    3.70
 -11   3  -3    9.10    5.20
  11   3   3    9.70    4.20
  13  -3   3   -0.10    4.60
  13  -3   3    5.60    5.10
  13   3   3    2.40    4.30
  13   3   3    1.90    4.60
 -13   3  -3    1.40    6.10
  13   3   3   -0.70    5.00
  15  -3   3    9.60    8.20
  15  -3   3    9.80    7.30
  15   3   3   10.00    6.50
  15   3   3   11.90    6.70
  15   3   3   13.30    7.30
 -15   3  -3   12.10    8.50
  20  -4  -3  234.98   22.10
  20   4  -3  241.98   19.20
 -20   4   3  182.98   22.10
  20   4  -3  235.28   20.20
  18  -4  -3  508.35   33.40
  18  -4  -3  508.75   29.10
 -18   4   3  534.75   32.80
  18   4  -3  523.75   27.50
 -16  -4   3  410.86   20.80
  16  -4  -3  377.36   23.00
  16  -4  -3  395.06   26.40
  16   4  -3  380.86   22.30
 -16   4   3  390.46   26.30
  16   4  -3  395.96   21.50
  14  -4  -3  569.84   27.10
  14  -4  -3  529.55   30.10
  14  -4  -3  603.24   28.10
 -14  -4   3  587.74   24.90
  14   4  -3  536.15   25.70
  14   4  -3  582.14   27.40
 -14   4   3  575.04   25.90
 -14   4   3  581.64   31.60
  12  -4  -3 1102.19   42.20
 -12  -4   3 1135.99   40.30
  12  -4  -3 1095.69   42.80
  12  -4  -3 1112.79   47.70
 -12  -4   3 1145.09   42.90
  12  -4  -3  967.90   44.90
  12   4  -3 1109.09   41.70
 -12   4   3 1109.19   47.60
 -12   4   3 1147.29   41.00
 -12   4   3 1099.99   41.60
  12   4  -3 1135.59   43.00
  12   4  -3 1157.08   45.60
 -12   4   3 1128.89   41.80
 -10  -4   3  953.60   33.30
  10  -4  -3  840.42   34.10
  10  -4  -3  892.31   39.00
  10  -4  -3  949.11   35.50
 -10  -4   3  903.11   35.10
  10   4  -3  872.91   34.90
 -10   4   3  913.01   34.40
 -10   4   3  869.41   32.90
  10   4  -3  946.91   36.80
  10   4  -3  871.71   34.10
 -10   4   3  903.91   39.70
 -10   4   3  871.11   33.40
  -8  -4   3 1096.49   39.00
   8  -4  -3 1039.30   37.60
  -8  -4   3 1073.19   37.40
   8  -4  -3 1065.19   42.00
   8  -4  -3  941.81   39.10
   8  -4  -3 1085.59   39.00
   8   4  -3 1062.89   38.40
  -8   4   3 1047.00   36.70
  -8   4   3 1057.79   36.50
  -8   4   3 1050.89   38.40
   8   4  -3 1036.30   39.10
   8   4  -3 1034.50   38.50
  -8   4   3 1066.19   43.70
   6  -4  -3 3326.47  101.19
  -6  -4   3 3181.78  100.59
   6  -4  -3 2896.31   99.79
  -6  -4   3 3222.08   99.69
  -6  -4   3 3096.29   99.09
   6  -4  -3 3056.39   98.59
   6  -4  -3 3257.07  104.09
   6   4  -3 3245.18  100.59
   6   4  -3 3271.77  100.19
  -6   4   3 3002.20  105.19
  -6   4   3 3084.29  100.49
   6   4  -3 3199.08  100.79
  -6   4   3 3012.00   97.49
  -6   4   3 3148.08   97.99
  -4  -4   3 2685.33   83.09
  -4  -4   3 2551.14   81.49
   4  -4  -3 2647.44   83.09
  -4  -4   3 2661.63   82.89
   4  -4  -3 2497.25   80.09
  -4   4   3 2609.34   79.89
   4   4  -3 2548.05   82.79
  -4   4   3 2474.75   82.99
  -4   4   3 2517.95   87.09
  -4   4   3 2453.35   78.89
   4   4  -3 2529.15   83.59
   2  -4  -3 1088.19   35.40
   2  -4  -3 1055.79   35.70
  -2  -4   3 1076.69   38.60
  -2  -4   3 1119.19   39.30
  -2  -4   3 1024.30   37.10
   2  -4  -3 1145.99   38.60
  -2  -4   3 1034.50   37.10
  -2   4   3 1083.59   41.30
   2   4  -3 1093.09   39.50
  -2   4   3 1096.49   33.80
   2   4  -3 1051.79   38.40
  -2   4   3 1086.49   38.80
   0  -4  -3 2688.13   84.99
   0  -4   3 2463.25   83.69
   0  -4  -3 2612.84   81.09
   0  -4   3 2554.24   83.99
   0  -4   3 2649.14   85.99
   0  -4  -3 2692.73   81.79
   0   4  -3 2869.41   86.69
   0   4  -3 2464.05   85.69
   0   4  -3 2770.82   85.19
   0   4  -3 2590.34   84.39
   0   4   3 2543.85   84.89
   2  -4   3 4407.96  139.19
  -2  -4  -3 4482.85  136.79
   2  -4   3 4655.43  138.99
   2  -4   3 4523.15  140.79
   2  -4   3 4255.07  139.49
   2   4   3 4547.35  136.79
  -2   4  -3 4556.14  142.49
  -2   4  -3 4444.86  140.19
  -2   4  -3 4427.56  139.29
  -2   4  -3 4366.76  141.29
   2   4   3 4319.57  139.89
  -4  -4  -3 2039.70   63.69
   4  -4   3 1992.10   67.19
   4  -4   3 1933.51   65.59
   4  -4   3 1871.51   66.89
  -4  -4  -3 1895.91   60.89
   4  -4   3 2028.40   66.09
   4   4   3 1989.20   66.19
  -4   4  -3 1950.10   66.49
   4   4   3 1805.32   65.99
   4   4   3 1939.41   63.29
  -4   4  -3 2058.39   68.09
  -4   4  -3 1935.81   65.39
  -4   4  -3 1918.51   69.19
   4   4   3 1947.71   60.19
   6  -4   3 1194.88   45.80
  -6  -4  -3 1179.08   40.60
   6  -4   3 1152.58   44.50
   6  -4   3 1265.87   45.70
  -6  -4  -3 1218.88   42.70
   6  -4   3 1209.88   46.00
   6   4   3 1187.68   42.40
  -6   4  -3 1341.17   49.70
  -6   4  -3 1187.28   46.30
  -6   4  -3 1160.28   44.00
   6   4   3 1244.58   45.90
   6   4   3 1184.58   45.30
   6   4   3 1185.48   39.60
  -6   4  -3 1242.78   45.60
  -8  -4  -3  982.10   36.10
   8  -4   3 1004.20   41.00
   8  -4   3  980.20   39.60
   8  -4   3  994.00   40.60
  -8  -4  -3 1021.20   37.80
   8   4   3 1028.50   37.60
   8   4   3  992.00   41.10
   8   4   3  981.30   34.60
   8   4   3  994.20   40.20
  -8   4  -3  960.70   39.80
 -10  -4  -3  545.55   25.00
  10  -4   3  658.53   29.80
  10  -4   3  581.74   30.40
  10  -4   3  550.34   27.80
  10   4   3  575.24   26.10
  10   4   3  582.24   28.60
  10   4   3  586.54   23.90
 -10   4  -3  559.54   28.50
  12  -4   3  482.25   26.50
  12  -4   3  488.85   26.30
 -12  -4  -3  443.86   23.70
  12   4   3  476.75   24.10
  12   4   3  414.46   25.20
 -12   4  -3  423.96   25.40
  12   4   3  494.35   22.10
  14  -4   3  269.07   20.70
  14  -4   3  282.47   20.50
  14   4   3  225.18   17.60
  14   4   3  213.58   19.70
 -14   4  -3  225.18   19.80
  19  -5  -3  137.79   18.30
  19  -5  -3  198.98   22.20
  19   5  -3  140.29   16.30
  19   5  -3  172.18   17.00
 -19   5   3  138.49   20.30
  17  -5  -3  305.27   24.70
  17  -5  -3  327.57   22.60
 -17   5   3  322.27   25.90
  17   5  -3  318.77   21.30
  17   5  -3  321.27   20.90
  15  -5  -3  579.24   29.30
 -15  -5   3  640.44   26.10
  15  -5  -3  535.25   32.10
  15   5  -3  563.94   27.70
 -15   5   3  498.25   31.60
  15   5  -3  574.34   28.60
  13  -5  -3 1255.67   48.70
  13  -5  -3 1107.59   51.09
  13  -5  -3 1253.97   48.70
 -13  -5   3 1270.97   44.80
 -13   5   3 1262.67   54.39
  13   5  -3 1226.48   47.50
 -13   5   3 1281.37   48.00
 -13   5   3 1279.37   46.40
  13   5  -3 1264.17   48.60
  11  -5  -3 1542.05   56.79
  11  -5  -3 1561.64   60.89
 -11  -5   3 1556.74   56.69
  11  -5  -3 1557.94   56.39
 -11  -5   3 1547.35   53.19
  11   5  -3 1519.25   55.99
 -11   5   3 1584.44   56.49
 -11   5   3 1572.64   62.89
 -11   5   3 1563.24   55.09
  11   5  -3 1577.04   58.69
  11   5  -3 1555.24   56.49
 -11   5   3 1605.44   54.59
  -9  -5   3  983.70   36.60
  -9  -5   3  980.70   37.70
   9  -5  -3  963.50   41.30
   9  -5  -3  973.40   38.20
   9  -5  -3  971.00   36.90
  -9   5   3  954.70   35.50
   9   5  -3  939.11   37.30
   9   5  -3 1047.20   39.00
  -9   5   3  934.91   42.80
   9   5  -3  976.00   37.50
  -9   5   3  909.41   37.20
  -9   5   3  982.50   35.40
  -7  -5   3 1910.41   61.99
   7  -5  -3 1764.52   64.69
   7  -5  -3 1760.42   59.99
  -7  -5   3 1852.31   60.89
  -7  -5   3 1867.41   59.49
   7  -5  -3 1515.25   60.49
   7  -5  -3 1764.62   62.19
  -7   5   3 1748.33   61.89
   7   5  -3 1955.10   62.19
   7   5  -3 1830.62   61.59
  -7   5   3 1677.53   66.49
  -7   5   3 1823.72   59.09
  -7   5   3 1713.63   58.39
   7   5  -3 1829.22   62.19
  -5  -5   3 3005.30   96.99
   5  -5  -3 3224.08  100.59
   5  -5  -3 2995.90   96.89
  -5  -5   3 3150.48   99.79
   5  -5  -3 2913.41   97.49
  -5  -5   3 3134.19   99.29
   5   5  -3 3131.19   99.69
  -5   5   3 3125.39  105.49
   5   5  -3 3050.09  100.89
  -5   5   3 3137.99   96.59
  -5   5   3 3025.90   95.49
  -5   5   3 2994.20  100.29
   3  -5  -3 2780.42   87.59
  -3  -5   3 2814.92   90.99
   3  -5  -3 2839.32   91.49
  -3  -5   3 2822.82   89.49
  -3  -5   3 2879.31   91.79
  -3  -5   3 2744.33   88.49
  -3   5   3 2720.73   95.49
   3   5  -3 2837.92   90.19
  -3   5   3 2778.42   91.69
   3   5  -3 2715.63   92.49
  -3   5   3 2745.53   85.69
  -1  -5   3 3125.59   98.59
  -1  -5   3 2961.60   95.49
   1  -5  -3 3034.90   92.99
  -1  -5   3 3118.29   97.59
   1  -5  -3 2969.20   96.89
   1  -5  -3 2890.61   93.39
  -1  -5   3 2788.62   94.39
  -1   5   3 2912.41   97.19
   1   5  -3 2965.60   98.59
   1   5  -3 3099.49   97.39
   1   5  -3 2978.70   96.89
  -1  -5  -3 1840.72   57.99
  -1  -5  -3 1821.92   61.49
   1  -5   3 1742.53   59.99
   1  -5   3 1780.42   62.29
   1  -5   3 1759.92   59.89
   1   5   3 1715.53   61.29
  -1   5  -3 1796.12   60.69
  -1   5  -3 1839.02   62.59
  -1   5  -3 1709.13   62.59
  -1   5  -3 1765.02   61.89
   3  -5   3  612.14   26.20
   3  -5   3  605.84   25.60
   3  -5   3  620.14   27.50
  -3  -5  -3  621.14   23.80
  -3   5  -3  589.64   27.10
  -3   5  -3  626.44   28.40
  -3   5  -3  590.34   27.70
   3   5   3  631.54   26.90
  -3   5  -3  601.94   25.60
   3   5   3  636.34   23.80
   5  -5   3 1135.79   43.50
   5  -5   3 1150.28   45.20
   5  -5   3 1136.99   44.20
  -5  -5  -3 1078.29   36.90
  -5  -5  -3 1210.68   41.60
   5  -5   3 1180.48   44.10
   5   5   3 1058.19   43.80
  -5   5  -3 1220.68   43.80
  -5   5  -3 1160.58   45.20
   5   5   3 1254.77   45.10
  -5   5  -3 1266.87   48.00
   5   5   3 1145.79   41.10
  -5   5  -3 1189.18   46.10
   7  -5   3 1709.93   61.39
  -7  -5  -3 1600.34   54.49
   7  -5   3 1738.93   62.09
   7  -5   3 1755.72   62.09
  -7  -5  -3 1782.42   59.19
   7   5   3 1697.23   62.49
  -7   5  -3 1637.54   62.89
   7   5   3 1666.93   61.99
  -7   5  -3 1674.43   62.39
   7   5   3 1729.33   58.59
  -9  -5  -3  912.11   32.30
   9  -5   3  906.71   39.10
   9  -5   3  915.41   38.50
   9  -5   3  915.31   38.40
   9   5   3  821.12   37.70
   9   5   3  853.61   34.90
  -9   5  -3  816.62   37.90
  11  -5   3  486.55   27.20
 -11  -5  -3  482.05   22.50
  11  -5   3  531.75   27.40
 -11   5  -3  489.55   27.90
  11   5   3  515.05   24.80
  11   5   3  518.15   27.90
  13  -5   3  414.26   24.90
 -13  -5  -3  329.17   20.70
  13  -5   3  401.36   25.40
  13   5   3  351.86   24.10
  13   5   3  360.26   21.80
 -13   5  -3  362.96   24.90
  18  -6  -3   19.70   10.10
  18  -6  -3    9.60    8.80
 -18   6   3    4.60   10.70
  18   6  -3    5.40    8.40
  18   6  -3   10.80    7.60
  16  -6  -3   38.90   10.20
 -16  -6   3   38.50    7.80
  16  -6  -3   31.50    9.60
  16   6  -3   40.80    9.20
 -16   6   3   32.30   11.40
  16   6  -3   27.40    8.20
 -14  -6   3    3.30    4.10
  14  -6  -3    0.30    4.40
  14  -6  -3    1.90    5.80
  14   6  -3    2.10    3.90
 -14   6   3    9.00    6.50
 -14   6   3   -3.10    5.60
  14   6  -3    7.10    5.30
 -14   6   3    7.20    5.10
  12  -6  -3   30.80    6.70
  12  -6  -3   33.30    7.90
  12  -6  -3   34.40    8.40
 -12  -6   3   41.40    6.00
 -12   6   3   45.20    7.70
 -12   6   3   25.90    9.60
 -12   6   3   36.50    7.60
  12   6  -3   36.60    7.20
  12   6  -3   33.40    6.90
 -10  -6   3   75.69   10.10
  10  -6  -3  133.29   12.10
  10  -6  -3   98.89   13.60
  10  -6  -3   94.79   10.10
 -10  -6   3   89.19    7.60
  10   6  -3   71.49    9.00
  10   6  -3   89.19   11.30
  10   6  -3   84.19    9.00
 -10   6   3  119.09   13.30
 -10   6   3  115.89    9.80
 -10   6   3  131.39   10.90
   8  -6  -3   70.29    7.20
   8  -6  -3   65.29    9.10
   8  -6  -3   61.59   10.40
  -8  -6   3   66.09    6.10
  -8  -6   3   61.39    7.60
  -8  -6   3   67.69    9.00
   8  -6  -3   53.19    7.20
  -8   6   3   74.89    6.90
  -8   6   3   64.69    6.70
   8   6  -3   72.69    9.10
   8   6  -3   76.19    8.00
  -8   6   3   64.99   11.20
  -8   6   3   66.49    8.20
   8   6  -3   71.69    8.10
   6  -6  -3   16.10    3.70
  -6  -6   3   14.50    4.80
   6  -6  -3   14.30    3.80
  -6  -6   3   15.10    3.30
  -6  -6   3   15.60    4.90
   6  -6  -3   11.70    5.20
   6   6  -3    8.40    3.40
  -6   6   3   16.30    4.60
  -6   6   3   18.20    3.60
  -6   6   3    9.30    5.30
  -6   6   3   14.80    3.40
   6   6  -3   14.60    5.00
   6   6  -3   16.10    4.50
   4  -6  -3   42.40    6.90
  -4  -6   3   51.39    5.00
  -4  -6   3   55.39    5.90
  -4  -6   3   63.69    7.80
  -4  -6   3   68.39    8.70
   4  -6  -3   52.89    5.40
  -4   6   3   57.49    8.00
  -4   6   3   52.19    4.50
  -4   6   3   54.59    5.30
  -4   6   3   51.49    9.10
   4   6  -3   50.59    7.80
   2  -6  -3   84.79    8.30
   2  -6  -3   66.79    5.50
  -2  -6   3   55.59    5.90
  -2  -6   3   59.69    7.20
  -2  -6   3   62.39    5.60
  -2  -6   3   65.19    8.70
   2  -6  -3   55.59    5.90
   2   6  -3   52.39    7.80
  -2   6   3   69.59    7.90
   2   6  -3   59.89    6.70
  -2   6   3   68.99   10.50
  -2   6   3   55.09    3.50
   0  -6   3  338.77   16.30
   0  -6   3  355.36   18.80
   0  -6  -3  339.67   15.90
   0  -6   3  355.46   19.40
   0  -6  -3  391.06   19.40
   0  -6  -3  359.96   15.10
   0  -6   3  372.96   17.60
   0   6  -3  350.56   19.10
   0   6  -3  347.17   18.40
   0   6   3  345.67   18.70
   0   6  -3  336.07   17.70
   0   6  -3  339.57   19.70
   2  -6   3   75.29    7.40
   2  -6   3   83.99    9.80
  -2  -6  -3   57.79    6.70
  -2  -6  -3   65.89    8.10
   2  -6   3   80.49    7.30
  -2   6  -3   68.79    8.40
  -2   6  -3   78.79    8.90
  -2   6  -3   69.29    8.80
  -2   6  -3   86.39    8.20
   2   6   3   78.39    8.20
   4  -6   3  132.09   10.30
  -4  -6  -3  136.89    9.80
   4  -6   3  107.59   11.90
   4  -6   3  117.89   10.10
   4   6   3  105.19   10.60
  -4   6  -3  124.19   10.70
   4   6   3  126.29    8.90
  -4   6  -3  111.79   11.20
  -4   6  -3  111.49   11.40
  -4   6  -3  122.69   12.00
   6  -6   3  114.39   10.50
   6  -6   3  109.09   11.30
   6  -6   3  126.89   10.80
  -6  -6  -3  119.89   10.30
   6   6   3  136.89   12.10
   6   6   3  114.39    9.10
  -6   6  -3  107.29   12.20
  -6   6  -3  110.99   12.20
   8  -6   3   70.69    8.90
   8  -6   3   70.39   11.10
  -8  -6  -3   56.49    4.90
   8  -6   3   79.89    9.70
  -8   6  -3   63.29   11.00
  -8   6  -3   78.79   11.60
   8   6   3   62.09   10.60
   8   6   3   65.29    7.70
  10  -6   3   50.49    9.60
  10  -6   3   52.99    9.20
 -10  -6  -3   41.40    6.00
  10   6   3   30.40    8.20
  10   6   3   22.00    6.30
 -10   6  -3   30.10    8.70
 -12  -6  -3   -1.70    5.20
  12  -6   3    3.60    5.70
  12  -6   3    1.20    6.60
 -12   6  -3   14.40    8.90
  12   6   3    3.10    5.30
  12   6   3    6.00    6.20
  17  -7  -3  248.18   21.00
  17  -7  -3  236.58   23.30
  17   7  -3  263.27   20.50
 -17   7   3  254.47   26.20
  17   7  -3  243.48   20.00
  15  -7  -3  368.66   24.20
  15  -7  -3  338.57   25.50
 -15  -7   3  402.16   19.10
 -15   7   3  369.66   23.40
  15   7  -3  370.16   23.20
 -15   7   3  345.47   27.70
  15   7  -3  343.87   22.40
  13  -7  -3  664.23   33.90
  13  -7  -3  605.04   30.90
 -13  -7   3  630.04   25.50
 -13   7   3  639.84   31.40
 -13   7   3  592.14   36.40
  13   7  -3  637.74   31.30
  13   7  -3  590.24   29.70
 -13   7   3  607.94   28.70
 -11  -7   3 1206.18   43.60
 -11  -7   3 1232.28   43.00
  11  -7  -3 1189.98   48.00
  11  -7  -3 1255.57   50.39
 -11   7   3 1196.08   55.39
 -11   7   3 1256.37   46.10
 -11   7   3 1223.88   49.60
  11   7  -3 1230.78   48.20
  11   7  -3 1202.78   49.40
  -9  -7   3  262.37   17.30
   9  -7  -3  300.07   18.20
  -9  -7   3  259.17   13.90
   9  -7  -3  301.47   19.50
   9  -7  -3  359.76   18.50
  -9   7   3  308.47   23.90
  -9   7   3  336.27   19.60
   9   7  -3  260.97   16.80
   9   7  -3  260.27   17.90
  -9   7   3  329.57   16.80
   9   7  -3  331.37   23.20
   7  -7  -3  345.47   19.20
   7  -7  -3  428.46   23.30
  -7  -7   3  392.46   17.30
  -7  -7   3  431.66   21.40
  -7  -7   3  369.36   21.10
   7  -7  -3  402.86   19.70
   7   7  -3  438.26   22.20
  -7   7   3  395.86   18.10
  -7   7   3  353.26   25.10
  -7   7   3  403.76   19.00
  -7   7   3  454.25   23.30
   7   7  -3  427.06   21.50
   7   7  -3  423.86   23.00
  -5  -7   3 2162.08   74.09
   5  -7  -3 2164.68   75.29
  -5  -7   3 2057.49   71.49
   5  -7  -3 2129.69   70.89
  -5  -7   3 2087.59   68.89
   5  -7  -3 1963.70   69.89
  -5  -7   3 2134.79   74.29
  -5   7   3 2176.68   70.69
   5   7  -3 2151.98   76.19
  -5   7   3 2072.29   80.29
  -5   7   3 2166.28   75.99
  -5   7   3 2184.88   68.59
  -3  -7   3 1293.37   47.10
  -3  -7   3 1252.67   44.70
   3  -7  -3 1300.87   45.50
  -3  -7   3 1321.17   50.09
   3  -7  -3 1300.97   46.60
  -3  -7   3 1288.67   49.20
   3  -7  -3 1341.17   50.59
   3   7  -3 1261.57   51.29
  -3   7   3 1343.07   55.29
  -3   7   3 1236.58   50.09
   3   7  -3 1348.77   47.50
  -3   7   3 1355.76   42.50
   1  -7  -3 1124.99   39.60
   1  -7  -3 1069.09   38.10
  -1  -7   3 1131.59   43.00
  -1  -7   3 1025.90   38.40
   1  -7  -3 1072.49   42.90
  -1  -7   3 1078.79   40.60
  -1  -7   3 1070.89   43.50
   1   7  -3 1088.69   41.60
   1   7  -3 1058.19   43.50
   1   7  -3 1058.69   44.50
  -1   7   3 1112.89   46.70
  -1   7   3 1007.20   42.80
   1  -7   3  931.21   39.20
   1  -7   3  857.71   35.50
   1  -7   3  880.01   34.70
  -1  -7  -3  956.90   34.80
  -1  -7  -3  946.11   38.40
  -1  -7  -3  906.71   33.00
  -1   7  -3  912.91   36.60
  -1   7  -3  935.21   38.00
   1   7   3  867.11   38.30
  -1   7  -3  906.81   39.40
  -1   7  -3  925.41   39.90
   3  -7   3  456.45   22.60
   3  -7   3  474.85   22.80
  -3  -7  -3  499.15   21.90
  -3  -7  -3  471.85   20.10
   3   7   3  454.15   24.30
  -3   7  -3  476.05   23.70
  -3   7  -3  488.95   25.40
  -3   7  -3  446.66   25.40
  -3   7  -3  501.95   26.60
   5  -7   3  547.25   25.60
   5  -7   3  556.74   26.30
   5   7   3  549.85   24.10
   5   7   3  539.95   27.50
  -5   7  -3  529.35   28.90
  -5   7  -3  524.55   28.60
   7  -7   3  532.25   26.20
   7  -7   3  514.95   26.60
   7   7   3  517.55   24.20
   7   7   3  557.44   28.70
  -7   7  -3  546.85   29.60
  -7   7  -3  490.25   28.80
   9  -7   3  503.55   28.20
   9  -7   3  597.84   28.50
  -9   7  -3  540.45   30.90
  -9   7  -3  500.25   30.10
   9   7   3  539.15   25.60
   9   7   3  518.05   28.80
  11  -7   3  172.38   16.40
  11  -7   3  224.88   17.30
 -11   7  -3  196.88   20.40
  11   7   3  187.18   15.30
  11   7   3  221.28   18.40
 -16  -8   3  474.35   23.20
  16  -8  -3  501.25   30.90
  16  -8  -3  521.75   32.10
 -16   8   3  437.06   34.80
  16   8  -3  462.25   27.60
 -16   8   3  513.05   30.10
  16   8  -3  428.26   28.70
  14  -8  -3  505.25   29.20
  14  -8  -3  558.34   31.40
 -14  -8   3  502.65   21.90
 -14  -8   3  478.05   22.50
  14   8  -3  532.35   28.10
  14   8  -3  459.45   28.50
 -14   8   3  491.25   35.30
 -14   8   3  517.95   29.40
  12  -8  -3  926.21   40.40
 -12  -8   3  884.71   32.80
  12  -8  -3  979.80   42.30
 -12  -8   3  872.41   33.60
 -12   8   3  872.21   37.60
  12   8  -3  893.71   39.40
  12   8  -3  867.31   41.20
 -12   8   3  919.91   41.40
 -12   8   3  844.42   47.30
 -10  -8   3 1217.28   43.40
  10  -8  -3 1279.77   49.30
 -10  -8   3 1235.48   43.40
  10  -8  -3 1311.67   50.69
  10   8  -3 1274.27   49.90
  10   8  -3 1214.18   51.29
 -10   8   3 1232.88   46.90
 -10   8   3 1275.67   47.30
 -10   8   3 1209.98   58.19
 -10   8   3 1222.68   51.09
  -8  -8   3 1366.46   51.69
   8  -8  -3 1359.56   52.29
  -8  -8   3 1400.16   47.60
   8  -8  -3 1358.56   51.99
   8   8  -3 1464.05   56.99
  -8   8   3 1422.86   49.99
  -8   8   3 1424.26   51.09
   8   8  -3 1431.16   54.19
  -8   8   3 1381.06   55.69
  -8   8   3 1445.96   62.59
  -6  -8   3 1763.12   59.09
   6  -8  -3 1858.41   62.99
   6  -8  -3 1681.73   61.59
  -6  -8   3 1782.32   63.19
  -6   8   3 1831.12   73.99
  -6   8   3 1770.22   67.29
  -6   8   3 1846.92   60.19
   6   8  -3 1788.22   67.99
  -6   8   3 1847.92   62.59
   4  -8  -3 1224.08   44.40
  -4  -8   3 1202.08   45.50
  -4  -8   3 1171.68   42.10
   4  -8  -3 1203.88   49.10
  -4   8   3 1248.88   49.99
  -4   8   3 1248.68   54.99
   4   8  -3 1225.58   50.89
  -4   8   3 1237.48   41.20
   2  -8  -3 1298.97   48.10
   2  -8  -3 1312.47   46.80
  -2  -8   3 1253.87   45.90
  -2  -8   3 1366.66   49.20
   2   8  -3 1354.36   49.40
   2   8  -3 1305.57   53.39
  -2   8   3 1390.16   57.59
  -2   8   3 1289.77   52.89
   2   8  -3 1337.97   52.99
   0  -8  -3 2095.99   73.19
   0  -8   3 2050.79   72.39
   0  -8  -3 2377.06   72.39
   0  -8   3 2153.68   74.59
   0   8  -3 2165.58   79.49
   0   8   3 2142.59   81.59
   0   8   3 2159.08   78.49
   0   8  -3 2149.98   76.09
   0   8  -3 2181.48   79.89
  -2  -8  -3 1600.24   54.49
   2  -8   3 1561.64   57.79
   2  -8   3 1560.04   56.79
   2   8   3 1552.24   61.29
  -2   8  -3 1571.64   62.79
  -2   8  -3 1593.94   62.59
  -2   8  -3 1649.23   60.59
   4  -8   3 1143.09   45.50
   4  -8   3 1147.59   44.30
  -4  -8  -3 1134.09   41.90
  -4   8  -3 1126.69   49.99
  -4   8  -3 1156.78   50.29
   4   8   3 1193.58   48.80
   6  -8   3 1033.70   41.70
   6  -8   3 1062.49   43.20
  -6   8  -3  956.30   46.20
   6   8   3 1024.80   40.40
   6   8   3 1006.20   44.70
  -6   8  -3 1041.90   46.80
   8  -8   3  531.75   27.10
   8  -8   3  565.64   29.10
   8   8   3  530.45   30.60
  -8   8  -3  533.75   31.70
   8   8   3  538.35   26.00
  -8   8  -3  506.25   31.50
  10  -8   3  354.36   22.40
  10  -8   3  347.07   24.00
  10   8   3  388.56   25.80
 -10   8  -3  350.26   26.40
  10   8   3  342.07   20.90
 -10   8  -3  353.36   26.30
  15  -9  -3   23.00    9.00
 -15  -9   3   19.30    5.90
  15  -9  -3   11.70   10.10
  15   9  -3   10.00   12.40
 -15   9   3   26.10   14.00
  13  -9  -3   76.39   12.80
  13  -9  -3   98.09   14.00
 -13  -9   3   74.69    7.80
  13   9  -3   91.69   12.80
 -13   9   3   87.59   14.00
 -13   9   3  100.89   18.70
  13   9  -3   69.39   12.40
  11  -9  -3  138.59   13.80
 -11  -9   3  129.39    9.20
  11  -9  -3  125.49   14.10
 -11  -9   3  135.59    8.90
 -11   9   3  121.69   14.40
  11   9  -3  108.59   13.00
 -11   9   3  139.59   15.70
 -11   9   3  124.09   19.70
  11   9  -3  114.59   16.00
   9  -9  -3  145.59   12.70
  -9  -9   3  124.89   11.60
   9  -9  -3  125.19   12.90
  -9  -9   3  128.99    8.40
  -9   9   3  137.09   12.90
  -9   9   3  127.19   11.80
  -9   9   3  109.79   13.90
  -9   9   3  120.69   19.40
   9   9  -3  134.39   15.50
  -7  -9   3  120.79   11.30
   7  -9  -3  133.59   11.50
   7  -9  -3  145.49   11.40
  -7  -9   3  130.79    8.40
   7   9  -3  109.59   13.30
  -7   9   3  153.28   19.10
  -7   9   3  133.79   10.50
  -7   9   3  131.29   14.00
  -7   9   3  130.29   12.00
   5  -9  -3  155.58   11.80
  -5  -9   3  155.68   12.20
  -5  -9   3  137.19    9.10
  -5   9   3  158.88   14.80
  -5   9   3  144.79    9.80
  -5   9   3  178.78   19.00
   5   9  -3  158.18   16.10
  -3  -9   3  180.78   13.10
  -3  -9   3  180.08   10.90
   3  -9  -3  181.28   12.30
  -3   9   3  199.78   16.90
  -3   9   3  166.78   17.80
   3   9  -3  185.38   16.40
  -3   9   3  178.38    9.00
   3   9  -3  180.98   16.80
   1  -9  -3   89.89    8.50
  -1  -9   3   82.19    9.00
  -1  -9   3   88.19    8.10
   1   9  -3   90.39   11.30
   1   9  -3   87.99   13.60
  -1   9   3   91.19   13.40
   1   9  -3   87.59   13.30
  -1   9   3  115.69   16.20
   1  -9   3  139.79   11.90
   1  -9   3  141.99   11.00
  -1  -9  -3  136.99   10.40
  -1   9  -3  130.39   15.10
   1   9   3  150.38   15.90
  -1   9  -3  177.88   16.20
   1   9   3  122.39   14.40
  -1   9  -3  147.59   14.90
   3  -9   3   83.69    8.80
  -3  -9  -3  115.69    9.50
   3  -9   3   88.99   10.70
   3   9   3   71.99   11.60
  -3   9  -3   93.19   14.50
  -3   9  -3  105.59   15.10
   5  -9   3   40.20    7.50
  -5  -9  -3   35.60    6.70
   5  -9   3   33.10    7.90
  -5   9  -3   36.50   10.10
  -5   9  -3   17.90   10.10
   5   9   3   36.30    9.10
   7  -9   3  119.49   13.30
   7  -9   3  104.59   11.50
   7   9   3  104.79   15.50
  -7   9  -3  105.59   15.30
  -7   9  -3  121.29   17.50
   9  -9   3   51.49   11.00
   9  -9   3   47.60    9.30
   9   9   3   45.00    9.30
   9   9   3   32.60   10.60
  -9   9  -3   35.60   12.70
  -9   9  -3   29.50   10.20
 -12 -10   3  364.66   15.20
  12 -10  -3  375.26   25.10
  12 -10  -3  406.56   24.60
  12  10  -3  329.87   23.90
 -12  10   3  383.66   27.10
  12  10  -3  377.66   27.50
 -12  10   3  310.77   30.60
 -10 -10   3  352.36   15.40
  10 -10  -3  405.96   23.00
 -10 -10   3  364.16   22.10
  10 -10  -3  379.66   24.00
  10  10  -3  412.46   28.20
 -10  10   3  408.46   26.90
 -10  10   3  372.46   32.30
   8 -10  -3  227.18   15.80
  -8 -10   3  218.78   11.20
  -8 -10   3  241.18   16.70
   8 -10  -3  215.88   16.30
  -8  10   3  245.18   24.90
   8  10  -3  249.97   20.50
  -8  10   3  227.28   15.30
  -8  10   3  227.98   19.20
  -8  10   3  226.78   17.70
  -6 -10   3  339.57   15.70
   6 -10  -3  363.76   20.30
  -6 -10   3  346.97   20.10
  -6  10   3  349.17   17.70
  -6  10   3  363.76   24.80
  -6  10   3  359.96   28.60
   6  10  -3  377.36   25.90
   4 -10  -3  556.84   25.90
  -4 -10   3  535.75   26.50
  -4 -10   3  547.95   22.70
  -4  10   3  541.45   35.90
   4  10  -3  541.65   31.60
  -4  10   3  530.85   31.30
  -4  10   3  555.04   21.80
   4  10  -3  565.34   32.70
   2 -10  -3  337.67   18.30
  -2 -10   3  342.97   19.50
  -2 -10   3  321.07   16.50
   2  10  -3  279.97   23.20
  -2  10   3  332.37   23.20
  -2  10   3  294.37   26.30
   2  10  -3  312.27   23.10
   0 -10   3  252.17   17.00
   0 -10   3  223.48   14.00
   0 -10  -3  244.88   15.20
   0  10   3  267.77   20.80
   0  10  -3  236.08   18.60
   0  10   3  250.37   23.10
   0  10  -3  237.58   20.80
   0  10  -3  247.98   21.50
  -2 -10  -3  457.55   22.10
   2 -10   3  429.56   21.50
   2 -10   3  437.56   24.00
  -2  10  -3  466.95   30.30
  -2  10  -3  460.15   29.40
   2  10   3  444.56   28.00
   2  10   3  419.46   29.90
   4 -10   3  236.28   15.60
  -4 -10  -3  229.48   15.40
   4 -10   3  240.38   17.90
   4  10   3  248.88   21.10
  -4  10  -3  215.58   22.30
  -4  10  -3  253.57   21.30
  -6 -10  -3  105.49   11.40
   6 -10   3   88.99   12.60
   6 -10   3   89.99   10.60
  -6  10  -3  103.39   15.70
   6  10   3  102.99   16.10
  -6  10  -3  103.79   17.10
  -9 -11   3 1240.38   50.89
   9 -11  -3 1275.37   52.19
  -9 -11   3 1247.48   41.10
  -9  11   3 1280.47   57.09
   9  11  -3 1310.17   58.59
  -9  11   3 1216.18   64.69
   7 -11  -3 1333.17   52.19
  -7 -11   3 1266.57   43.90
  -7 -11   3 1259.37   51.79
  -7  11   3 1407.16   58.99
   7  11  -3 1376.76   59.79
  -7  11   3 1239.58   64.09
  -5 -11   3 1402.26   54.49
  -5 -11   3 1357.16   47.30
   5 -11  -3 1440.96   53.69
  -5  11   3 1393.76   67.39
  -5  11   3 1450.45   60.89
   5  11  -3 1375.26   61.59
  -5  11   3 1319.77   48.10
   5  11  -3 1367.56   60.69
  -3 -11   3 1101.99   46.70
   3 -11  -3 1140.39   45.20
  -3 -11   3 1136.99   41.00
   3  11  -3 1175.18   54.69
   3  11  -3 1199.68   54.19
  -3  11   3 1131.59   58.19
  -3  11   3 1131.09   53.19
   1 -11  -3 1078.49   42.20
  -1 -11   3 1071.19   44.80
  -1 -11   3 1054.99   39.50
  -1  11   3 1019.60   49.60
  -1  11   3 1122.89   56.69
   1  11  -3 1042.40   51.69
   1  11  -3 1031.10   50.29
   1 -11   3  984.30   38.70
   1 -11   3  972.40   42.70
  -1 -11  -3 1044.20   40.60
  -1  11  -3  955.60   50.19
   1  11   3 1009.10   52.99
  -1  11  -3 1064.19   50.39
   1  11   3  974.00   48.60
   3 -11   3  794.72   33.30
  -3 -11  -3  765.22   33.30
   3 -11   3  778.82   36.60
   3  11   3  723.33   40.50
   3  11   3  733.73   43.90
  -3  11  -3  783.22   42.10
  -3  11  -3  785.82   43.90
  -4  12   3  151.98   23.80
   4  12  -3  222.68   24.60
   2 -12  -3  215.88   17.20
  -2 -12   3  222.58   13.10
  -2 -12   3  203.68   17.70
   2  12  -3  214.28   24.20
   2  12  -3  203.08   22.80
  -2  12   3  210.98   22.90
 -20   0   4  526.75   31.60
  20   0  -4  567.74   30.90
  18   0  -4 2127.69   72.99
  18   0  -4 2037.50   76.19
 -18   0   4 2129.29   78.99
  16   0  -4 1324.47   51.39
 -16   0   4 1378.96   50.39
  16   0  -4 1406.16   48.60
 -16   0   4 1265.67   52.99
 -14   0   4  608.64   26.20
  14   0  -4  637.54   24.50
 -14   0   4  601.24   25.80
  14   0  -4  633.14   31.00
  14   0  -4  613.94   27.10
 -14   0   4  553.94   28.00
 -12   0   4 2392.76   78.29
 -12   0   4 2359.86   81.39
 -12   0   4 2334.27   78.19
  12   0  -4 2334.27   78.99
  12   0  -4 2380.46   75.79
  12   0  -4 2502.65   83.49
  10   0  -4 3087.09   99.69
  10   0  -4 3151.18  103.09
 -10   0   4 3089.19  101.69
 -10   0   4 3204.88   99.19
  10   0  -4 3133.09   96.49
  -8   0   4 3196.88  101.79
   8   0  -4 3167.88   96.69
   8   0  -4 3152.68   99.99
  -8   0   4 3295.77   99.69
   8   0  -4 3165.38  102.69
  -6   0   4 3573.74  111.79
   6   0  -4 3677.93  114.39
   6   0  -4 3692.23  112.29
  -6   0   4 3694.13  113.89
   4   0  -4 2413.36   72.69
  -4   0   4 2315.87   72.19
  -4   0   4 2262.67   70.89
   4   0  -4 2309.47   71.09
  -4   0   4 2280.27   70.09
  -2   0   4 3249.48   96.69
  -2   0   4 3233.48   96.29
   2   0  -4 3127.29   99.29
  -2   0   4 3148.78   99.09
  -2   0   4 3105.69   95.99
   0   0  -4 2798.52   87.79
   0   0   4 2882.41   87.49
   0   0   4 2978.40   87.19
   0   0   4 2772.22   89.99
   0   0  -4 2887.01   90.89
   2   0   4 9999.00  300.97
  -4   0  -4 5855.01  187.68
  -4   0  -4 6002.20  183.28
   4   0   4 5782.32  186.18
   4   0   4 6385.46  184.68
  -4   0  -4 5915.21  183.28
   4   0   4 6056.29  183.78
   6   0   4 1446.96   49.80
  -6   0  -4 1439.16   54.29
   6   0   4 1490.15   51.09
   6   0   4 1412.96   51.39
  -6   0  -4 1493.55   49.40
  -6   0  -4 1374.76   49.30
  -8   0  -4 1426.36   50.59
   8   0   4 1468.35   52.69
  -8   0  -4 1406.06   49.90
   8   0   4 1384.86   51.79
  -8   0  -4 1398.76   55.59
   8   0   4 1408.36   50.59
  10   0   4  907.31   36.40
  10   0   4  900.01   38.60
  10   0   4  851.61   36.50
 -10   0  -4  860.61   35.80
 -12   0  -4  535.35   27.20
  12   0   4  568.74   28.10
  12   0   4  575.74   28.00
  14   0   4  320.87   21.60
  14   0   4  371.36   22.80
  21  -1  -4   66.99   12.20
 -21  -1   4   60.29   12.70
  21   1  -4   82.69   13.60
  21   1  -4   74.29   11.20
 -21   1   4   83.59   15.10
 -19  -1   4   68.69   11.60
  19  -1  -4   86.29   13.10
  19   1  -4   67.49   11.10
 -19   1   4   59.69   11.80
  17  -1  -4   29.40    7.40
 -17  -1   4   20.10    6.80
  17  -1  -4   26.50    6.80
  17   1  -4   39.90    7.90
  17   1  -4   34.40    7.00
 -17   1   4   33.40    8.70
 -15  -1   4  149.79   12.70
 -15  -1   4  176.28   12.30
  15  -1  -4  135.19   10.40
  15  -1  -4  151.98   12.10
 -15  -1   4  156.18   11.50
 -15   1   4  154.28   13.60
  15   1  -4  188.28   13.30
 -15   1   4  166.38   12.20
 -13  -1   4  402.26   21.00
 -13  -1   4  431.56   19.90
  13  -1  -4  411.36   17.90
  13  -1  -4  423.66   23.40
  13  -1  -4  395.96   19.70
 -13  -1   4  414.76   19.20
  13   1  -4  435.36   23.30
 -13   1   4  420.16   19.20
 -13   1   4  404.56   22.00
  13   1  -4  401.06   20.00
 -13   1   4  417.36   19.30
  11  -1  -4  918.81   36.30
  11  -1  -4  816.72   31.80
 -11  -1   4  846.62   31.90
 -11  -1   4  772.02   32.90
  11  -1  -4  880.21   29.80
 -11  -1   4  854.81   32.00
  11   1  -4  856.91   34.90
  11   1  -4  847.52   32.50
 -11   1   4  863.11   31.80
 -11   1   4  843.62   34.80
   9  -1  -4  479.15   19.40
  -9  -1   4  489.55   20.60
   9  -1  -4  507.25   17.60
   9  -1  -4  464.05   22.00
  -9  -1   4  485.75   19.60
   9   1  -4  485.85   17.20
  -9   1   4  485.05   19.70
   9   1  -4  509.45   21.80
  -9   1   4  501.95   22.20
   9   1  -4  416.66   19.30
  -9   1   4  507.45   19.10
  -7  -1   4  486.85   19.00
   7  -1  -4  475.95   16.50
  -7  -1   4  477.25   18.40
   7  -1  -4  491.85   18.00
   7  -1  -4  453.35   20.60
   7   1  -4  509.65   19.90
   7   1  -4  492.65   18.80
   7   1  -4  479.85   16.30
  -7   1   4  483.65   17.60
  -7   1   4  501.25   20.80
  -7   1   4  465.45   15.80
  -5  -1   4 2009.00   62.19
  -5  -1   4 2020.30   63.99
   5  -1  -4 2060.89   62.79
  -5  -1   4 2050.39   63.69
   5  -1  -4 2100.99   66.59
   5  -1  -4 2047.70   61.89
   5   1  -4 2045.80   64.39
   5   1  -4 2024.00   62.09
  -5   1   4 1957.70   62.19
   5   1  -4 2048.40   64.19
  -5   1   4 2035.10   62.49
  -5   1   4 2034.60   66.19
  -3  -1   4  730.23   24.40
  -3  -1   4  699.53   22.90
  -3  -1   4  731.13   24.40
  -3  -1   4  694.93   26.50
   3  -1  -4  765.22   22.60
  -3  -1   4  739.53   24.90
   3   1  -4  745.43   23.50
  -3   1   4  744.83   26.40
  -3   1   4  736.73   26.10
   3   1  -4  741.63   24.30
  -3   1   4  729.23   24.20
  -1  -1   4  572.94   20.80
  -1  -1   4  568.74   20.00
  -1  -1   4  572.64   22.00
   1  -1  -4  556.24   21.20
   1  -1  -4  566.94   18.30
   1   1  -4  587.94   20.30
  -1   1   4  588.34   21.20
  -1   1   4  598.94   18.10
   1   1  -4  581.74   22.70
  -1  -1  -4  888.91   29.60
   1  -1   4  924.81   32.90
   1  -1   4  916.81   32.40
  -1  -1  -4  910.11   32.30
   1  -1   4  882.51   30.80
   1  -1   4  931.11   29.80
   1   1   4  949.31   29.80
  -1   1  -4  924.51   31.30
   1   1   4  904.31   31.70
  -1   1  -4  905.91   29.20
   1   1   4  901.21   30.70
  -1   1  -4  944.71   34.30
   3  -1   4   31.80    4.50
  -3  -1  -4   37.00    5.40
  -3  -1  -4   34.40    3.50
   3  -1   4   30.90    5.10
   3  -1   4   34.70    3.80
   3  -1   4   28.60    4.00
   3   1   4   33.00    4.10
   3   1   4   37.50    3.70
   3   1   4   30.30    4.30
  -3   1  -4   36.60    3.50
  -3   1  -4   43.90    6.80
  -3   1  -4   36.30    4.00
   5  -1   4  118.29    9.50
  -5  -1  -4  108.89    7.40
   5  -1   4  122.69    8.80
   5  -1   4  123.99    8.30
   5  -1   4  118.39    9.50
  -5  -1  -4  107.69    9.10
  -5   1  -4  123.59    8.20
  -5   1  -4  118.09    7.80
   5   1   4   98.59    8.00
   5   1   4  114.49    7.70
  -5   1  -4  105.69   10.50
   5   1   4  116.89    8.80
   7  -1   4  430.26   21.20
   7  -1   4  452.45   20.10
  -7  -1  -4  422.16   18.80
  -7  -1  -4  406.16   22.10
   7  -1   4  403.76   20.60
   7  -1   4  427.46   21.60
  -7   1  -4  388.76   19.00
   7   1   4  443.96   21.10
  -7   1  -4  426.16   24.30
  -7   1  -4  446.96   19.50
   7   1   4  421.06   19.80
   7   1   4  412.46   19.10
  -9  -1  -4  282.07   18.90
   9  -1   4  283.47   16.40
   9  -1   4  250.47   17.60
   9  -1   4  267.67   16.80
   9   1   4  309.47   18.80
   9   1   4  252.67   15.10
  -9   1  -4  249.28   15.30
   9   1   4  267.07   15.50
  11  -1   4  191.18   19.00
  11  -1   4  196.88   15.20
  11  -1   4  223.78   15.50
  11   1   4  262.37   15.90
  11   1   4  192.78   14.40
 -11   1  -4  210.78   15.30
  13  -1   4  126.29   13.30
  13  -1   4  125.39   13.30
  13   1   4  114.99   12.80
 -13   1  -4  120.19   13.50
  13   1   4  134.49   12.90
  20  -2  -4  137.99   17.10
 -20  -2   4  149.09   15.40
  20   2  -4  138.19   15.80
  20   2  -4  138.69   13.80
 -20   2   4  148.89   17.50
  18  -2  -4  199.88   16.30
 -18  -2   4  209.38   16.50
  18  -2  -4  184.58   15.80
  18   2  -4  177.08   13.80
 -18   2   4  203.38   17.70
  18   2  -4  196.78   15.70
 -16  -2   4   32.20    7.10
  16  -2  -4   33.70    7.20
  16  -2  -4   40.40    7.30
  16   2  -4   37.60    6.40
  16   2  -4   46.30    8.40
 -16   2   4   53.69   10.10
 -16   2   4   33.20    6.80
 -14  -2   4  251.07   15.10
  14  -2  -4  269.07   14.30
 -14  -2   4  262.57   16.30
  14  -2  -4  229.28   15.00
  14  -2  -4  254.87   19.90
 -14  -2   4  245.88   14.20
 -14   2   4  267.77   18.10
  14   2  -4  245.88   18.00
  14   2  -4  246.98   13.40
 -14   2   4  282.67   15.10
  14   2  -4  237.78   15.20
 -14   2   4  265.57   14.90
  12  -2  -4  685.53   29.30
 -12  -2   4  776.52   30.20
  12  -2  -4  720.83   27.90
 -12  -2   4  746.63   29.20
 -12  -2   4  779.32   31.10
  12  -2  -4  744.03   34.30
  12   2  -4  730.03   30.00
 -12   2   4  739.53   33.20
  12   2  -4  691.63   27.30
  12   2  -4  779.72   33.00
 -12   2   4  755.72   29.20
 -12   2   4  758.92   28.80
 -10  -2   4  684.63   27.60
  10  -2  -4  717.73   25.60
 -10  -2   4  679.63   27.10
  10  -2  -4  672.13   26.50
  10  -2  -4  725.43   31.10
  10   2  -4  690.93   27.60
 -10   2   4  716.73   26.10
  10   2  -4  754.42   29.50
  10   2  -4  692.23   25.00
 -10   2   4  679.53   30.20
 -10   2   4  658.23   26.20
  -8  -2   4 3258.17  104.69
   8  -2  -4 3324.87  108.39
   8  -2  -4 3256.67  103.69
   8  -2  -4 3340.17  103.29
  -8  -2   4 3291.97  104.89
  -8   2   4 3364.36  104.39
   8   2  -4 3209.28  102.59
  -8   2   4 3429.76  108.79
  -8   2   4 3383.86  102.49
   8   2  -4 3425.06  106.19
   8   2  -4 3428.46  105.29
  -8   2   4 3242.68  102.99
   6  -2  -4 2077.69   66.59
   6  -2  -4 2203.38   67.09
   6  -2  -4 2140.69   71.39
  -6  -2   4 2120.89   68.59
  -6  -2   4 2165.28   67.59
  -6  -2   4 2074.99   66.39
   6   2  -4 2234.18   68.69
  -6   2   4 2145.89   66.29
  -6   2   4 2095.69   66.99
   6   2  -4 2060.79   67.19
   6   2  -4 2215.38   68.79
   4  -2  -4   53.89    3.80
   4  -2  -4   52.29    2.80
  -4  -2   4   43.80    4.10
  -4  -2   4   46.50    4.60
  -4  -2   4   62.09    4.30
   4  -2  -4   54.09    5.30
   4   2  -4   48.90    3.40
  -4   2   4   51.19    3.80
  -4   2   4   46.90    5.40
   4   2  -4   49.60    4.30
   4   2  -4   61.29    4.30
  -4   2   4   43.90    2.50
  -2  -2   4  870.61   31.20
  -2  -2   4  922.61   31.10
  -2  -2   4  984.00   32.60
   2   2  -4  925.91   31.10
   2   2  -4  768.92   27.70
  -2   2   4  918.01   30.70
   2   2  -4  886.21   28.20
  -2   2   4  909.71   30.60
  -2   2   4  918.71   32.90
   2   2  -4  912.21   30.70
   0  -2   4 1180.58   41.80
   0  -2  -4 1173.68   40.00
   0  -2   4 1223.08   40.50
   0  -2   4 1195.08   41.30
   0  -2  -4 1194.58   37.70
   0   2   4 1226.78   37.70
   0   2  -4 1189.28   41.50
   0   2  -4 1308.47   44.00
   0   2  -4 1241.58   37.80
   0   2   4 1218.78   41.20
   0   2  -4 1227.48   40.80
   0   2   4 1213.98   39.80
  -2  -2  -4  570.54   21.60
  -2  -2  -4  593.84   20.10
   2  -2   4  554.34   23.20
   2  -2   4  559.94   21.80
   2  -2   4  563.24   20.70
   2  -2   4  578.54   23.20
   2   2   4  599.14   22.10
  -2   2  -4  590.04   25.50
  -2   2  -4  560.24   20.20
   2   2   4  562.14   20.00
   2   2   4  555.04   21.30
  -2   2  -4  580.24   22.20
   4  -2   4  271.67   14.40
  -4  -2  -4  287.77   12.20
  -4  -2  -4  252.87   13.10
   4  -2   4  265.27   13.30
   4  -2   4  244.28   12.90
   4  -2   4  232.68   14.10
   4   2   4  283.17   12.20
  -4   2  -4  256.97   13.20
   4   2   4  268.57   13.50
   4   2   4  265.57   12.80
  -4   2  -4  265.27   12.40
  -4   2  -4  270.57   16.80
   6  -2   4  119.69   10.00
   6  -2   4  120.89   10.10
   6  -2   4  127.49   10.10
  -6  -2  -4  122.79    9.80
  -6  -2  -4  135.59    8.80
   6  -2   4  129.19    9.40
  -6   2  -4  128.49    9.30
   6   2   4  119.29    8.40
   6   2   4  137.79    8.70
   6   2   4  131.09   10.10
  -6   2  -4  123.79    8.80
  -6   2  -4  129.59   12.40
   8  -2   4  105.59    9.50
   8  -2   4  100.69   11.20
  -8  -2  -4  115.99    9.30
   8  -2   4  108.39   10.30
  -8  -2  -4  104.99   10.90
   8   2   4  119.09   11.70
  -8   2  -4   89.49    9.00
   8   2   4  115.19    9.20
   8   2   4  121.69    8.90
  10  -2   4  124.89   11.60
  10  -2   4  126.89   13.60
 -10  -2  -4  116.39   13.60
  10  -2   4   99.49   10.60
  10   2   4  119.89    9.90
  10   2   4  112.89   10.20
 -10   2  -4  105.39   10.40
  12  -2   4  134.39   13.30
  12  -2   4  129.69   13.00
  12   2   4  127.79   11.70
  12   2   4  112.29   11.90
 -12   2  -4  106.49   12.80
  14  -2   4   55.79   10.80
  14  -2   4   51.09   10.20
  14   2   4   46.30    9.50
 -14   2  -4   57.19   11.00
  14   2   4   57.19    9.60
  21  -3  -4  280.67   23.20
  21   3  -4  275.27   22.80
  21   3  -4  244.88   19.30
  19  -3  -4  653.73   34.10
 -19  -3   4  673.13   34.50
  19   3  -4  715.93   34.70
  19   3  -4  643.24   30.80
 -19   3   4  638.54   36.70
 -17  -3   4  768.92   35.70
  17  -3  -4  733.63   35.10
  17  -3  -4  758.62   33.50
  17   3  -4  784.92   32.80
 -17   3   4  772.32   38.90
  17   3  -4  775.02   35.40
  15  -3  -4  977.20   40.90
 -15  -3   4 1021.70   39.00
 -15  -3   4  998.50   41.50
  15  -3  -4 1006.50   39.00
 -15   3   4 1051.29   39.50
  15   3  -4 1014.00   38.70
 -15   3   4  937.51   44.10
  15   3  -4 1060.79   41.80
  13  -3  -4 1855.01   69.89
 -13  -3   4 1827.82   63.09
 -13  -3   4 1837.52   64.59
 -13  -3   4 1830.82   65.39
  13  -3  -4 1807.02   64.49
  13  -3  -4 1889.21   63.29
 -13   3   4 1731.83   68.79
 -13   3   4 1937.01   63.79
  13   3  -4 1950.60   68.39
 -13   3   4 1913.51   63.09
  13   3  -4 1839.12   65.09
  13   3  -4 1775.32   62.29
 -11  -3   4 3319.47  104.69
 -11  -3   4 3130.59  105.39
  11  -3  -4 3156.58  104.69
  11  -3  -4 3246.78  110.29
 -11  -3   4 3321.67  105.59
  11  -3  -4 3385.56  104.39
 -11   3   4 3234.48  103.89
 -11   3   4 3253.87  110.39
 -11   3   4 3223.78  102.99
  11   3  -4 3193.78  103.29
 -11   3   4 3300.77  103.39
  11   3  -4 3277.27  105.89
  11   3  -4 3310.37  107.69
   9  -3  -4 2678.43   83.99
   9  -3  -4 2569.24   88.89
   9  -3  -4 2511.55   83.39
  -9  -3   4 2594.24   84.29
  -9  -3   4 2651.73   84.89
   9   3  -4 2474.95   82.89
   9   3  -4 2602.54   84.99
  -9   3   4 2602.64   82.49
   9   3  -4 2781.02   86.29
  -9   3   4 2564.74   82.89
  -9   3   4 2631.94   83.29
  -9   3   4 2607.64   89.49
   7  -3  -4 2403.76   76.19
   7  -3  -4 2421.66   81.59
  -7  -3   4 2422.56   78.39
  -7  -3   4 2425.36   76.19
   7  -3  -4 2534.75   77.79
  -7   3   4 2334.17   76.99
   7   3  -4 2461.45   77.59
  -7   3   4 2416.16   75.49
   7   3  -4 2375.56   78.29
  -7   3   4 2388.26   76.49
  -7   3   4 2386.16   82.79
   7   3  -4 2437.96   78.09
   5  -3  -4 4521.45  142.09
  -5  -3   4 4798.32  144.49
   5  -3  -4 4677.83  144.29
   5  -3  -4 4871.41  148.09
  -5  -3   4 4626.64  145.29
  -5  -3   4 4674.03  145.59
  -5   3   4 4736.83  143.19
  -5   3   4 4666.83  149.59
   5   3  -4 4754.32  145.39
   5   3  -4 4799.92  143.69
   5   3  -4 4600.14  145.19
  -5   3   4 4721.03  141.89
  -5   3   4 4474.95  144.49
   3  -3  -4 4246.67  130.59
  -3  -3   4 4221.98  131.49
  -3  -3   4 4209.58  130.39
   3  -3  -4 4140.89  127.59
   3  -3  -4 4078.69  127.39
  -3  -3   4 4409.96  131.89
  -3  -3   4 4176.58  131.69
   3   3  -4 4232.78  131.59
   3   3  -4 4421.56  132.99
  -3   3   4 4179.88  134.89
  -3   3   4 4167.88  130.79
   3   3  -4 4244.08  128.49
   1  -3  -4 3763.12  110.79
   1  -3  -4 3658.43  110.59
  -1  -3   4 3328.67  114.69
  -1  -3   4 3658.53  115.29
  -1  -3   4 3655.53  114.19
  -1   3   4 3677.23  114.69
  -1   3   4 3728.13  112.19
   1   3  -4 3735.33  115.69
   1   3  -4 3618.44  112.69
   1   3  -4 3777.82  114.69
   1   3  -4 3725.93  117.19
   1  -3   4 3136.39   99.29
   1  -3   4 3028.60   98.99
   1  -3   4 3248.48   96.29
   1  -3   4 2977.50   97.79
  -1  -3  -4 2999.50   95.59
  -1  -3  -4 3171.28   95.09
  -1   3  -4 3117.99   99.69
   1   3   4 2922.11   95.29
  -1   3  -4 3225.68  102.09
   1   3   4 3016.00   94.79
   1   3   4 3094.29   98.79
  -1   3  -4 3212.48   96.49
  -1   3  -4 3144.29   98.49
  -3  -3  -4 2156.68   69.79
  -3  -3  -4 2323.87   69.59
   3  -3   4 2226.68   71.09
   3  -3   4 2062.79   71.69
   3  -3   4 2071.19   73.19
   3  -3   4 2218.48   73.49
  -3   3  -4 2223.38   70.69
  -3   3  -4 2250.67   72.39
   3   3   4 2237.58   72.29
   3   3   4 2113.59   69.19
  -3   3  -4 2237.38   76.99
   3   3   4 2219.18   73.29
   3   3   4 2177.38   69.39
  -3   3  -4 2184.38   73.89
   5  -3   4 1494.05   56.59
  -5  -3  -4 1543.85   52.69
  -5  -3  -4 1657.93   52.59
   5  -3   4 1602.94   56.19
   5  -3   4 1525.55   54.49
   5  -3   4 1646.64   54.79
   5   3   4 1558.14   51.59
  -5   3  -4 1507.75   59.59
   5   3   4 1556.74   52.29
  -5   3  -4 1527.75   53.49
   5   3   4 1601.24   55.29
  -5   3  -4 1627.24   54.59
   5   3   4 1546.05   55.89
  -7  -3  -4  983.10   35.30
   7  -3   4  970.70   37.60
   7  -3   4  981.00   38.00
   7  -3   4  865.51   37.90
  -7  -3  -4  912.71   35.70
   7   3   4  935.31   35.00
   7   3   4  924.61   33.90
  -7   3  -4  901.01   36.10
  -7   3  -4 1004.70   44.30
   7   3   4  979.00   38.50
   9  -3   4  789.62   34.50
   9  -3   4  767.32   33.70
   9  -3   4  733.73   32.40
  -9  -3  -4  700.53   31.30
  -9   3  -4  686.83   31.20
   9   3   4  728.63   28.80
   9   3   4  751.42   30.40
  11  -3   4  672.53   32.00
  11  -3   4  635.84   31.10
  11  -3   4  625.94   33.30
 -11  -3  -4  648.04   31.30
  11   3   4  673.83   28.10
 -11   3  -4  657.83   31.10
  11   3   4  626.14   28.90
  13  -3   4  226.08   18.70
  13  -3   4  235.88   18.70
  13   3   4  185.08   16.00
 -13   3  -4  224.68   18.50
  13   3   4  257.27   20.30
  13   3   4  255.97   16.40
  20  -4  -4  137.59   17.70
  20   4  -4   81.69   13.00
 -20   4   4   89.09   16.70
  20   4  -4  111.19   14.00
 -18  -4   4  187.88   15.90
  18  -4  -4  198.38   17.50
  18   4  -4  190.38   15.20
 -18   4   4  185.98   19.90
  18   4  -4  228.88   17.70
 -16  -4   4  465.45   24.80
  16  -4  -4  429.06   24.60
 -16  -4   4  472.05   22.80
  16  -4  -4  489.95   24.80
  16   4  -4  445.96   22.80
 -16   4   4  472.55   23.50
 -16   4   4  444.16   28.60
  16   4  -4  474.95   25.00
 -14  -4   4  689.93   31.20
  14  -4  -4  765.92   31.30
  14  -4  -4  655.13   35.10
 -14  -4   4  707.53   29.30
  14  -4  -4  743.73   32.00
 -14   4   4  704.03   36.00
 -14   4   4  752.62   30.10
  14   4  -4  715.13   29.90
  14   4  -4  717.93   31.90
  12  -4  -4 1153.58   42.80
 -12  -4   4 1116.69   43.00
  12  -4  -4 1169.88   43.10
  12  -4  -4 1107.89   47.60
 -12  -4   4 1120.79   41.30
  12   4  -4 1118.09   43.30
 -12   4   4 1139.59   41.50
 -12   4   4 1150.08   48.70
  12   4  -4 1088.49   41.40
  12   4  -4 1114.99   45.10
 -12   4   4 1124.79   41.60
 -12   4   4 1159.38   41.00
 -10  -4   4  630.04   26.50
  10  -4  -4  590.54   25.10
  10  -4  -4  662.33   26.30
  10  -4  -4  606.34   29.80
 -10   4   4  631.74   30.90
 -10   4   4  608.34   24.30
  10   4  -4  590.84   25.10
  10   4  -4  630.34   26.40
 -10   4   4  603.94   23.90
  10   4  -4  626.04   27.30
 -10   4   4  600.94   25.10
  -8  -4   4  620.64   24.20
   8  -4  -4  622.94   24.30
   8  -4  -4  623.94   25.60
   8  -4  -4  655.63   29.30
  -8  -4   4  608.14   25.60
   8   4  -4  616.74   25.80
  -8   4   4  643.54   30.80
   8   4  -4  632.44   25.50
  -8   4   4  636.74   23.30
   8   4  -4  641.44   26.10
  -8   4   4  608.44   23.50
  -8   4   4  638.14   25.30
   6  -4  -4 2485.15   81.79
   6  -4  -4 2306.27   75.69
   6  -4  -4 2513.55   78.59
  -6  -4   4 2369.16   77.89
  -6  -4   4 2446.36   77.59
  -6  -4   4 2416.46   78.69
  -6   4   4 2399.16   83.99
  -6   4   4 2393.66   78.39
   6   4  -4 2354.16   78.39
   6   4  -4 2303.97   78.59
  -6   4   4 2333.67   75.29
   6   4  -4 2478.25   77.69
  -6   4   4 2375.26   75.19
  -4  -4   4 2006.30   64.79
   4  -4  -4 1841.52   60.99
  -4  -4   4 1916.01   64.79
  -4  -4   4 1902.51   64.09
   4  -4  -4 1996.10   64.39
  -4  -4   4 1911.21   63.59
  -4   4   4 2042.10   69.69
  -4   4   4 1885.71   64.29
  -4   4   4 2001.30   60.89
   4   4  -4 1968.30   65.59
  -4   4   4 1891.81   60.69
   4   4  -4 1969.20   62.39
  -2  -4   4 1443.76   49.20
   2  -4  -4 1475.35   49.90
  -2  -4   4 1495.75   50.99
  -2  -4   4 1441.56   49.70
  -2  -4   4 1451.85   50.69
   2  -4  -4 1475.15   46.30
  -2   4   4 1431.76   49.99
  -2   4   4 1450.05   46.40
   2   4  -4 1358.86   50.59
  -2   4   4 1432.96   53.09
   2   4  -4 1482.95   51.59
  -2   4   4 1561.94   45.80
   2   4  -4 1443.06   48.60
   0  -4   4 1083.79   40.60
   0  -4   4 1115.79   39.80
   0  -4  -4 1128.69   36.20
   0   4  -4 1041.80   39.40
   0   4  -4 1141.59   39.10
   0   4  -4 1184.68   42.80
   0   4   4 1094.39   40.00
   0   4  -4 1096.89   41.20
   0   4   4 1092.89   34.90
   2  -4   4  639.94   26.60
   2  -4   4  675.73   27.70
   2  -4   4  678.53   28.30
  -2  -4  -4  698.53   24.40
   2   4   4  675.53   24.20
   2   4   4  670.53   22.50
  -2   4  -4  701.73   28.90
  -2   4  -4  695.33   30.70
   2   4   4  673.83   27.80
  -2   4  -4  667.83   27.00
  -2   4  -4  708.13   26.70
  -4  -4  -4  616.54   22.50
   4  -4   4  619.54   25.60
  -4  -4  -4  644.24   23.90
   4  -4   4  596.04   27.20
   4  -4   4  633.14   27.80
   4  -4   4  601.74   25.90
  -4   4  -4  609.14   30.20
   4   4   4  639.94   21.60
   4   4   4  641.14   26.80
   4   4   4  626.64   23.60
  -4   4  -4  615.74   26.20
  -4   4  -4  597.24   25.40
  -4   4  -4  644.64   28.10
   4   4   4  630.64   27.10
   6  -4   4  801.82   33.00
  -6  -4  -4  828.82   30.90
  -6  -4  -4  780.12   29.40
   6  -4   4  822.22   34.90
   6  -4   4  790.72   33.00
   6  -4   4  790.22   34.20
  -6   4  -4  786.92   32.40
  -6   4  -4  807.12   32.70
   6   4   4  798.92   30.40
  -6   4  -4  883.21   40.10
   6   4   4  862.61   34.50
   6   4   4  780.82   33.70
   6   4   4  792.12   28.20
   8  -4   4  436.66   23.20
  -8  -4  -4  403.16   19.40
   8  -4   4  417.86   22.60
   8  -4   4  476.35   24.20
   8   4   4  461.05   23.70
   8   4   4  446.56   18.40
   8   4   4  410.86   20.00
  -8   4  -4  441.76   22.50
  10  -4   4  160.08   17.20
 -10  -4  -4  153.58   12.60
  10  -4   4  153.08   13.70
  10  -4   4  189.98   14.90
 -10   4  -4  167.18   14.20
  10   4   4  165.08   10.80
  10   4   4  134.59   13.10
  10   4   4  148.49   12.30
  12  -4   4  218.88   17.30
  12  -4   4  212.28   17.60
 -12  -4  -4  189.78   17.20
  12   4   4  195.48   17.70
  12   4   4  208.88   13.90
 -12   4  -4  217.28   17.90
  12   4   4  209.98   16.00
  19  -5  -4   50.59   11.70
 -19   5   4   61.29   14.40
  19   5  -4   60.49   11.00
  19   5  -4   50.19   10.90
  17  -5  -4   59.09   11.10
  17   5  -4   49.50    9.20
  17   5  -4   69.49   11.00
 -17   5   4   47.30   11.50
  15  -5  -4   22.50    8.50
  15  -5  -4   16.10    7.80
  15  -5  -4   24.20    6.80
 -15  -5   4   27.40    6.20
 -15   5   4   15.60    6.20
 -15   5   4    8.20    7.90
  15   5  -4   13.50    5.50
  15   5  -4   16.40    5.70
  13  -5  -4  218.08   18.30
  13  -5  -4  271.57   16.90
  13  -5  -4  295.37   17.50
 -13  -5   4  266.37   14.80
 -13   5   4  254.07   15.60
  13   5  -4  252.07   16.30
 -13   5   4  252.47   20.00
  13   5  -4  291.57   16.60
 -13   5   4  272.77   15.20
 -11  -5   4  155.68   12.70
  11  -5  -4  207.28   13.90
  11  -5  -4  194.58   15.00
  11  -5  -4  157.28   15.80
  11  -5  -4  226.88   13.40
  11   5  -4  155.58   13.70
 -11   5   4  173.78   11.10
 -11   5   4  191.98   16.80
  11   5  -4  162.28   12.10
 -11   5   4  208.98   11.70
  11   5  -4  144.79   11.60
 -11   5   4  184.08   12.40
   9  -5  -4  201.68   16.00
   9  -5  -4  163.38   11.10
  -9  -5   4  204.08   12.90
  -9  -5   4  200.18   11.90
  -9  -5   4  205.68   12.00
   9  -5  -4  213.18   13.60
   9   5  -4  202.08   12.90
  -9   5   4  173.78   15.60
   9   5  -4  209.08   13.80
  -9   5   4  214.68   13.10
  -9   5   4  202.28   11.00
   9   5  -4  194.98   12.70
  -9   5   4  197.68   10.90
   7  -5  -4  955.20   36.20
   7  -5  -4  896.51   33.40
  -7  -5   4  915.31   34.20
  -7  -5   4  928.71   35.80
  -7  -5   4  901.51   34.40
   7  -5  -4  926.51   38.50
  -7   5   4  940.91   41.30
   7   5  -4  966.60   35.40
   7   5  -4  921.41   36.60
  -7   5   4  929.21   32.60
   7   5  -4  919.61   35.60
  -7   5   4  910.01   35.70
  -7   5   4  882.01   31.90
  -5  -5   4  182.08   11.20
   5  -5  -4  165.48   11.10
  -5  -5   4  161.68   11.10
  -5  -5   4  153.38    9.80
  -5  -5   4  154.98    9.70
   5  -5  -4  152.08    8.60
   5   5  -4  160.18   11.50
   5   5  -4  173.28   10.00
  -5   5   4  167.48    8.50
  -5   5   4  146.79    7.50
  -5   5   4  166.58   11.10
  -5   5   4  166.38   14.00
   3  -5  -4  179.28    8.80
  -3  -5   4  174.08   10.40
  -3  -5   4  200.98   12.30
  -3  -5   4  178.38   10.60
   3  -5  -4  172.88    9.10
  -3  -5   4  185.48   11.80
   3  -5  -4  187.78   11.60
  -3   5   4  191.08   14.20
  -3   5   4  175.58    7.40
   3   5  -4  185.58   12.50
  -3   5   4  192.98   11.80
   3   5  -4  178.78   11.70
   1  -5  -4  389.36   15.10
   1  -5  -4  416.76   15.90
  -1  -5   4  409.76   20.00
  -1  -5   4  369.16   17.70
   1  -5  -4  395.76   19.00
  -1  -5   4  421.66   19.90
  -1  -5   4  400.16   18.00
   1   5  -4  384.36   18.50
  -1   5   4  393.56   19.00
   1   5  -4  390.56   18.60
   1   5  -4  382.66   19.90
   1   5  -4  396.76   20.00
   1  -5   4   63.09    6.60
   1  -5   4   76.09    8.20
   1  -5   4   65.59    6.50
  -1  -5  -4   71.79    5.60
   1   5   4   69.49    7.20
  -1   5  -4   61.99    6.80
  -1   5  -4   66.29    8.50
  -1   5  -4   44.00    6.50
  -1   5  -4   72.59    8.40
   3  -5   4  197.88   13.70
   3  -5   4  172.68   11.90
   3  -5   4  180.78   11.80
  -3  -5  -4  167.48    9.80
  -3   5  -4  180.48   13.10
  -3   5  -4  184.88   14.70
  -3   5  -4  171.58   11.90
   3   5   4  168.58    9.50
   3   5   4  175.28   12.30
  -3   5  -4  157.58   11.80
   5  -5   4   47.00    8.90
   5  -5   4   47.00    7.50
  -5  -5  -4   51.09    4.40
  -5  -5  -4   57.89    7.00
   5  -5   4   49.80    8.20
   5  -5   4   35.30    6.10
   5   5   4   38.40    6.80
  -5   5  -4   37.40    8.70
   5   5   4   47.70    8.20
  -5   5  -4   49.00    7.60
  -5   5  -4   45.40    7.30
   5   5   4   53.39    5.90
   5   5   4   59.29    4.00
  -5   5  -4   67.19    9.50
  -7  -5  -4   23.30    4.20
   7  -5   4   26.10    7.00
   7  -5   4   23.00    5.80
   7  -5   4   25.60    6.30
  -7   5  -4   12.40    5.40
   7   5   4   20.50    3.40
   7   5   4   13.20    5.60
   7   5   4   17.30    4.60
   9  -5   4   31.00    7.10
   9  -5   4   27.90    9.60
   9  -5   4   39.50    8.10
  -9  -5  -4   41.00    6.30
  -9   5  -4   41.20    8.70
   9   5   4   39.90    6.70
   9   5   4   46.20    5.70
   9   5   4   30.50    7.50
 -11  -5  -4   44.50    8.30
  11  -5   4   52.79   10.00
  11  -5   4   76.59   11.60
  11   5   4   45.20    9.40
 -11   5  -4   61.89   10.80
  11   5   4   57.29    8.90
  13  -5   4   38.50   10.00
  13  -5   4   35.60    9.90
  13   5   4   49.90    9.60
  13   5   4   45.90   11.10
 -13   5  -4   34.70   10.60
  18  -6  -4  389.06   27.10
 -18   6   4  457.95   32.10
  18   6  -4  425.76   26.00
  18   6  -4  435.66   26.70
  16  -6  -4  642.94   37.30
  16  -6  -4  649.54   33.20
 -16  -6   4  636.94   28.10
 -16   6   4  605.84   37.00
  16   6  -4  636.64   31.80
  16   6  -4  628.84   30.90
  14  -6  -4 1275.67   51.19
 -14  -6   4 1316.47   46.00
  14  -6  -4 1075.99   52.79
  14  -6  -4 1277.67   50.39
 -14   6   4 1325.47   47.80
 -14   6   4 1269.07   49.40
 -14   6   4 1203.88   56.59
  14   6  -4 1284.27   50.19
  14   6  -4 1193.68   48.90
  12  -6  -4 1891.11   68.09
  12  -6  -4 1841.52   66.69
 -12  -6   4 1853.81   63.39
 -12   6   4 1897.41   66.99
 -12   6   4 1791.42   74.19
  12   6  -4 1906.61   67.49
 -12   6   4 1890.31   64.19
 -12   6   4 1837.62   64.69
  12   6  -4 1826.22   66.99
 -10  -6   4 1133.39   43.40
  10  -6  -4 1105.79   46.70
 -10  -6   4 1110.49   40.30
  10  -6  -4  935.61   42.90
  10  -6  -4 1044.10   41.20
 -10  -6   4 1095.89   41.30
  10  -6  -4 1139.19   43.60
 -10   6   4 1067.49   39.40
  10   6  -4 1070.49   42.30
  10   6  -4 1185.58   44.50
 -10   6   4 1056.59   39.50
 -10   6   4 1090.69   42.60
 -10   6   4 1018.20   48.80
  10   6  -4 1097.29   42.90
  -8  -6   4  637.54   26.10
   8  -6  -4  665.83   29.50
  -8  -6   4  632.14   28.40
   8  -6  -4  649.83   26.90
   8  -6  -4  633.54   30.90
  -8  -6   4  657.93   27.60
  -8   6   4  614.54   28.60
  -8   6   4  640.14   25.00
   8   6  -4  710.03   29.30
  -8   6   4  679.13   25.80
  -8   6   4  614.24   33.80
   8   6  -4  625.24   28.20
   8   6  -4  674.23   29.80
  -6  -6   4 1718.33   58.49
  -6  -6   4 1800.32   61.09
  -6  -6   4 1705.03   59.59
   6  -6  -4 1775.82   61.99
  -6  -6   4 1723.43   61.49
   6  -6  -4 1668.53   57.99
  -6   6   4 1723.43   62.09
   6   6  -4 1792.22   63.19
  -6   6   4 1714.03   57.29
   6   6  -4 1846.92   60.59
  -6   6   4 1678.43   56.09
  -6   6   4 1670.63   67.69
   4  -6  -4 2336.27   74.09
  -4  -6   4 2276.77   78.29
   4  -6  -4 2369.76   78.69
  -4  -6   4 2330.67   78.69
   4  -6  -4 2320.27   74.59
  -4  -6   4 2266.67   76.19
  -4  -6   4 2288.87   75.29
   4   6  -4 2288.87   79.89
  -4   6   4 2289.97   79.09
  -4   6   4 2249.77   71.59
  -4   6   4 2265.47   83.99
  -2  -6   4 2517.05   86.19
  -2  -6   4 2495.45   83.29
  -2  -6   4 2452.95   83.99
   2  -6  -4 2641.14   81.19
  -2  -6   4 2619.44   87.19
   2  -6  -4 2688.53   86.69
   2  -6  -4 2617.84   81.89
  -2   6   4 2530.55   90.69
  -2   6   4 2508.85   86.59
   2   6  -4 2594.84   86.59
   2   6  -4 2517.75   87.69
   2   6  -4 2533.85   85.59
   0  -6  -4 2423.86   81.49
   0  -6  -4 2348.67   75.69
   0  -6   4 2339.57   79.69
   0  -6   4 2269.77   78.89
   0  -6   4 2351.26   82.09
   0  -6  -4 2475.05   76.89
   0   6  -4 2404.86   80.59
   0   6  -4 2402.96   83.39
   0   6   4 2409.16   81.79
   0   6  -4 2415.96   82.99
   0   6  -4 2429.06   81.69
   2  -6   4 1020.00   39.70
   2  -6   4 1062.39   42.60
  -2  -6  -4 1046.40   37.00
   2  -6   4  978.50   39.30
  -2   6  -4 1053.89   43.30
  -2   6  -4 1064.69   40.60
   2   6   4 1037.10   41.30
  -2   6  -4 1032.50   41.40
  -2   6  -4 1042.60   43.40
   4  -6   4 1182.88   46.80
   4  -6   4 1237.38   46.50
  -4  -6  -4 1245.38   43.50
  -4   6  -4 1349.56   56.79
   4   6   4 1188.78   43.00
   4   6   4 1182.48   47.40
  -4   6  -4 1201.28   47.40
  -4   6  -4 1163.68   48.90
   6  -6   4 1339.37   51.89
   6  -6   4 1341.17   50.99
   6  -6   4 1401.76   52.49
   6   6   4 1316.97   52.89
  -6   6  -4 1382.06   52.89
  -6   6  -4 1386.86   55.39
   6   6   4 1355.16   48.40
   8  -6   4  542.45   27.80
  -8  -6  -4  542.05   20.70
   8  -6   4  574.64   28.80
   8  -6   4  557.14   28.40
   8   6   4  589.54   29.90
   8   6   4  563.44   25.10
  -8   6  -4  549.85   28.70
  10  -6   4  453.65   25.60
 -10  -6  -4  436.76   19.40
  10  -6   4  480.35   27.10
 -10   6  -4  418.16   26.00
  10   6   4  475.45   23.50
  10   6   4  474.85   27.50
  12  -6   4  212.98   18.40
  12  -6   4  228.68   19.90
  12   6   4  183.88   18.90
 -12   6  -4  208.68   20.20
  12   6   4  230.38   17.10
  17  -7  -4  263.07   22.20
 -17   7   4  268.47   27.30
  17   7  -4  265.57   20.60
  17   7  -4  256.37   20.40
  15  -7  -4  549.85   29.90
  15  -7  -4  566.24   33.30
 -15  -7   4  584.34   25.00
 -15   7   4  552.64   29.20
  15   7  -4  496.95   28.70
  15   7  -4  522.25   28.70
 -15   7   4  541.95   35.80
  13  -7  -4  718.13   37.00
 -13  -7   4  799.82   30.40
 -13  -7   4  735.33   30.90
  13  -7  -4  736.53   34.40
 -13   7   4  730.73   31.70
  13   7  -4  724.03   34.20
 -13   7   4  711.73   34.00
  13   7  -4  760.72   35.10
 -13   7   4  730.03   41.00
 -11  -7   4 1066.69   39.70
  11  -7  -4 1088.79   44.70
  11  -7  -4 1033.90   42.60
  11  -7  -4  995.80   44.70
 -11  -7   4 1072.69   42.70
 -11   7   4 1100.19   40.70
  11   7  -4 1069.19   43.60
 -11   7   4 1053.99   43.80
  11   7  -4 1091.39   44.50
 -11   7   4 1085.49   41.40
 -11   7   4 1004.80   50.39
   9  -7  -4 1972.90   69.69
  -9  -7   4 1864.21   66.99
   9  -7  -4 1759.22   65.59
  -9  -7   4 1962.20   64.19
   9   7  -4 1933.71   68.09
  -9   7   4 1834.72   68.49
  -9   7   4 1753.72   63.79
  -9   7   4 1888.11   64.29
   9   7  -4 1890.81   69.49
  -9   7   4 1891.01   76.39
   9   7  -4 2049.59   69.79
  -7  -7   4 2753.52   95.29
  -7  -7   4 2857.21   94.19
   7  -7  -4 3003.00   93.69
  -7  -7   4 2832.12   91.89
  -7  -7   4 2784.52   96.19
   7  -7  -4 2905.11   97.19
  -7   7   4 2844.92   91.19
   7   7  -4 3157.58   96.89
  -7   7   4 2814.52   97.09
   7   7  -4 2761.42   97.69
  -7   7   4 2820.42   91.89
  -7   7   4 2568.54  103.09
  -5  -7   4 2717.93   87.09
  -5  -7   4 2799.62   91.69
   5  -7  -4 2769.92   92.39
   5  -7  -4 2751.82   87.39
  -5  -7   4 2606.84   88.69
  -5  -7   4 2742.73   91.59
   5   7  -4 2602.34   93.29
  -5   7   4 2494.15   97.39
  -5   7   4 2672.63   84.49
  -5   7   4 2681.53   92.49
   3  -7  -4 1228.08   47.30
  -3  -7   4 1208.58   43.10
  -3  -7   4 1189.08   44.50
   3  -7  -4 1206.28   42.90
  -3  -7   4 1278.87   48.20
  -3  -7   4 1200.68   46.70
   3  -7  -4 1170.88   41.90
   3   7  -4 1230.08   46.20
   3   7  -4 1209.28   48.70
   3   7  -4 1190.18   46.40
  -3   7   4 1242.68   38.40
  -3   7   4 1182.88   47.60
  -3   7   4 1133.89   51.39
  -1  -7   4 1213.58   45.50
   1  -7  -4 1329.17   45.00
  -1  -7   4 1364.56   49.99
  -1  -7   4 1266.37   47.00
   1  -7  -4 1269.77   43.60
   1  -7  -4 1240.78   49.00
  -1  -7   4 1262.47   49.99
  -1   7   4 1213.28   49.30
   1   7  -4 1221.68   50.69
   1   7  -4 1309.87   49.60
   1   7  -4 1319.37   49.90
  -1   7   4 1247.08   52.79
   1  -7   4  940.71   37.30
   1  -7   4 1026.60   54.49
  -1  -7  -4  914.41   35.30
  -1  -7  -4 1186.58   54.59
   1  -7   4  930.41   38.00
  -1  -7  -4  955.90   34.30
  -1   7  -4  929.51   38.80
  -1   7  -4  955.20   41.30
   1   7   4  968.30   40.30
  -1   7  -4  949.40   40.70
  -1   7  -4  978.30   42.00
   3  -7   4  500.85   24.40
   3  -7   4  481.65   23.90
  -3  -7  -4  521.95   22.40
  -3   7  -4  506.15   27.60
  -3   7  -4  460.95   25.90
   3   7   4  500.35   25.60
   5  -7   4  855.81   36.90
   5  -7   4  885.61   37.00
   5   7   4  860.91   33.90
  -5   7  -4  817.12   38.40
   5   7   4  861.91   38.90
  -5   7  -4  914.51   40.80
   7  -7   4  418.16   23.50
   7  -7   4  411.26   22.70
  -7   7  -4  379.06   24.50
   7   7   4  403.46   20.30
   7   7   4  386.56   23.90
  -7   7  -4  376.16   25.20
   9  -7   4  160.08   14.20
   9  -7   4  134.39   14.50
   9   7   4  137.29   14.60
  -9   7  -4  134.99   16.10
   9   7   4  131.89   12.10
  11  -7   4  316.27   23.10
  11  -7   4  309.17   21.40
 -11   7  -4  272.67   23.30
  11   7   4  243.38   22.10
  11   7   4  347.47   20.00
  16  -8  -4    5.60    8.50
 -16  -8   4    2.70    5.20
  16   8  -4   -5.40    7.80
 -16   8   4    2.40    7.20
 -16   8   4    6.70   11.10
  16   8  -4   -1.90    6.20
 -14  -8   4   22.00    5.90
  14  -8  -4    5.50    6.70
 -14  -8   4   14.80    5.30
  14  -8  -4   13.00    7.60
 -14   8   4    7.40   10.10
 -14   8   4   12.60    7.40
  14   8  -4    5.80    6.40
  14   8  -4   15.40    7.70
  12  -8  -4   40.90    9.60
 -12  -8   4   39.90    6.70
  12  -8  -4   38.80    9.00
 -12  -8   4   32.30    5.90
 -12   8   4   32.70   11.20
 -12   8   4   41.60    9.40
 -12   8   4   29.10    7.40
  12   8  -4   31.50    8.60
  12   8  -4   36.80    8.50
 -10  -8   4  115.79    8.90
  10  -8  -4   83.19   10.90
 -10   8   4  112.69   10.40
 -10   8   4  117.89   17.90
 -10   8   4  108.39   12.40
  10   8  -4  114.59   11.90
 -10   8   4  110.89   10.60
  10   8  -4  140.49   14.10
  -8  -8   4   12.40    4.40
   8  -8  -4    5.20    4.00
  -8  -8   4    9.80    3.30
  -8   8   4    4.00    6.70
  -8   8   4    5.90    3.50
  -8   8   4    7.00    4.30
   8   8  -4   13.20    6.10
  -8   8   4   11.80    6.40
  -6  -8   4   51.19    5.90
  -6  -8   4   44.00    7.40
   6  -8  -4   54.59    7.50
  -6   8   4   71.79   13.10
  -6   8   4   51.19    5.70
  -6   8   4   46.70    9.00
   6   8  -4   49.90    9.30
   6   8  -4   47.80    9.00
   4  -8  -4  344.17   18.00
  -4  -8   4  344.87   18.60
  -4  -8   4  346.27   16.60
   4  -8  -4  341.37   16.90
  -4   8   4  336.67   21.10
   4   8  -4  329.57   21.40
  -4   8   4  353.26   13.80
  -4   8   4  317.47   24.30
  -2  -8   4    5.80    4.10
   2  -8  -4   15.30    4.10
   2  -8  -4    8.90    4.50
  -2  -8   4    8.50    3.30
  -2   8   4   18.10    6.40
   2   8  -4   12.30    5.60
  -2   8   4    6.30    5.70
   2   8  -4    5.50    5.80
   2   8  -4   17.30    6.40
   0  -8  -4    9.60    5.10
   0  -8   4   10.80    4.70
   0  -8   4    8.40    3.70
   0  -8  -4    7.90    3.30
   0   8  -4    9.40    6.50
   0   8  -4    7.20    5.90
   0   8  -4   -3.10    4.20
   0   8   4    8.90    5.30
   0   8   4    3.50    6.20
   2  -8   4   13.30    5.10
   2  -8   4    4.20    3.60
  -2  -8  -4    9.00    3.60
   2   8   4    6.10    5.50
  -2   8  -4    2.30    5.50
  -2   8  -4    7.80    5.30
   4  -8   4    3.30    4.50
   4  -8   4    1.20    3.80
  -4  -8  -4    4.30    3.80
   4   8   4    9.00    5.70
  -4   8  -4   13.10    7.00
  -4   8  -4    0.90    6.70
   6  -8   4   10.20    5.20
   6  -8   4    2.40    5.20
  -6   8  -4    8.90    7.40
   6   8   4   10.60    5.10
   6   8   4   20.40    7.20
  -6   8  -4   13.20    8.30
   8  -8   4   16.00    7.20
   8  -8   4   15.00    6.10
  -8   8  -4   -2.50    8.80
   8   8   4    4.50    5.10
  -8   8  -4    8.80    8.10
   8   8   4   20.00    8.40
  10  -8   4   41.10   10.30
  10  -8   4   30.60    8.50
 -10   8  -4   31.10   11.80
  10   8   4   57.49    9.30
  10   8   4   35.60   12.70
  15  -9  -4  332.87   25.00
 -15  -9   4  349.87   18.40
  15   9  -4  334.77   23.70
 -15   9   4  318.87   31.20
  15   9  -4  333.37   25.50
 -15   9   4  381.46   26.00
 -13  -9   4  507.35   22.40
 -13  -9   4  498.95   22.20
  13  -9  -4  537.15   29.80
 -13   9   4  457.25   36.00
  13   9  -4  471.25   29.90
 -13   9   4  518.65   30.30
  13   9  -4  515.45   28.80
 -11  -9   4  664.23   26.80
  11  -9  -4  694.03   33.00
 -11  -9   4  667.93   27.60
  11   9  -4  683.83   33.70
 -11   9   4  684.73   34.70
 -11   9   4  668.33   30.50
  11   9  -4  673.33   35.60
 -11   9   4  601.34   40.10
  -9  -9   4  524.15   25.90
  -9  -9   4  511.45   21.70
   9  -9  -4  516.25   26.20
  -9   9   4  526.75   25.00
  -9   9   4  500.15   23.20
   9   9  -4  530.65   29.80
  -9   9   4  471.25   33.40
  -9   9   4  488.75   28.70
  -7  -9   4  985.90   40.40
   7  -9  -4 1017.80   40.00
  -7  -9   4  984.10   36.40
  -7   9   4  964.50   50.99
  -7   9   4  977.00   44.20
  -7   9   4 1036.30   36.70
   7   9  -4 1010.70   45.80
  -5  -9   4 1216.68   47.30
   5  -9  -4 1270.17   45.80
  -5  -9   4 1165.88   43.30
  -5   9   4 1256.27   41.50
  -5   9   4 1212.58   51.79
   5   9  -4 1245.48   53.09
  -5   9   4 1187.98   57.19
  -3  -9   4  726.73   32.20
   3  -9  -4  736.63   29.80
  -3  -9   4  688.63   28.90
  -3   9   4  734.13   35.70
   3   9  -4  739.93   37.10
  -3   9   4  721.13   40.30
   3   9  -4  746.23   36.10
  -1  -9   4  733.13   31.00
   1  -9  -4  720.03   30.00
  -1  -9   4  746.13   33.30
   1   9  -4  784.42   38.70
  -1   9   4  776.62   40.90
   1   9  -4  789.02   35.80
  -1   9   4  782.42   37.60
   1   9  -4  767.32   37.60
  -1  -9  -4  965.40   36.80
   1  -9   4  948.31   39.10
   1  -9   4 1042.60   41.30
  -1   9  -4  942.51   45.30
   1   9   4 1018.50   44.70
   1   9   4  958.40   47.10
  -1   9  -4  962.40   45.10
   3  -9   4 1068.59   43.70
   3  -9   4 1053.89   42.10
  -3  -9  -4 1051.19   39.20
  -3   9  -4  946.61   46.70
  -3   9  -4 1076.49   49.10
   3   9   4 1057.69   47.20
   5  -9   4  956.50   41.10
   5  -9   4  926.71   39.40
  -5  -9  -4  950.80   36.90
   5   9   4  914.31   44.10
  -5   9  -4  975.40   46.70
  -5   9  -4  885.61   44.60
   7  -9   4  487.65   26.10
   7  -9   4  478.05   27.20
   7   9   4  475.75   29.90
  -7   9  -4  489.65   31.40
  -7   9  -4  450.35   30.50
  12 -10  -4  433.06   27.00
 -12 -10   4  405.46   24.40
 -12 -10   4  422.96   18.90
  12  10  -4  463.45   29.90
 -12  10   4  430.96   35.60
 -12  10   4  426.06   28.20
 -10 -10   4  453.05   19.40
 -10 -10   4  440.06   24.80
  10 -10  -4  453.35   25.60
 -10  10   4  425.06   24.60
 -10  10   4  454.75   28.70
 -10  10   4  459.75   34.80
  10  10  -4  423.36   28.80
   8 -10  -4  585.64   27.60
  -8 -10   4  517.05   21.70
  -8 -10   4  502.35   26.40
  -8  10   4  521.15   23.50
   8  10  -4  481.55   31.00
  -8  10   4  501.15   35.90
  -8  10   4  537.15   31.00
  -6 -10   4  533.55   27.40
   6 -10  -4  559.94   26.70
  -6 -10   4  525.05   23.00
   6  10  -4  575.54   33.20
  -6  10   4  590.44   32.40
  -6  10   4  569.24   22.90
  -6  10   4  599.94   39.20
  -4 -10   4  474.35   21.60
  -4 -10   4  496.65   25.40
   4 -10  -4  491.85   23.50
   4  10  -4  501.35   30.40
  -4  10   4  483.75   29.40
   4  10  -4  477.15   29.40
  -4  10   4  462.65   33.10
   2 -10  -4  660.33   27.60
  -2 -10   4  638.64   30.00
  -2 -10   4  628.64   27.10
  -2  10   4  582.64   33.40
   2  10  -4  563.84   30.70
  -2  10   4  637.94   38.70
   2  10  -4  608.04   34.60
   2  10  -4  604.54   34.00
   0 -10  -4  652.13   28.00
   0 -10   4  664.13   31.10
   0 -10   4  636.24   28.90
   0  10   4  619.34   35.00
   0  10  -4  641.34   36.20
   0  10  -4  680.13   36.50
   0  10   4  633.64   38.40
  -2 -10  -4  481.35   22.70
   2 -10   4  440.66   23.10
   2 -10   4  512.85   26.50
  -2  10  -4  449.16   29.70
   2  10   4  423.76   31.10
   2  10   4  458.05   29.00
  -2  10  -4  491.95   30.20
  -4 -10  -4  397.86   20.70
   4 -10   4  422.06   24.80
   4 -10   4  409.26   22.40
   4  10   4  352.66   25.90
  -4  10  -4  408.06   29.60
  -4  10  -4  399.26   28.90
  -6 -10  -4  331.77   19.50
   6 -10   4  325.57   22.10
   6 -10   4  351.46   21.20
  -6  10  -4  321.17   25.80
  -6  10  -4  306.57   26.60
   6  10   4  309.17   24.60
  -9 -11   4   14.60    6.90
   9 -11  -4   -4.80    7.20
  -9 -11   4   10.10    4.10
   9  11  -4   13.00   10.20
  -9  11   4    9.00    8.70
  -9  11   4   -1.60   12.00
  -7 -11   4    3.40    4.10
  -7 -11   4    2.50    5.90
   7 -11  -4    6.80    7.10
  -7  11   4    0.00    8.40
  -7  11   4    5.60   11.80
   7  11  -4   11.70    9.50
  -5 -11   4   33.30    8.70
  -5 -11   4   35.00    6.20
   5 -11  -4   32.60    7.50
  -5  11   4   46.20   11.90
  -5  11   4   32.80    5.90
   5  11  -4   44.10   12.90
   5  11  -4   29.20   10.90
  -5  11   4   49.50   15.20
  -3 -11   4   24.90    6.00
  -3 -11   4   25.40    7.40
   3 -11  -4   16.60    6.60
   3  11  -4   19.70   10.80
   3  11  -4   22.50   10.20
  -3  11   4   28.90   11.90
  -3  11   4   29.30    9.40
  -1 -11   4    9.20    5.00
  -1 -11   4    5.10    5.70
   1 -11  -4    9.50    5.90
  -1  11   4    6.90   10.40
   1  11  -4   20.80   10.10
  -1  11   4    7.70    9.30
   1  11  -4   11.60   10.40
   1 -11   4    7.50    5.50
   1 -11   4    2.80    4.30
  -1  11  -4    7.90   10.50
  -1  11  -4    5.70    9.10
   1  11   4    1.80    9.20
   1  11   4    5.20    9.00
   3 -11   4    2.10    6.80
   3 -11   4    7.90    5.50
  -3 -11  -4    8.80    6.50
  -3  11  -4    8.80   10.30
  -3  11  -4   -7.70   11.30
   3  11   4   10.50   10.20
   3  11   4   16.10   10.80
 -22   0   5   -5.70    8.20
  22   0  -5    1.10    7.90
  20   0  -5    8.50    6.50
  20   0  -5  -10.00    7.70
 -20   0   5   -5.70    5.50
 -18   0   5    1.60    4.70
  18   0  -5   -6.70    3.80
  18   0  -5   -0.20    5.10
  16   0  -5    5.40    3.60
  14   0  -5    4.70    5.90
 -14   0   5   -0.80    3.00
  14   0  -5    3.90    3.00
 -14   0   5    9.00    3.60
  14   0  -5    0.30    2.50
 -14   0   5    9.70    5.10
 -12   0   5    2.20    2.90
  12   0  -5   -0.90    2.40
  12   0  -5    2.10    4.50
 -12   0   5    4.00    2.70
  12   0  -5    0.10    1.60
 -12   0   5    0.50    2.60
  10   0  -5    5.00    1.30
  10   0  -5    2.80    2.00
 -10   0   5    3.10    2.00
 -10   0   5    3.20    2.30
  10   0  -5    6.10    3.60
  -8   0   5    1.40    1.70
   8   0  -5    2.40    1.60
  -8   0   5    1.60    1.40
   8   0  -5    0.40    2.30
  -6   0   5    3.90    1.40
   6   0  -5    4.20    1.50
   6   0  -5    7.20    2.50
  -6   0   5    1.30    1.60
  -4   0   5    0.20    1.10
   4   0  -5    4.40    1.60
   4   0  -5    2.30    1.10
  -4   0   5    0.70    0.70
  -4   0   5    5.10    1.20
  -4   0   5    7.00    1.40
  -4   0   5    2.30    1.30
  -2   0   5    4.00    1.20
   2   0  -5    1.70    1.70
   2   0  -5    1.00    0.80
  -2   0   5    4.50    1.10
  -2   0   5    2.10    1.50
  -2   0   5    2.30    1.30
   0   0   5    5.20    1.30
   0   0   5    1.80    1.70
   0   0   5    6.40    1.60
   0   0  -5    2.10    1.40
   0   0  -5    2.80    2.10
   2   0   5    1.70    1.80
  -2   0  -5    1.80    1.70
  -2   0  -5    4.10    2.90
   2   0   5    1.70    1.50
   2   0   5   -0.40    1.70
  -4   0  -5    0.90    2.00
  -4   0  -5    3.60    3.80
   4   0   5    1.20    2.50
   4   0   5   -0.80    1.60
   4   0   5    5.30    2.80
  -6   0  -5    4.60    3.40
   6   0   5    4.30    4.60
   6   0   5    2.70    2.50
   6   0   5    1.30    2.80
  -6   0  -5    1.50    4.80
   6   0   5   -1.20    3.60
  -8   0  -5   -0.30    6.60
   8   0   5   -4.50    5.30
   8   0   5    1.80    3.00
   8   0   5   -2.40    3.10
  10   0   5    5.30    8.00
  10   0   5   -0.50    3.70
  10   0   5    6.70    4.60
  12   0   5   -0.10    4.80
  12   0   5    6.70    6.00
  21  -1  -5  198.98   18.50
 -21  -1   5  193.58   18.90
  21   1  -5  203.58   15.40
  21   1  -5  252.07   19.50
 -21   1   5  169.08   18.90
 -19  -1   5  436.66   26.70
  19  -1  -5  455.95   23.40
  19  -1  -5  465.65   26.10
  19   1  -5  470.45   22.60
 -19   1   5  460.35   27.60
  19   1  -5  471.15   23.30
  19   1  -5  464.65   26.10
  17  -1  -5  828.72   37.10
 -17  -1   5  857.91   39.10
  17  -1  -5  879.91   34.10
  17   1  -5  898.51   37.90
 -17   1   5  865.41   36.00
  17   1  -5  909.81   34.00
 -17   1   5  900.91   40.70
  17   1  -5  841.52   33.50
 -15  -1   5  418.26   20.70
  15  -1  -5  405.76   20.80
  15  -1  -5  402.26   18.10
 -15  -1   5  404.66   22.10
 -15  -1   5  411.96   20.10
  15  -1  -5  397.66   25.40
 -15   1   5  430.76   20.30
 -15   1   5  365.16   19.60
  15   1  -5  423.96   21.40
 -15   1   5  403.16   22.90
  15   1  -5  395.06   17.70
  15   1  -5  409.16   24.30
  15   1  -5  428.76   18.00
  13  -1  -5 1080.19   37.00
 -13  -1   5 1122.39   40.20
  13  -1  -5 1067.29   40.30
 -13  -1   5 1046.70   39.80
  13  -1  -5 1095.89   44.90
 -13  -1   5 1064.89   42.00
 -13   1   5 1034.30   43.00
  13   1  -5 1059.79   36.70
  13   1  -5 1050.29   40.60
  13   1  -5 1094.79   44.00
 -13   1   5 1095.29   40.00
 -13   1   5 1150.78   39.70
  11  -1  -5 2525.75   85.29
 -11  -1   5 2412.36   80.49
  11  -1  -5 2519.85   77.39
 -11  -1   5 2444.26   82.29
 -11   1   5 2449.35   84.19
  11   1  -5 2524.85   81.49
 -11   1   5 2355.16   80.59
  11   1  -5 2614.14   84.59
  11   1  -5 2460.65   77.09
 -11   1   5 2524.65   79.89
   9  -1  -5 1910.11   64.89
  -9  -1   5 1835.82   61.69
  -9  -1   5 1796.42   60.59
   9  -1  -5 1861.91   60.39
   9  -1  -5 1872.71   57.69
  -9   1   5 1873.51   59.79
  -9   1   5 1897.41   63.89
   9   1  -5 1835.82   61.19
   9   1  -5 1896.41   63.19
   9   1  -5 1797.12   57.29
  -7  -1   5 3995.40  122.79
   7  -1  -5 3867.81  125.39
   7  -1  -5 3909.81  121.39
  -7  -1   5 3888.21  122.29
  -7   1   5 4062.29  118.89
   7   1  -5 3992.00  122.79
  -7   1   5 3981.30  125.29
   7   1  -5 3909.11  118.89
   7   1  -5 4052.69  123.89
  -7   1   5 3996.70  120.99
  -5  -1   5 3115.89   94.69
  -5  -1   5 3079.09   95.69
   5  -1  -5 3075.99   97.89
  -5  -1   5 3053.19   98.59
  -5  -1   5 3028.40   94.39
  -5   1   5 3073.49   94.09
   5   1  -5 3123.09   95.69
   5   1  -5 3115.99   95.89
  -5   1   5 3128.49   98.09
  -5   1   5 3128.89   93.59
  -3  -1   5 2769.42   85.79
  -3  -1   5 2700.43   88.89
  -3  -1   5 2788.92   86.39
  -3  -1   5 2694.63   86.19
  -3   1   5 2852.11   88.39
   3   1  -5 2828.12   89.69
  -3   1   5 2828.22   87.99
  -1  -1   5 2809.62   88.39
   1  -1  -5 2726.83   89.19
   1  -1  -5 2780.02   85.19
  -1  -1   5 2809.82   86.89
  -1  -1   5 2755.72   89.79
  -1   1   5 2787.62   88.79
   1   1  -5 2850.61   87.39
   1   1  -5 2835.12   91.09
  -1   1   5 2890.61   84.89
   1  -1   5  609.44   20.40
   1  -1   5  557.04   23.50
  -1  -1  -5  612.94   20.60
   1  -1   5  560.14   23.10
   1  -1   5  578.04   21.50
  -1  -1  -5  573.24   23.60
   1   1   5  592.14   21.40
   1   1   5  584.84   20.30
   1   1   5  601.94   23.00
  -1   1  -5  600.44   22.20
  -1   1  -5  584.14   25.40
   3  -1   5 1407.46   47.00
   3  -1   5 1380.76   49.10
  -3  -1  -5 1406.16   45.80
   3  -1   5 1293.57   48.90
   3  -1   5 1462.75   46.60
  -3  -1  -5 1414.96   49.50
   3   1   5 1323.87   47.90
   3   1   5 1397.36   45.80
  -3   1  -5 1359.76   45.20
  -3   1  -5 1402.06   51.99
  -3   1  -5 1414.76   47.20
   3   1   5 1375.26   46.90
  -5  -1  -5 1284.77   43.50
  -5  -1  -5 1213.08   47.30
   5  -1   5 1253.07   44.60
   5  -1   5 1333.77   45.30
   5  -1   5 1235.58   47.50
   5  -1   5 1311.27   47.50
   5   1   5 1194.38   45.60
   5   1   5 1287.87   43.90
   5   1   5 1305.87   45.60
  -5   1  -5 1272.57   50.69
  -5   1  -5 1263.37   44.40
  -5   1  -5 1219.08   43.30
  -7  -1  -5  376.06   22.00
   7  -1   5  402.26   19.10
  -7  -1  -5  356.46   17.80
   7  -1   5  369.16   20.20
   7  -1   5  390.66   20.20
  -7   1  -5  388.16   24.80
   7   1   5  379.86   19.20
  -7   1  -5  358.76   17.90
   7   1   5  381.56   18.20
   7   1   5  402.96   20.60
   9  -1   5  360.96   20.70
   9  -1   5  352.86   21.90
   9  -1   5  339.57   19.40
   9   1   5  372.66   19.40
  -9   1  -5  360.76   19.00
   9   1   5  357.96   19.00
   9   1   5  361.86   22.40
  11  -1   5  222.08   16.10
  11  -1   5  223.08   16.50
 -11   1  -5  158.98   14.40
  11   1   5  219.08   15.50
  11   1   5  192.98   14.60
  13  -1   5  153.98   14.90
  13  -1   5  147.19   15.70
  13   1   5  146.29   14.40
  13   1   5  124.09   14.00
 -22  -2   5  184.88   21.70
  22  -2  -5  235.58   21.00
  22   2  -5  184.28   16.40
 -22   2   5  186.28   22.10
  22   2  -5  216.38   19.80
  20  -2  -5  458.15   27.20
 -20  -2   5  483.05   28.00
 -20   2   5  455.55   29.80
  20   2  -5  474.75   27.40
  20   2  -5  482.65   24.20
  18  -2  -5  725.13   30.70
 -18  -2   5  709.83   34.30
  18  -2  -5  698.43   33.10
 -18   2   5  621.44   35.10
  18   2  -5  700.03   29.40
  18   2  -5  689.23   32.80
 -16  -2   5  541.45   25.60
  16  -2  -5  453.05   24.00
  16  -2  -5  539.75   23.10
 -16  -2   5  496.95   25.90
 -16   2   5  479.75   27.60
  16   2  -5  488.75   25.00
 -16   2   5  509.95   23.60
  16   2  -5  521.25   22.20
 -14  -2   5 1492.85   52.59
 -14  -2   5 1512.85   53.49
  14  -2  -5 1491.25   50.49
  14  -2  -5 1523.05   59.69
  14  -2  -5 1419.66   52.99
 -14  -2   5 1352.46   53.59
  14   2  -5 1466.45   53.89
  14   2  -5 1499.05   57.29
  14   2  -5 1428.76   49.90
 -14   2   5 1465.05   57.39
 -14   2   5 1474.55   52.29
 -14   2   5 1564.64   52.19
  12  -2  -5 2402.76   83.09
  12  -2  -5 2621.54   81.29
 -12  -2   5 2587.54   84.29
 -12  -2   5 2559.64   84.79
 -12  -2   5 2581.84   83.99
  12  -2  -5 2608.74   89.39
 -12   2   5 2502.75   88.09
 -12   2   5 2530.15   83.09
  12   2  -5 2526.95   80.59
  12   2  -5 2488.65   84.39
 -12   2   5 2537.65   82.19
  12   2  -5 2573.44   87.19
 -10  -2   5 2421.46   79.29
  10  -2  -5 2337.17   78.09
 -10  -2   5 2394.06   79.39
  10  -2  -5 2489.25   76.99
  10  -2  -5 2497.85   83.69
  10   2  -5 2514.65   81.39
  10   2  -5 2522.75   79.99
  10   2  -5 2318.87   76.19
 -10   2   5 2380.86   75.59
 -10   2   5 2501.15   77.49
 -10   2   5 2446.16   78.89
 -10   2   5 2351.76   82.99
   8  -2  -5 1516.65   49.60
   8  -2  -5 1573.34   55.09
  -8  -2   5 1520.05   51.19
  -8  -2   5 1494.45   47.90
   8  -2  -5 1503.35   48.80
  -8  -2   5 1616.94   50.99
   8   2  -5 1437.06   48.90
   8   2  -5 1540.55   51.99
  -8   2   5 1537.85   51.39
  -8   2   5 1536.35   48.40
  -8   2   5 1553.14   49.00
  -8   2   5 1505.25   54.59
   8   2  -5 1522.25   51.49
  -6  -2   5 1294.57   42.20
   6  -2  -5 1297.57   46.50
  -6  -2   5 1305.47   43.90
   6  -2  -5 1303.57   41.70
  -6  -2   5 1244.88   42.00
  -6  -2   5 1295.07   45.80
  -6   2   5 1292.07   42.20
   6   2  -5 1316.37   42.30
   6   2  -5 1331.77   43.30
   6   2  -5 1317.27   44.00
  -6   2   5 1322.87   47.20
  -6   2   5 1339.57   40.90
  -4  -2   5 3089.29   96.59
  -4  -2   5 3073.39   95.79
  -4  -2   5 3080.79   95.99
  -4  -2   5 2979.00   98.29
  -4   2   5 3118.59   95.49
  -4   2   5 3152.48   99.69
   4   2  -5 3078.19   93.99
   4   2  -5 3077.89   95.59
  -2  -2   5 2836.22   87.99
  -2  -2   5 2775.92   88.59
  -2  -2   5 2730.93   88.89
   2   2  -5 2842.02   91.69
   2   2  -5 2873.71   88.79
  -2   2   5 2835.62   88.49
  -2   2   5 2757.42   88.19
   2   2  -5 2827.12   88.19
  -2   2   5 2789.32   90.49
   0  -2  -5 2599.24   78.69
   0  -2  -5 2624.84   82.29
   0  -2   5 2570.64   83.19
   0  -2   5 2468.05   83.59
   0  -2   5 2500.35   81.59
   0   2   5 2522.15   78.39
   0   2  -5 2564.84   82.29
   0   2   5 2625.44   81.79
   0   2  -5 2768.82   86.79
   2  -2   5 1818.32   59.49
   2  -2   5 1714.03   59.49
   2  -2   5 1746.53   57.39
  -2  -2  -5 1755.92   54.89
   2  -2   5 1718.83   55.39
  -2  -2  -5 1717.33   57.79
  -2   2  -5 1692.63   54.49
   2   2   5 1720.23   54.89
  -2   2  -5 1777.92   57.99
   2   2   5 1670.83   56.99
   2   2   5 1772.62   57.39
  -2   2  -5 1652.13   61.99
   4  -2   5  918.31   33.50
  -4  -2  -5  863.71   33.70
   4  -2   5  922.21   32.90
  -4  -2  -5  888.91   31.20
   4  -2   5  858.61   35.20
   4  -2   5  913.21   35.30
  -4   2  -5  852.91   33.10
  -4   2  -5  877.31   38.70
   4   2   5  903.81   31.40
  -4   2  -5  851.51   31.10
   4   2   5  856.91   33.10
   4   2   5  926.31   33.90
   6  -2   5 1027.40   38.60
  -6  -2  -5  944.31   39.00
  -6  -2  -5 1029.50   36.60
   6  -2   5  994.80   40.60
   6  -2   5  966.60   39.90
   6  -2   5 1065.49   38.90
  -6   2  -5  999.70   36.80
   6   2   5 1096.29   39.70
   6   2   5  987.90   37.40
   6   2   5 1005.00   36.70
  -6   2  -5  986.60   38.00
  -6   2  -5 1004.10   45.00
   8  -2   5  642.94   28.60
  -8  -2  -5  608.54   29.60
   8  -2   5  654.73   30.00
   8  -2   5  671.13   30.00
  -8   2  -5  577.54   26.60
   8   2   5  667.53   30.10
   8   2   5  617.84   26.70
   8   2   5  641.54   26.90
  10  -2   5  399.56   23.40
  10  -2   5  447.66   26.10
  10  -2   5  445.46   23.40
 -10   2  -5  385.16   21.60
  10   2   5  436.96   21.60
  10   2   5  456.55   22.30
  12  -2   5  203.28   16.90
  12  -2   5  222.38   17.90
  12   2   5  243.78   16.30
 -12   2  -5  209.38   17.00
  12   2   5  207.18   16.00
  21  -3  -5   -2.70    8.20
 -21  -3   5    7.80    8.20
 -21   3   5    6.30    8.30
  21   3  -5   -4.50    6.80
  21   3  -5   -4.70    6.40
  19  -3  -5    6.20    8.40
  19  -3  -5    4.00    5.70
 -19  -3   5    2.60    5.20
  19   3  -5   -5.80    4.40
  19   3  -5   -2.10    5.70
 -19   3   5    6.30    7.10
  17  -3  -5   83.09   10.30
 -17  -3   5   79.49    9.90
  17  -3  -5   77.79   11.00
  17   3  -5   74.89   10.60
  17   3  -5   71.49    8.50
 -17   3   5   70.29   12.60
 -17   3   5   88.49   10.70
  15  -3  -5  143.49   11.20
  15  -3  -5  185.18   13.20
 -15  -3   5  132.79   11.60
 -15  -3   5  131.29   11.80
 -15  -3   5  149.09   11.50
 -15   3   5  173.68   11.90
  15   3  -5  122.49   11.30
 -15   3   5  165.98   15.60
  15   3  -5  134.69   10.00
  13  -3  -5   83.99    7.90
 -13  -3   5   61.99    7.20
 -13  -3   5   70.99    7.60
 -13  -3   5   68.99    8.30
  13  -3  -5   84.49   12.40
  13   3  -5   71.29    6.70
  13   3  -5   66.19    8.90
  13   3  -5   57.69    9.70
 -11  -3   5  179.18   11.50
  11  -3  -5  188.38   11.20
  11  -3  -5  183.48   15.00
  11  -3  -5  205.88   11.20
 -11  -3   5  201.48   12.30
 -11   3   5  176.58    9.70
  11   3  -5  196.58   12.10
  11   3  -5  181.68   13.20
 -11   3   5  197.08   10.50
 -11   3   5  206.38   15.10
 -11   3   5  177.28   10.70
  -9  -3   5  182.78    9.10
   9  -3  -5  188.48   10.30
  -9  -3   5  184.68   11.00
  -9  -3   5  171.98   10.10
   9  -3  -5  180.38    9.80
   9  -3  -5  203.78   14.10
  -9   3   5  187.38   10.20
  -9   3   5  195.18    9.30
   9   3  -5  190.08   10.20
  -9   3   5  199.28    9.80
   9   3  -5  183.48   11.60
   9   3  -5  176.78   11.10
  -9   3   5  166.78   13.20
  -7  -3   5  438.66   19.90
  -7  -3   5  460.65   19.30
   7  -3  -5  428.46   16.60
   7  -3  -5  440.76   17.70
   7  -3  -5  425.16   21.40
  -7  -3   5  443.26   17.30
  -7   3   5  438.56   18.00
   7   3  -5  465.55   19.30
   7   3  -5  446.66   18.50
  -7   3   5  460.85   18.10
  -7   3   5  452.65   22.60
  -7   3   5  460.25   16.20
   7   3  -5  425.86   18.30
   5  -3  -5 1313.67   41.60
   5  -3  -5 1371.06   44.40
  -5  -3   5 1354.46   45.80
  -5  -3   5 1374.06   45.20
  -5  -3   5 1263.77   46.30
  -5  -3   5 1353.46   44.80
  -5   3   5 1320.77   49.50
   5   3  -5 1364.36   43.50
   5   3  -5 1323.07   45.10
   5   3  -5 1257.67   45.50
  -5   3   5 1359.56   41.40
  -5   3   5 1290.67   44.60
  -3  -3   5  195.58   10.20
  -3  -3   5  203.68   11.20
  -3  -3   5  206.28   11.60
  -3  -3   5  199.88   11.10
  -3   3   5  209.78   13.20
   3   3  -5  209.28    8.20
   3   3  -5  196.08   12.20
  -3   3   5  207.18   10.60
  -3   3   5  208.18   10.10
   3   3  -5  221.78   11.30
   1  -3  -5   80.19    3.60
  -1  -3   5   75.89    6.80
  -1  -3   5   76.19    6.70
  -1  -3   5   89.19    6.40
  -1   3   5   74.09    5.20
  -1   3   5   72.89    6.10
   1   3  -5   84.39    4.50
   1   3  -5   85.89    8.20
   1   3  -5   84.29    6.60
   1   3  -5   91.79    7.20
   1  -3   5  272.37   14.60
  -1  -3  -5  274.17   12.50
  -1  -3  -5  280.17   10.90
   1  -3   5  262.67   13.40
   1  -3   5  276.67   14.60
  -1   3  -5  275.37   14.00
   1   3   5  286.67   11.00
   1   3   5  280.97   12.20
  -1   3  -5  271.37   11.10
  -1   3  -5  299.07   15.20
   1   3   5  283.77   14.50
  -1   3  -5  274.27   16.70
   3  -3   5  115.09    9.80
  -3  -3  -5  151.88    7.90
   3  -3   5  128.59   10.10
   3  -3   5  138.29    9.40
   3  -3   5  142.89    8.70
  -3  -3  -5  138.69    8.70
  -3   3  -5  134.69   12.80
   3   3   5  133.59   10.00
  -3   3  -5  133.29    7.90
   3   3   5  143.99    9.90
  -3   3  -5  138.39   10.00
   3   3   5  131.29    8.30
   3   3   5  129.49    7.40
   5  -3   5   46.60    6.80
   5  -3   5   42.80    7.90
  -5  -3  -5   50.39    6.40
  -5  -3  -5   46.60    5.80
   5  -3   5   49.99    8.10
   5  -3   5   60.09    6.90
  -5   3  -5   55.49    7.60
   5   3   5   49.90    7.60
  -5   3  -5   53.59   10.90
  -5   3  -5   61.89    6.20
   5   3   5   43.20    5.10
   5   3   5   47.40    5.20
   7  -3   5   22.90    5.50
  -7  -3  -5   21.60    5.60
   7  -3   5   28.80    6.70
   7  -3   5   27.30    6.50
   7   3   5   20.10    4.20
   7   3   5   20.50    7.00
  -7   3  -5   18.60    4.80
   7   3   5   21.80    4.50
   9  -3   5    8.80    4.80
   9  -3   5    9.30    5.00
   9  -3   5    9.70    7.90
  -9  -3  -5    5.20    5.90
   9   3   5    6.80    3.50
   9   3   5   -0.50    3.30
  -9   3  -5    3.80    4.90
  11  -3   5   19.90    7.30
  11  -3   5    0.80    5.50
  11   3   5   13.70    5.60
 -11   3  -5    6.20    6.10
  11   3   5   10.70    5.10
  13  -3   5   13.40    7.80
  13  -3   5    8.30    8.30
  13   3   5   17.10    7.10
  13   3   5   22.60    7.00
  13   3   5    5.90    8.30
 -13   3  -5   16.40    8.50
  20  -4  -5  271.67   22.30
 -20  -4   5  315.77   22.20
 -20   4   5  297.07   25.90
  20   4  -5  281.27   19.40
  20   4  -5  317.37   22.90
 -18  -4   5  474.45   26.80
  18  -4  -5  489.95   26.60
  18  -4  -5  502.85   27.80
  18   4  -5  509.15   27.70
  18   4  -5  487.25   24.60
 -18   4   5  474.95   30.40
 -16  -4   5  663.53   30.90
  16  -4  -5  625.94   30.60
 -16  -4   5  673.33   33.00
  16  -4  -5  658.03   29.90
  16   4  -5  632.44   28.30
 -16   4   5  646.74   28.60
 -16   4   5  666.13   35.80
  16   4  -5  662.03   31.30
  14  -4  -5  914.11   37.60
 -14  -4   5  924.61   37.60
  14  -4  -5  924.41   36.50
 -14  -4   5  891.51   37.80
 -14  -4   5  925.81   36.30
  14   4  -5  874.81   35.40
 -14   4   5  888.81   42.60
  14   4  -5  967.10   38.80
  14   4  -5  970.00   46.90
 -14   4   5  943.51   35.50
  12  -4  -5  954.30   42.50
  12  -4  -5 1041.60   37.40
  12  -4  -5  945.31   36.70
 -12  -4   5  949.90   37.90
 -12  -4   5  958.60   37.10
  12   4  -5  903.21   35.70
 -12   4   5  962.30   35.80
  12   4  -5 1000.50   40.20
  12   4  -5  981.90   38.40
 -12   4   5  983.00   35.60
 -12   4   5  871.31   34.50
 -12   4   5  922.91   42.70
  10  -4  -5 1243.48   48.50
 -10  -4   5 1217.18   41.30
 -10  -4   5 1198.88   44.10
  10  -4  -5 1234.18   43.20
  10  -4  -5 1158.68   42.20
  10   4  -5 1136.99   43.80
 -10   4   5 1155.08   41.40
  10   4  -5 1157.68   42.60
 -10   4   5 1182.78   42.10
 -10   4   5 1193.98   49.20
  10   4  -5 1221.38   44.70
 -10   4   5 1197.88   40.80
   8  -4  -5 1380.56   47.60
  -8  -4   5 1477.55   48.50
  -8  -4   5 1432.66   50.69
   8  -4  -5 1469.85   54.49
   8  -4  -5 1497.75   49.90
  -8  -4   5 1446.66   50.59
   8   4  -5 1431.86   50.49
  -8   4   5 1387.96   55.59
  -8   4   5 1434.26   46.90
   8   4  -5 1380.26   49.90
   8   4  -5 1463.05   49.99
  -8   4   5 1402.26   49.20
  -8   4   5 1397.16   47.60
  -6  -4   5  572.24   23.40
   6  -4  -5  570.34   21.00
   6  -4  -5  571.44   23.40
  -6  -4   5  623.04   24.90
  -6  -4   5  588.04   24.50
   6  -4  -5  640.74   27.20
  -6   4   5  596.14   21.70
   6   4  -5  600.74   22.80
  -6   4   5  581.44   20.60
  -6   4   5  574.14   28.40
   6   4  -5  605.64   24.70
   6   4  -5  568.74   24.30
  -6   4   5  567.74   23.90
   4  -4  -5 1209.38   44.40
   4  -4  -5 1248.68   41.00
  -4  -4   5 1369.76   46.40
  -4  -4   5 1284.37   45.60
  -4  -4   5 1294.67   44.50
  -4  -4   5 1234.58   45.60
   4  -4  -5 1293.07   41.10
   4   4  -5 1285.67   45.90
   4   4  -5 1295.27   47.10
  -4   4   5 1290.07   45.20
   4   4  -5 1342.97   42.70
  -4   4   5 1351.86   50.49
   2  -4  -5 2312.17   83.29
  -2  -4   5 2857.71   90.19
  -2  -4   5 2859.51   90.09
   2  -4  -5 2743.83   83.59
  -2  -4   5 2718.53   88.09
  -2  -4   5 2689.23   88.99
  -2   4   5 2767.42   92.59
  -2   4   5 2702.83   88.79
   2   4  -5 2863.21   92.09
   2   4  -5 2757.82   86.59
  -2   4   5 2836.62   85.49
   2   4  -5 2811.52   90.19
   0  -4  -5  825.72   25.80
   0  -4   5  745.93   29.40
   0  -4   5  761.42   30.30
   0  -4   5  729.63   30.50
   0   4  -5  801.12   31.60
   0   4   5  724.63   25.80
   0   4  -5  789.12   33.50
   0   4   5  714.33   29.80
   0   4  -5  765.22   30.20
   0   4  -5  811.32   27.80
  -2  -4  -5  690.93   24.10
   2  -4   5  641.74   27.10
   2  -4   5  629.74   27.90
   2  -4   5  693.23   29.20
  -2  -4  -5  680.93   24.20
  -2   4  -5  704.13   29.70
   2   4   5  667.93   23.90
   2   4   5  629.24   27.80
  -2   4  -5  693.83   28.00
  -2   4  -5  682.43   25.40
   2   4   5  681.33   23.80
  -2   4  -5  666.73   31.90
  -4  -4  -5 1798.72   57.09
   4  -4   5 1618.94   59.89
  -4  -4  -5 1696.13   56.69
   4  -4   5 1668.13   61.89
   4  -4   5 1806.12   58.99
   4  -4   5 1757.42   62.29
   4   4   5 1720.03   56.69
   4   4   5 1761.92   55.59
   4   4   5 1727.03   61.59
  -4   4  -5 1757.02   60.79
  -4   4  -5 1589.24   65.69
  -4   4  -5 1712.53   58.19
   4   4   5 1791.12   61.09
   6  -4   5  678.63   31.40
  -6  -4  -5  642.34   26.70
   6  -4   5  750.62   29.80
   6  -4   5  654.03   29.70
  -6  -4  -5  703.63   27.30
   6   4   5  659.23   30.60
   6   4   5  711.83   27.10
  -6   4  -5  659.83   28.10
   6   4   5  702.73   31.10
   6   4   5  676.53   25.30
  -8  -4  -5  330.67   17.60
   8  -4   5  320.07   19.40
   8  -4   5  332.27   20.30
   8  -4   5  341.67   20.50
  -8   4  -5  314.77   18.40
   8   4   5  339.17   15.60
   8   4   5  323.37   20.20
   8   4   5  330.17   17.10
 -10  -4  -5  405.26   22.50
  10  -4   5  448.56   25.10
  10  -4   5  416.16   26.60
  10  -4   5  424.06   24.60
  10   4   5  453.25   22.40
  10   4   5  420.26   25.20
 -10   4  -5  387.56   22.70
  10   4   5  465.75   20.50
  12  -4   5  191.58   17.10
  12  -4   5  154.78   16.80
 -12   4  -5  166.08   16.40
  12   4   5  177.38   18.30
  12   4   5  227.38   14.40
  12   4   5  176.18   15.10
  19  -5  -5  311.67   24.00
  19   5  -5  355.56   21.30
  19   5  -5  351.76   23.10
 -19   5   5  285.27   25.40
  17  -5  -5  289.07   22.70
  17  -5  -5  294.47   20.70
  17   5  -5  292.57   18.60
  17   5  -5  318.17   21.10
 -17   5   5  310.27   25.40
 -15  -5   5  807.32   33.20
  15  -5  -5  786.92   35.60
  15  -5  -5  805.12   35.20
 -15   5   5  813.62   33.70
  15   5  -5  853.31   36.80
 -15   5   5  816.72   33.20
  15   5  -5  817.62   34.20
 -15   5   5  782.32   41.20
 -13  -5   5 1174.78   43.50
 -13  -5   5 1118.59   45.50
  13  -5  -5 1247.98   45.60
  13  -5  -5 1149.08   44.60
 -13   5   5 1165.08   42.10
  13   5  -5 1162.88   47.80
 -13   5   5 1096.29   42.50
 -13   5   5 1145.19   51.99
  13   5  -5 1090.69   43.50
 -13   5   5 1187.08   43.50
  13   5  -5 1105.99   45.10
  11  -5  -5 1100.69   41.60
 -11  -5   5 1061.39   39.50
  11  -5  -5 1099.09   46.60
 -11  -5   5 1032.20   41.70
  11  -5  -5 1042.00   40.40
 -11   5   5 1137.39   39.00
 -11   5   5 1061.99   39.00
  11   5  -5 1050.19   41.10
  11   5  -5 1104.09   42.30
  11   5  -5 1120.59   43.30
 -11   5   5 1056.19   47.70
 -11   5   5 1071.79   40.50
  -9  -5   5 1461.45   49.30
   9  -5  -5 1471.85   55.39
   9  -5  -5 1365.36   48.60
  -9  -5   5 1342.37   50.99
  -9  -5   5 1398.26   50.29
   9  -5  -5 1393.76   50.79
   9   5  -5 1446.16   51.49
  -9   5   5 1414.36   47.40
   9   5  -5 1481.25   51.39
  -9   5   5 1362.66   50.09
  -9   5   5 1395.26   47.50
   9   5  -5 1346.37   51.19
  -9   5   5 1361.26   57.39
   7  -5  -5 1706.53   57.19
  -7  -5   5 1735.63   59.39
  -7  -5   5 1764.62   60.99
   7  -5  -5 1784.22   60.39
   7  -5  -5 1762.12   63.59
  -7  -5   5 1700.53   59.69
  -7   5   5 1684.13   60.19
   7   5  -5 1704.33   61.39
   7   5  -5 1826.32   59.69
  -7   5   5 1711.03   56.29
  -7   5   5 1749.72   67.39
  -7   5   5 1855.31   56.69
   7   5  -5 1628.74   60.29
   5  -5  -5 1594.04   54.89
  -5  -5   5 1524.35   53.69
  -5  -5   5 1567.74   55.59
   5  -5  -5 1504.95   50.79
  -5  -5   5 1552.54   54.19
  -5  -5   5 1692.13   55.79
  -5   5   5 1542.55   55.09
   5   5  -5 1481.75   55.69
   5   5  -5 1660.53   52.99
  -5   5   5 1553.34   60.69
  -5   5   5 1571.14   50.19
   3  -5  -5 1990.10   61.39
   3  -5  -5 1960.20   65.99
  -3  -5   5 1920.61   66.89
  -3  -5   5 1957.60   67.19
  -3  -5   5 1931.11   65.49
  -3  -5   5 1929.21   65.09
  -3   5   5 1942.61   71.29
  -3   5   5 1900.71   66.19
  -3   5   5 1944.31   60.29
  -3   5   5 1949.80   61.69
   3   5  -5 1856.91   67.19
   3   5  -5 1930.41   64.29
   3   5  -5 1984.70   68.19
  -1  -5   5 1777.92   60.19
   1  -5  -5 1783.02   55.89
  -1  -5   5 1782.32   62.29
  -1  -5   5 1713.83   60.29
  -1  -5   5 1833.02   62.49
  -1   5   5 1776.02   54.49
   1   5  -5 1681.33   59.29
   1   5  -5 1709.53   63.69
  -1   5   5 1771.62   61.19
   1   5  -5 1828.92   61.19
   1   5  -5 1672.03   62.29
   1  -5   5  961.70   37.00
   1  -5   5  983.10   39.10
  -1  -5  -5  988.30   33.30
   1  -5   5  930.41   37.30
  -1   5  -5 1002.10   39.70
  -1   5  -5  991.30   36.20
  -1   5  -5  980.80   41.70
   1   5   5  950.30   30.50
   1   5   5  962.50   38.10
  -1   5  -5  988.30   37.80
   3  -5   5  738.63   32.00
   3  -5   5  780.42   34.40
  -3  -5  -5  823.62   29.30
   3  -5   5  768.12   33.10
   3   5   5  785.32   25.90
  -3   5  -5  823.72   31.60
   3   5   5  860.91   29.20
  -3   5  -5  781.62   37.40
   3   5   5  766.02   33.30
  -3   5  -5  809.92   33.20
  -3   5  -5  817.32   35.20
   5  -5   5  636.54   28.70
  -5  -5  -5  618.04   23.30
  -5  -5  -5  650.93   25.50
   5  -5   5  631.94   29.80
   5  -5   5  620.54   26.90
   5   5   5  644.84   29.80
   5   5   5  626.44   25.00
   5   5   5  630.44   22.00
  -5   5  -5  610.64   27.00
   5   5   5  615.34   29.70
   7  -5   5  368.46   21.30
  -7  -5  -5  328.77   16.30
   7  -5   5  352.16   20.70
   7  -5   5  392.26   21.50
  -7   5  -5  346.77   19.70
   7   5   5  351.86   17.80
   7   5   5  404.26   22.70
   7   5   5  368.76   15.20
  -9  -5  -5  355.06   18.80
   9  -5   5  373.66   23.80
   9  -5   5  385.76   22.80
   9  -5   5  378.46   22.90
   9   5   5  398.86   17.40
   9   5   5  383.26   19.80
   9   5   5  392.36   24.20
  -9   5  -5  337.47   21.20
  11  -5   5  368.16   23.60
  11  -5   5  362.66   24.00
  11   5   5  354.76   25.00
 -11   5  -5  325.57   22.70
  11   5   5  380.26   21.20
  11   5   5  383.36   18.80
  18  -6  -5   22.60    9.00
  18   6  -5   23.70    8.10
 -18   6   5   18.20   12.00
  18   6  -5   25.20    9.00
  16  -6  -5   64.29   11.50
 -16   6   5   65.39    9.80
  16   6  -5   72.19   11.10
 -16   6   5   74.49   15.10
 -16   6   5   62.29    9.60
  16   6  -5   84.09   12.00
  14  -6  -5   85.29   11.90
 -14  -6   5   74.59    9.10
  14  -6  -5   77.39   11.30
 -14   6   5   72.59    9.10
  14   6  -5   54.29    9.20
 -14   6   5   76.09    9.20
  14   6  -5   74.49   10.60
 -14   6   5   77.29   14.90
  12  -6  -5   42.30    7.30
  12  -6  -5   35.30    8.30
 -12  -6   5   32.80    6.50
 -12   6   5   50.79    7.00
 -12   6   5   30.70    6.00
  12   6  -5   27.50   10.20
 -12   6   5   35.90    6.90
  12   6  -5   27.20    6.80
 -12   6   5   27.20    9.00
  12   6  -5   28.90    6.70
 -10  -6   5   34.00    7.40
  10  -6  -5   36.50    6.50
 -10  -6   5   30.30    5.90
  10  -6  -5   43.20    7.70
 -10  -6   5   30.00    5.70
 -10   6   5   30.30    5.00
  10   6  -5   39.50    7.70
 -10   6   5   36.30    5.30
  10   6  -5   17.10    6.00
 -10   6   5   30.10    6.30
  10   6  -5   24.30    5.60
 -10   6   5   11.10    7.10
   8  -6  -5   76.39    7.20
  -8  -6   5   76.59    7.40
   8  -6  -5   83.39    9.70
  -8  -6   5   84.99    9.70
  -8  -6   5   79.59    8.30
  -8   6   5   82.19    6.40
  -8   6   5   67.09   11.70
  -8   6   5   73.19    6.40
   8   6  -5   91.79    9.30
   8   6  -5   74.69    8.70
  -8   6   5   73.69    8.50
   8   6  -5   77.49    9.30
  -6  -6   5   20.70    4.50
  -6  -6   5   21.30    5.40
   6  -6  -5   22.00    5.60
   6  -6  -5   21.10    3.90
  -6  -6   5   19.80    4.40
  -6  -6   5   26.20    6.30
   6   6  -5   30.10    5.80
  -6   6   5   33.70    8.10
  -6   6   5   16.10    3.30
   6   6  -5   21.90    5.80
  -6   6   5   21.30    5.30
  -6   6   5   24.00    3.30
  -4  -6   5   11.10    3.60
   4  -6  -5   21.80    5.60
  -4  -6   5   11.80    5.00
   4  -6  -5   11.60    3.10
  -4  -6   5    7.90    4.60
  -4  -6   5   12.60    3.70
   4  -6  -5   18.10    3.30
  -4   6   5   10.00    4.00
  -4   6   5   11.70    2.10
   4   6  -5   12.80    5.20
   4   6  -5   12.70    4.90
  -4   6   5   16.70    6.30
   2  -6  -5    8.50    4.80
   2  -6  -5    6.40    2.20
  -2  -6   5    8.40    3.60
  -2  -6   5    3.40    4.40
  -2  -6   5   -0.10    4.50
  -2  -6   5    1.80    2.40
   2  -6  -5    7.30    2.70
   2   6  -5   14.50    4.70
  -2   6   5   10.00    4.10
  -2   6   5   10.80    5.30
   2   6  -5    6.90    4.30
   2   6  -5    9.60    5.00
   0  -6  -5   14.50    2.90
   0  -6  -5   10.00    3.10
   0  -6   5   10.10    3.60
   0  -6   5    9.10    5.80
   0  -6   5   18.70    4.50
   0   6  -5    5.40    4.20
   0   6  -5   13.60    4.90
   0   6  -5    7.40    4.30
   0   6   5    8.00    4.60
   0   6  -5   11.90    5.90
   2  -6   5   95.29    9.20
  -2  -6  -5   99.09    7.90
   2  -6   5  104.89    9.30
  -2   6  -5  116.69   10.60
  -2   6  -5  104.39   11.30
  -2   6  -5  110.49   13.30
   2   6   5  103.69   10.40
   4  -6   5   81.59    9.00
  -4  -6  -5   79.29    8.40
   4  -6   5   78.89    9.40
  -4   6  -5   81.09   10.50
   4   6   5   83.29    7.40
  -4   6  -5  101.09   12.00
   4   6   5   79.09    9.50
   6  -6   5   74.19    9.90
   6  -6   5   69.09   10.20
   6  -6   5   66.19    9.20
  -6   6  -5   71.79   10.30
   6   6   5   58.19    9.80
   6   6   5   72.49    7.60
  -8  -6  -5    4.20    3.80
   8  -6   5   23.80    8.90
   8  -6   5    1.40    4.60
   8  -6   5   -2.20    5.10
  -8   6  -5   14.20    6.70
   8   6   5    5.50    6.20
   8   6   5    2.00    3.90
  10  -6   5   14.30    8.00
  10  -6   5    5.20    6.10
  10   6   5   11.00    7.70
 -10   6  -5   19.30    8.90
  10   6   5   19.50    6.50
  17  -7  -5  193.68   19.00
  17   7  -5  206.38   17.50
 -17   7   5  180.08   21.40
 -17   7   5  203.48   17.00
  17   7  -5  178.58   16.90
  15  -7  -5  534.45   29.20
 -15  -7   5  520.75   25.70
 -15  -7   5  501.65   24.30
  15   7  -5  521.45   28.20
  15   7  -5  552.94   28.70
 -15   7   5  504.05   35.30
 -15   7   5  497.45   25.50
 -15   7   5  535.65   27.50
 -13  -7   5  675.73   29.60
 -13  -7   5  679.33   29.40
  13  -7  -5  676.93   32.00
 -13   7   5  704.43   32.40
  13   7  -5  707.33   32.80
 -13   7   5  625.84   38.40
  13   7  -5  675.33   32.50
 -13   7   5  675.13   29.20
  11  -7  -5  840.52   37.10
 -11  -7   5  805.32   34.50
  11  -7  -5  768.22   34.40
 -11  -7   5  798.72   32.90
 -11   7   5  831.02   44.40
 -11   7   5  797.12   32.10
 -11   7   5  806.52   32.40
 -11   7   5  834.52   35.90
  11   7  -5  856.91   36.40
  11   7  -5  828.22   37.00
  -9  -7   5 1215.58   46.90
  -9  -7   5 1206.98   44.90
   9  -7  -5 1290.87   49.10
   9  -7  -5 1126.49   45.10
  -9   7   5 1247.18   43.90
   9   7  -5 1354.36   49.40
   9   7  -5 1264.77   48.60
  -9   7   5 1152.68   54.89
  -9   7   5 1257.47   48.80
  -9   7   5 1168.08   43.00
   9   7  -5 1227.38   49.40
  -7  -7   5  382.76   22.00
  -7  -7   5  386.06   18.80
   7  -7  -5  399.06   22.30
   7  -7  -5  392.06   18.70
  -7  -7   5  374.96   19.70
  -7  -7   5  359.76   20.80
  -7   7   5  399.36   22.20
  -7   7   5  424.96   27.50
  -7   7   5  390.86   17.80
   7   7  -5  396.76   23.10
  -7   7   5  408.86   16.80
   7   7  -5  436.86   21.70
  -5  -7   5  734.73   32.70
  -5  -7   5  724.03   29.10
  -5  -7   5  703.63   31.80
   5  -7  -5  719.23   28.00
   5  -7  -5  763.12   32.70
   5  -7  -5  715.83   27.60
  -5  -7   5  710.33   30.00
  -5   7   5  725.03   32.50
   5   7  -5  746.13   33.90
  -5   7   5  704.93   25.20
  -5   7   5  636.24   36.40
  -3  -7   5 1744.63   63.79
   3  -7  -5 1732.63   57.29
   3  -7  -5 1759.12   63.59
  -3  -7   5 1739.03   63.59
  -3  -7   5 1757.42   61.19
   3  -7  -5 1750.22   57.89
  -3  -7   5 1697.43   59.89
   3   7  -5 1780.22   65.59
   3   7  -5 1698.03   62.19
  -3   7   5 1648.44   68.49
  -3   7   5 1716.13   63.49
   3   7  -5 1740.43   63.89
   1  -7  -5  926.11   38.50
  -1  -7   5  858.81   37.80
  -1  -7   5  891.71   36.10
   1  -7  -5  899.81   32.80
   1  -7  -5  920.11   32.10
  -1  -7   5  909.11   39.00
  -1  -7   5  859.81   35.10
  -1   7   5  899.81   38.40
   1   7  -5  878.51   37.40
  -1   7   5  853.01   41.10
   1   7  -5  913.71   39.80
   1   7  -5  918.31   39.70
  -1  -7  -5  628.04   23.70
  -1  -7  -5  652.53   25.20
   1  -7   5  635.34   28.30
   1  -7   5  627.94   27.80
  -1   7  -5  571.64   30.80
  -1   7  -5  632.24   29.50
   1   7   5  586.54   29.10
   3  -7   5  571.24   27.70
   3  -7   5  572.04   27.20
  -3  -7  -5  628.04   25.20
  -3   7  -5  515.25   29.50
   3   7   5  572.14   28.90
  -3   7  -5  588.64   28.50
   5  -7   5  421.36   23.00
   5  -7   5  411.46   22.80
  -5   7  -5  402.36   23.30
   5   7   5  406.06   19.30
   5   7   5  366.86   23.40
  -5   7  -5  384.86   25.40
   7  -7   5  219.58   16.80
   7  -7   5  213.98   17.70
  -7   7  -5  199.88   17.50
   7   7   5  233.78   14.70
   7   7   5  257.47   19.70
   9  -7   5  206.78   18.50
   9  -7   5  183.28   16.20
   9   7   5  201.38   14.80
   9   7   5  206.48   18.10
  -9   7  -5  165.18   17.70
  16  -8  -5  664.13   35.90
 -16  -8   5  631.34   29.70
  16   8  -5  630.04   34.00
 -16   8   5  645.84   33.70
  16   8  -5  674.03   34.60
 -16   8   5  656.83   43.20
  14  -8  -5  937.11   41.90
 -14  -8   5  929.31   37.10
 -14  -8   5  920.81   36.30
 -14   8   5  890.61   38.10
  14   8  -5  925.81   42.50
  14   8  -5  902.81   41.20
 -14   8   5  891.01   40.80
 -14   8   5  830.22   48.80
  12  -8  -5  643.74   31.40
 -12  -8   5  637.44   28.00
  12   8  -5  718.23   33.10
 -12   8   5  582.34   38.30
 -12   8   5  631.44   28.70
 -12   8   5  655.33   32.20
  12   8  -5  673.53   33.80
 -10  -8   5  798.42   34.80
 -10  -8   5  857.31   33.00
  10  -8  -5  812.32   35.20
  10   8  -5  856.71   37.60
 -10   8   5  790.82   32.60
 -10   8   5  746.23   43.60
 -10   8   5  861.61   38.00
  10   8  -5  814.82   38.40
 -10   8   5  822.82   32.90
  -8  -8   5 1840.82   63.49
   8  -8  -5 1830.12   64.99
  -8  -8   5 1791.92   65.89
  -8   8   5 1867.21   62.19
  -8   8   5 1877.61   69.39
   8   8  -5 1940.61   68.89
   8   8  -5 1829.52   70.59
  -8   8   5 1852.51   63.39
  -8   8   5 1860.01   77.79
  -6  -8   5 1984.80   68.09
  -6  -8   5 1899.71   65.59
   6  -8  -5 1874.31   65.49
  -6   8   5 1865.51   70.99
   6   8  -5 2056.19   69.89
   6   8  -5 1853.41   72.19
  -6   8   5 1892.61   78.59
  -6   8   5 1952.40   62.19
  -4  -8   5 1190.08   46.80
   4  -8  -5 1247.18   44.10
  -4  -8   5 1263.07   45.60
   4  -8  -5 1209.38   44.60
  -4   8   5 1203.68   50.49
   4   8  -5 1330.67   49.99
   4   8  -5 1208.88   51.39
  -4   8   5 1193.48   55.79
  -4   8   5 1295.27   39.60
   2  -8  -5  833.82   33.50
   2  -8  -5  879.71   32.70
  -2  -8   5  930.31   37.00
  -2  -8   5  855.31   34.80
   2   8  -5  874.01   40.40
   2   8  -5  872.31   39.10
  -2   8   5  879.01   39.10
  -2   8   5  932.41   44.70
   2   8  -5  863.01   38.50
   0  -8   5  930.41   38.10
   0  -8   5  900.91   36.80
   0  -8  -5  904.41   33.40
   0  -8  -5  920.11   37.60
   0   8   5  876.61   43.50
   0   8  -5  923.21   42.60
   0   8   5  930.91   41.20
   0   8  -5  921.31   40.60
  -2  -8  -5 1134.89   39.60
   2  -8   5 1102.29   44.50
   2  -8   5 1128.19   44.70
  -2   8  -5 1090.89   47.00
  -2   8  -5 1094.19   49.30
   2   8   5 1080.69   47.20
   4  -8   5 1188.48   47.20
   4  -8   5 1151.58   47.30
  -4  -8  -5 1181.48   42.10
   4   8   5 1125.79   49.10
  -4   8  -5 1126.59   48.80
  -4   8  -5 1192.38   52.29
   6  -8   5  690.23   33.60
   6  -8   5  645.84   32.10
  -6   8  -5  654.63   36.80
  -6   8  -5  662.83   34.30
   6   8   5  690.03   35.50
   6   8   5  698.23   29.40
   8  -8   5  265.37   19.40
   8  -8   5  262.07   20.60
  -8   8  -5  262.67   22.50
   8   8   5  271.97   17.20
   8   8   5  247.08   20.90
  15  -9  -5   14.70   10.70
 -15  -9   5   40.80    7.80
  15   9  -5   24.50    9.40
 -15   9   5   35.40   10.80
 -15   9   5   11.30   12.00
  15   9  -5   41.00   10.90
 -13  -9   5   43.30    7.20
  13  -9  -5   25.50    9.20
 -13  -9   5   40.30    8.00
  13   9  -5   42.00   10.40
 -13   9   5   28.40    9.30
 -13   9   5   15.10   10.40
  13   9  -5   38.90   10.80
 -13   9   5   38.70   10.20
 -11  -9   5   80.39    8.50
  11  -9  -5   74.49   11.30
 -11  -9   5   76.39   11.10
 -11   9   5   66.89   11.70
  11   9  -5   86.49   14.00
 -11   9   5   66.29   15.40
 -11   9   5   95.99   11.20
   9  -9  -5  204.48   15.30
  -9  -9   5  195.68   14.70
  -9  -9   5  176.88   11.90
  -9   9   5  161.08   20.50
  -9   9   5  169.18   13.60
   9   9  -5  192.48   18.10
  -9   9   5  194.08   12.40
  -9   9   5  190.08   17.10
  -7  -9   5  221.48   13.20
  -7  -9   5  231.38   15.70
   7  -9  -5  220.18   14.90
   7   9  -5  233.88   19.50
  -7   9   5  225.38   12.00
  -7   9   5  217.38   18.20
  -7   9   5  227.88   23.50
   5  -9  -5   22.90    5.90
  -5  -9   5   30.20    5.70
  -5  -9   5   33.60    7.20
   5   9  -5   21.40    7.80
   5   9  -5   39.60    9.90
  -5   9   5   30.40    3.90
  -5   9   5   30.70    8.30
  -5   9   5   25.00    9.90
   3  -9  -5  130.49   10.10
  -3  -9   5  128.39   10.40
  -3  -9   5  140.09   12.30
  -3   9   5  134.59   19.50
   3   9  -5  130.59   14.90
   3   9  -5  112.99   14.30
   3   9  -5  143.99   15.90
  -3   9   5  131.89   14.80
  -1  -9   5  244.68   15.10
   1  -9  -5  226.48   13.30
  -1  -9   5  231.48   16.00
  -1   9   5  236.28   19.10
  -1   9   5  219.58   20.60
   1   9  -5  233.08   20.10
   1   9  -5  206.48   18.40
   1  -9   5   29.90    7.10
  -1  -9  -5   29.70    5.80
   1  -9   5   27.10    6.40
  -1   9  -5   33.50    9.70
   1   9   5   15.10    8.70
  -1   9  -5   16.20    8.40
   1   9   5   26.80    8.30
   3  -9   5   74.39    9.80
  -3  -9  -5   65.79    8.20
   3  -9   5   55.49    9.80
  -3   9  -5   73.09   12.50
   3   9   5   51.79   10.80
  -3   9  -5   85.99   15.10
   5  -9   5   62.79   10.30
  -5  -9  -5   45.20    7.70
   5  -9   5   68.29   11.40
  -5   9  -5   34.80   11.90
  -5   9  -5   45.70   11.70
   5   9   5   71.19   12.50
   7  -9   5    9.40    6.20
   7  -9   5    8.60    8.00
  -7   9  -5    6.00   10.70
   7   9   5  -14.60   11.60
  12 -10  -5  222.48   18.80
 -12 -10   5  219.18   17.90
 -12 -10   5  216.68   13.40
  12  10  -5  206.78   21.20
 -12  10   5  154.68   23.70
 -12  10   5  233.38   21.40
  10 -10  -5  443.26   25.40
 -10 -10   5  441.26   20.70
 -10 -10   5  480.35   25.60
 -10  10   5  444.56   35.60
 -10  10   5  467.95   28.90
 -10  10   5  431.96   22.20
  10  10  -5  433.86   29.10
 -10  10   5  465.95   24.90
  -8 -10   5  328.67   17.20
  -8 -10   5  362.46   21.30
   8 -10  -5  381.26   21.20
  -8  10   5  352.86   24.40
  -8  10   5  329.37   29.90
   8  10  -5  341.97   25.60
  -8  10   5  327.07   17.10
  -6 -10   5  408.96   23.10
  -6 -10   5  412.06   20.10
   6 -10  -5  463.15   22.80
   6  10  -5  427.96   26.80
  -6  10   5  380.26   26.50
  -6  10   5  461.25   33.50
  -6  10   5  437.06   17.60
   6  10  -5  429.06   28.10
  -4 -10   5  436.66   24.10
   4 -10  -5  479.85   22.60
  -4 -10   5  447.96   21.90
   4  10  -5  463.65   29.00
  -4  10   5  458.75   28.70
   4  10  -5  479.85   29.60
  -4  10   5  436.46   33.20
  -2 -10   5  292.67   17.20
   2 -10  -5  290.77   16.80
  -2 -10   5  293.17   19.20
   2  10  -5  289.47   23.20
  -2  10   5  352.66   27.60
  -2  10   5  278.47   22.70
   2  10  -5  271.67   23.30
   0 -10  -5  212.88   13.90
   0 -10   5  201.18   15.10
   0 -10   5  200.68   15.90
   0  10  -5  239.28   21.50
   0  10  -5  211.88   21.00
   0  10   5  208.98   19.60
   0  10   5  220.58   21.90
   2 -10   5  251.07   17.40
   2 -10   5  284.27   19.30
  -2 -10  -5  246.28   15.60
   2  10   5  274.77   22.90
  -2  10  -5  276.97   23.50
   2  10   5  285.77   25.70
  -2  10  -5  318.87   24.80
   4 -10   5  299.17   21.20
  -4 -10  -5  313.37   18.00
   4 -10   5  291.27   19.30
  -4  10  -5  283.07   25.40
  -4  10  -5  269.77   24.10
   4  10   5  288.97   24.50
  -9 -11   5 1116.19   41.30
  -9 -11   5 1067.99   47.40
   9 -11  -5 1184.58   48.10
  -9  11   5 1159.78   52.69
  -9  11   5 1090.29   60.99
   9  11  -5 1204.18   55.29
   7 -11  -5 1517.45   56.69
  -7 -11   5 1509.95   58.79
  -7 -11   5 1466.85   52.49
   7  11  -5 1483.55   64.59
  -7  11   5 1419.66   72.09
   7  11  -5 1472.55   63.09
  -7  11   5 1500.75   63.59
   5 -11  -5 1379.16   51.99
  -5 -11   5 1303.07   49.50
  -5 -11   5 1353.66   54.79
   5  11  -5 1299.77   59.89
   5  11  -5 1496.75   62.89
  -5  11   5 1437.96   61.29
  -5  11   5 1337.57   67.69
  -3 -11   5 1056.39   41.90
   3 -11  -5 1099.29   42.10
  -3 -11   5 1101.29   45.90
   3  11  -5  990.70   50.39
   3  11  -5 1089.49   52.09
  -3  11   5 1064.19   50.99
  -3  11   5 1019.40   55.99
  -1 -11   5  948.11   39.80
   1 -11  -5  954.40   38.40
  -1 -11   5  911.31   42.30
  -1  11   5  980.40   53.79
  -1  11   5 1008.10   48.90
   1  11  -5  976.00   48.70
   1  11  -5 1002.50   49.99
   1 -11   5  902.01   37.50
   1 -11   5  852.01   40.00
  -1 -11  -5  889.11   35.70
  -1  11  -5  879.91   45.30
   1  11   5  792.52   48.30
  -1  11  -5  820.12   45.40
   1  11   5  836.92   45.20
 -22   0   6  396.36   27.90
  22   0  -6  404.26   22.00
  22   0  -6  410.36   26.30
  20   0  -6  678.13   32.80
  20   0  -6  650.43   28.60
 -20   0   6  616.64   33.80
  18   0  -6 1398.26   54.19
  18   0  -6 1439.56   49.30
 -18   0   6 1329.77   55.79
  16   0  -6 3154.18  108.19
 -16   0   6 3368.26  107.29
  16   0  -6 3367.56  103.19
 -16   0   6 3171.38  110.69
  14   0  -6 2118.19   76.79
 -14   0   6 2044.50   71.59
 -14   0   6 2094.69   74.69
  14   0  -6 2117.79   72.09
  14   0  -6 2139.49   66.89
 -14   0   6 2159.38   71.09
  12   0  -6 2087.19   64.89
  12   0  -6 2042.90   64.59
  12   0  -6 2247.38   74.99
 -12   0   6 2096.89   72.59
 -12   0   6 2127.49   69.39
  12   0  -6 1970.20   69.79
 -12   0   6 2191.68   71.59
 -10   0   6 2254.27   75.89
 -10   0   6 2245.28   73.29
  10   0  -6 2356.86   77.69
  10   0  -6 2288.67   73.99
   8   0  -6 1698.53   57.59
  -8   0   6 1710.93   53.99
   8   0  -6 1628.74   54.39
  -8   0   6 1673.93   56.29
   6   0  -6 3773.22  119.09
  -6   0   6 3891.11  117.49
  -6   0   6 3937.51  120.59
   6   0  -6 3980.70  121.69
  -4   0   6 2912.11   88.29
  -4   0   6 2847.02   88.99
  -4   0   6 2889.21   89.09
  -4   0   6 2881.61   88.09
  -4   0   6 2885.71   92.99
  -2   0   6 2093.39   68.89
  -2   0   6 2041.40   64.99
   2   0  -6 2065.89   69.59
   2   0  -6 2061.69   64.79
  -2   0   6 2137.19   65.09
  -2   0   6 2086.89   64.39
   0   0   6 1369.66   44.90
   0   0  -6 1375.76   45.70
   0   0   6 1437.26   44.50
   0   0   6 1375.26   48.50
   0   0  -6 1412.96   50.09
   2   0   6  825.32   29.40
  -2   0  -6  839.62   34.40
  -2   0  -6  856.61   30.20
   2   0   6  802.92   32.20
   2   0   6  839.92   29.50
  -4   0  -6 3327.77  104.19
   4   0   6 3349.17  107.79
   4   0   6 3267.67  103.99
   4   0   6 3101.09  106.99
  -4   0  -6 3213.98  109.99
   4   0   6 3384.96  104.69
   6   0   6 2300.27   74.39
  -6   0  -6 2036.40   78.99
   6   0   6 2132.59   75.39
   6   0   6 2203.48   72.79
   8   0   6  627.34   27.40
   8   0   6  584.84   28.20
   8   0   6  600.44   29.20
  10   0   6  320.67   19.90
  10   0   6  355.86   21.00
  12   0   6  192.98   16.50
  12   0   6  215.98   17.00
  21  -1  -6   70.59   12.70
  21  -1  -6   68.99   11.70
 -21  -1   6   78.09   12.30
  21   1  -6  105.19   14.30
  21   1  -6   91.99   10.30
  21   1  -6   91.69   12.20
 -21   1   6   44.90   11.70
 -19  -1   6  231.08   17.90
  19  -1  -6  248.38   15.50
  19  -1  -6  203.48   16.20
  19   1  -6  235.58   17.60
  19   1  -6  245.38   14.20
  19   1  -6  256.77   15.20
 -19   1   6  219.28   18.50
  17  -1  -6  183.28   13.60
 -17  -1   6  119.99   12.20
 -17  -1   6  146.69   13.00
  17  -1  -6  137.59    9.80
 -17   1   6  115.09   12.70
  17   1  -6  113.89    8.80
  17   1  -6  135.39    9.40
  15  -1  -6   35.20    9.10
  15  -1  -6   38.00    5.00
 -15  -1   6   28.00    5.90
 -15  -1   6   31.30    6.00
 -15  -1   6   34.50    7.20
 -15   1   6   42.70    8.20
  15   1  -6   32.10    4.60
  15   1  -6   38.50    9.90
  15   1  -6   33.30    6.50
  15   1  -6   36.50    4.40
 -13  -1   6  513.45   22.60
 -13  -1   6  544.65   24.00
 -13  -1   6  523.55   24.40
  13  -1  -6  539.15   19.60
  13  -1  -6  528.85   27.20
  13  -1  -6  522.05   22.90
  13   1  -6  534.55   23.50
 -13   1   6  512.05   25.40
 -13   1   6  525.45   22.00
 -13   1   6  509.35   22.90
  13   1  -6  504.75   26.00
  13   1  -6  551.64   19.20
  13   1  -6  534.45   18.80
  11  -1  -6  700.13   23.60
 -11  -1   6  716.53   27.50
 -11  -1   6  731.23   29.00
  11  -1  -6  766.02   32.30
  11  -1  -6  717.13   27.40
 -11   1   6  722.73   28.70
 -11   1   6  694.63   30.20
  11   1  -6  707.23   23.50
  11   1  -6  725.23   28.30
  11   1  -6  698.23   30.20
 -11   1   6  712.13   26.50
  -9  -1   6  420.36   17.80
   9  -1  -6  446.56   17.50
  -9  -1   6  451.75   18.80
   9  -1  -6  417.46   20.60
  -9   1   6  424.76   20.10
   9   1  -6  457.55   20.20
   9   1  -6  439.26   18.40
  -9   1   6  439.06   16.90
  -7  -1   6  596.54   22.00
  -7  -1   6  587.84   19.40
  -7  -1   6  581.44   22.00
   7  -1  -6  595.64   24.80
   7  -1  -6  620.14   21.10
  -7   1   6  603.64   19.50
  -7   1   6  578.54   24.20
   7   1  -6  591.54   22.30
  -7   1   6  599.54   20.50
   7   1  -6  641.84   23.50
  -5  -1   6  831.62   26.90
  -5  -1   6  834.32   27.80
  -5  -1   6  826.92   28.10
   5  -1  -6  820.42   30.00
  -5  -1   6  770.82   31.40
   5  -1  -6  815.52   26.40
  -5  -1   6  840.42   28.60
  -5   1   6  838.92   27.50
  -5   1   6  820.02   30.50
  -5   1   6  813.62   26.00
  -5   1   6  827.82   31.30
   5   1  -6  866.21   28.20
  -5   1   6  845.02   26.00
  -3  -1   6  703.13   24.20
  -3  -1   6  659.13   23.30
  -3  -1   6  683.33   24.30
  -3  -1   6  661.63   26.70
   3   1  -6  638.34   27.10
  -3   1   6  655.33   26.00
  -3   1   6  685.03   25.40
  -1  -1   6  446.26   19.80
  -1  -1   6  429.46   18.50
  -1  -1   6  461.15   17.10
   1  -1  -6  470.15   19.90
   1  -1  -6  420.06   15.50
   1   1  -6  467.75   17.70
  -1   1   6  436.76   19.00
  -1   1   6  459.05   15.20
   1   1  -6  420.36   20.80
  -1  -1  -6  456.05   17.20
  -1  -1  -6  422.46   20.30
   1  -1   6  486.05   16.70
   1  -1   6  453.65   20.20
   1  -1   6  436.36   20.20
   1  -1   6  432.56   17.80
  -1   1  -6  476.45   22.90
  -1   1  -6  438.76   18.60
   1   1   6  455.45   17.80
   1   1   6  436.76   19.40
   1   1   6  456.45   16.70
  -3  -1  -6  103.49    9.80
   3  -1   6  108.59    7.90
  -3  -1  -6  121.89    7.80
   3  -1   6  121.09    8.10
   3  -1   6  120.29   10.20
   3  -1   6  111.39    9.40
   3   1   6  124.69    7.60
   3   1   6  117.59    9.10
  -3   1  -6  116.29    8.70
  -3   1  -6  117.49   11.90
   3   1   6  132.09    8.80
   5  -1   6   15.70    4.20
  -5  -1  -6   22.50    6.40
   5  -1   6   24.90    6.30
  -5  -1  -6   26.50    5.00
   5  -1   6   28.30   11.20
   5  -1   6   15.80    4.90
   5   1   6   24.60    4.70
  -5   1  -6   20.60    5.20
   5   1   6   24.40    5.60
  -5   1  -6   10.90    7.10
   5   1   6   17.90    4.90
  -7  -1  -6   83.49   12.60
   7  -1   6   90.29   10.00
   7  -1   6  103.59   11.60
   7  -1   6   97.09    9.40
   7   1   6   87.89    9.10
   7   1   6   94.79   11.50
   7   1   6   87.79    8.40
   9  -1   6  106.39   11.30
   9  -1   6   88.89   12.50
   9  -1   6   87.79   10.20
   9   1   6   90.49    9.80
   9   1   6   80.89   13.00
   9   1   6   89.39    9.80
  11  -1   6   59.79   10.00
  11  -1   6   56.89    9.90
  11   1   6   58.19    9.90
  11   1   6   58.69    9.70
  22  -2  -6   61.89   12.60
 -22  -2   6   49.00   11.50
  22   2  -6   50.49   11.90
 -22   2   6   26.80   10.10
  22   2  -6   48.40    9.30
  20  -2  -6   64.29   11.30
 -20  -2   6   64.89   11.30
  20  -2  -6   57.59   10.10
  20   2  -6   52.19    8.30
 -20   2   6   59.89   12.30
  20   2  -6   52.89   10.50
  20   2  -6   71.49   10.10
  18  -2  -6  144.09   13.60
 -18  -2   6  162.08   14.70
  18  -2  -6  155.28   12.10
 -18   2   6  154.88   15.40
 -18   2   6  148.79   13.10
  18   2  -6  153.78   13.70
  18   2  -6  170.28   11.40
 -16  -2   6  271.77   17.20
  16  -2  -6  302.17   17.50
  16  -2  -6  286.17   14.80
 -16  -2   6  275.17   17.80
  16   2  -6  267.57   13.80
  16   2  -6  246.78   16.90
 -16   2   6  327.47   16.80
 -16   2   6  277.37   19.80
  14  -2  -6  119.09   14.70
 -14  -2   6  139.49   11.00
  14  -2  -6  143.49    9.30
 -14  -2   6  134.59   11.10
  14  -2  -6  164.78   11.30
 -14  -2   6  128.19   10.50
 -14   2   6  144.29   10.00
  14   2  -6  126.39    8.30
 -14   2   6  136.09   12.60
  14   2  -6  162.48   14.30
  14   2  -6  143.79   11.00
 -14   2   6  137.69   10.20
 -12  -2   6  453.25   21.00
  12  -2  -6  457.25   24.20
  12  -2  -6  413.86   19.30
  12  -2  -6  458.35   18.00
 -12  -2   6  453.85   20.50
 -12   2   6  457.25   18.90
 -12   2   6  427.36   19.90
  12   2  -6  446.96   20.90
  12   2  -6  470.85   23.10
  12   2  -6  438.86   17.40
 -12   2   6  448.96   23.50
  10  -2  -6  749.82   28.40
  10  -2  -6  772.92   26.50
 -10  -2   6  778.32   29.70
 -10  -2   6  828.82   30.20
  10  -2  -6  774.32   33.70
  10   2  -6  805.12   31.60
 -10   2   6  788.32   33.50
  10   2  -6  792.22   30.40
 -10   2   6  801.82   30.30
  10   2  -6  768.12   26.90
 -10   2   6  758.72   25.80
 -10   2   6  817.92   27.90
   8  -2  -6  515.25   18.40
  -8  -2   6  547.75   20.60
  -8  -2   6  526.65   18.40
   8  -2  -6  546.75   24.40
   8  -2  -6  528.75   19.50
  -8  -2   6  537.95   21.60
  -8   2   6  540.45   24.40
   8   2  -6  524.55   18.80
  -8   2   6  536.25   18.90
  -8   2   6  556.94   19.00
   8   2  -6  546.85   22.00
   8   2  -6  550.44   21.80
   6  -2  -6 1915.21   62.79
  -6  -2   6 1809.92   58.69
  -6  -2   6 1775.92   59.99
  -6  -2   6 1801.92   57.49
  -6  -2   6 1839.02   62.79
   6  -2  -6 1845.92   56.59
  -6   2   6 1812.62   55.99
  -6   2   6 1837.02   63.39
  -6   2   6 1801.82   58.29
   6   2  -6 1802.22   60.19
   6   2  -6 1877.71   58.99
   6   2  -6 1938.51   58.39
  -4  -2   6 2136.39   67.29
  -4  -2   6 1928.51   65.99
  -4  -2   6 2090.89   66.69
  -4  -2   6 2035.90   69.49
   4   2  -6 2177.38   66.49
  -4   2   6 2036.60   68.09
  -4   2   6 2072.59   66.29
  -4   2   6 2122.99   70.09
  -2  -2   6  746.03   27.40
  -2  -2   6  758.32   27.20
  -2  -2   6  708.33   26.00
  -2  -2   6  707.83   28.50
   2   2  -6  720.63   26.50
  -2   2   6  687.93   26.50
  -2   2   6  731.83   27.00
  -2   2   6  688.83   28.30
   2   2  -6  700.63   29.90
   0  -2   6  165.48   11.00
   0  -2   6  167.88    9.50
   0  -2  -6  172.48    7.60
   0  -2   6  175.18   10.80
   0  -2  -6  178.68   10.60
   0   2  -6  172.78   10.30
   0   2   6  183.38   10.00
   0   2  -6  177.68   13.10
   0   2   6  202.68    7.40
   2  -2   6  261.37   14.80
  -2  -2  -6  267.77   11.40
   2  -2   6  248.58   12.90
   2  -2   6  250.47   14.50
   2  -2   6  269.67   11.30
  -2  -2  -6  249.88   13.90
   2   2   6  244.08   13.10
  -2   2  -6  236.88   13.50
   2   2   6  264.17   13.20
   2   2   6  259.67   11.00
  -2   2  -6  236.68   17.00
   4  -2   6  410.96   21.60
  -4  -2  -6  406.76   20.40
   4  -2   6  390.16   20.90
   4  -2   6  408.56   19.30
  -4  -2  -6  451.55   17.90
   4  -2   6  408.36   18.50
  -4   2  -6  436.66   20.10
   4   2   6  416.06   19.80
  -4   2  -6  445.46   25.90
   4   2   6  436.16   17.60
   4   2   6  409.56   19.60
  -4   2  -6  398.46   16.90
  -6  -2  -6  154.78   13.40
   6  -2   6  165.98   12.00
  -6  -2  -6  158.58   12.20
   6  -2   6  164.88   13.30
   6  -2   6  144.49   12.10
  -6   2  -6  153.68   10.20
   6   2   6  167.28   11.30
   6   2   6  168.58   13.40
   6   2   6  158.08   10.30
   8  -2   6   96.89   10.40
  -8  -2  -6  112.39   13.70
   8  -2   6  104.39   12.70
   8  -2   6   90.89   10.70
   8   2   6   97.99    9.20
  -8   2  -6   92.29    9.10
   8   2   6  100.29   13.40
   8   2   6  100.19    9.40
  10  -2   6   39.00   12.70
  10  -2   6   46.60    9.50
  10  -2   6   49.70    8.80
  10   2   6   48.70    8.10
  10   2   6   47.40    8.00
 -10   2  -6   57.59    8.90
  12  -2   6   13.20    8.20
  12  -2   6   17.40    7.60
  12   2   6   14.50    6.70
  12   2   6    6.00    6.80
 -21  -3   6  434.86   27.10
  21  -3  -6  400.36   26.90
  21   3  -6  399.06   22.30
  21   3  -6  412.36   26.40
 -21   3   6  408.76   30.20
  19  -3  -6  568.74   27.00
  19  -3  -6  534.55   28.70
 -19  -3   6  503.55   28.50
  19   3  -6  544.25   29.10
  19   3  -6  524.25   24.80
 -19   3   6  525.05   31.90
  17  -3  -6 1002.90   42.40
  17  -3  -6 1065.39   40.20
 -17  -3   6 1098.79   43.80
 -17   3   6  993.80   46.70
 -17   3   6 1022.30   40.30
  17   3  -6  997.90   38.60
  17   3  -6 1028.50   43.10
 -15  -3   6 1407.66   52.59
  15  -3  -6 1415.86   52.79
 -15  -3   6 1497.25   53.79
 -15  -3   6 1306.17   52.89
  15  -3  -6 1486.85   50.89
  15   3  -6 1392.26   49.70
  15   3  -6 1422.86   58.09
  15   3  -6 1471.15   54.39
 -15   3   6 1466.55   58.79
 -15   3   6 1487.95   51.19
 -13  -3   6 1571.04   56.99
  13  -3  -6 1707.03   55.39
  13  -3  -6 1665.63   63.29
  13  -3  -6 1533.05   55.99
 -13  -3   6 1621.84   57.49
 -13   3   6 1585.34   55.89
  13   3  -6 1604.54   57.89
 -13   3   6 1579.74   62.19
 -13   3   6 1615.74   54.69
  13   3  -6 1575.34   54.19
  13   3  -6 1674.43   60.39
  11  -3  -6 2186.28   73.39
  11  -3  -6 2336.47   73.19
  11  -3  -6 2281.67   80.39
 -11  -3   6 2193.48   74.39
 -11  -3   6 2263.27   75.49
  11   3  -6 2369.16   77.19
  11   3  -6 2120.49   72.69
 -11   3   6 2221.58   72.09
 -11   3   6 2279.37   74.29
 -11   3   6 2279.07   80.89
 -11   3   6 2269.57   71.49
  11   3  -6 2205.68   75.69
   9  -3  -6 3660.23  121.39
  -9  -3   6 3612.04  115.29
  -9  -3   6 3929.51  117.79
   9  -3  -6 3770.62  114.69
   9  -3  -6 3637.84  114.49
  -9  -3   6 3691.63  113.69
   9   3  -6 3774.52  117.69
  -9   3   6 3823.82  116.49
   9   3  -6 3529.85  116.99
  -9   3   6 3702.53  122.49
  -9   3   6 3581.94  114.39
   9   3  -6 3532.85  115.29
  -9   3   6 3698.73  113.39
  -7  -3   6 1949.30   63.89
  -7  -3   6 1897.61   65.39
  -7  -3   6 1919.01   61.79
   7  -3  -6 1943.71   66.79
   7  -3  -6 1842.92   61.09
   7   3  -6 1892.71   62.09
  -7   3   6 1987.90   68.49
   7   3  -6 1943.31   63.89
  -7   3   6 1933.01   59.19
  -7   3   6 1814.92   61.79
   7   3  -6 1873.51   61.99
  -5  -3   6 2084.89   68.59
  -5  -3   6 2113.49   71.39
  -5  -3   6 2179.98   69.19
  -5  -3   6 2159.58   69.89
   5   3  -6 2163.68   68.89
   5   3  -6 2148.58   66.29
  -5   3   6 1988.40   73.29
  -5   3   6 2090.89   68.39
  -3  -3   6 4399.16  142.69
  -3  -3   6 4656.03  140.59
  -3  -3   6 4584.44  141.89
  -3  -3   6 4693.23  141.49
  -3   3   6 4371.46  140.49
  -3   3   6 4588.54  140.39
   3   3  -6 4474.55  144.69
   3   3  -6 4551.74  141.19
  -3   3   6 4374.56  144.79
  -1  -3   6 2516.05   81.89
  -1  -3   6 2529.15   83.29
  -1  -3   6 2515.55   84.09
   1   3  -6 2654.03   82.99
   1   3  -6 2491.45   83.29
  -1   3   6 2585.74   80.99
  -1   3   6 2486.95   82.69
   1   3  -6 2565.74   87.29
  -1  -3  -6 1340.37   41.90
   1  -3   6 1244.88   47.30
   1  -3   6 1291.47   45.70
  -1  -3  -6 1361.56   45.40
   1  -3   6 1340.47   47.80
  -1   3  -6 1280.97   51.59
   1   3   6 1289.27   47.00
  -1   3  -6 1298.17   41.00
   1   3   6 1343.37   41.70
  -1   3  -6 1329.67   46.70
   1   3   6 1245.18   44.20
  -3  -3  -6 1537.95   55.09
  -3  -3  -6 1621.04   52.69
   3  -3   6 1586.04   55.99
   3  -3   6 1710.13   58.89
   3  -3   6 1522.55   57.89
   3  -3   6 1688.13   53.59
  -3   3  -6 1568.24   52.09
   3   3   6 1565.54   54.79
   3   3   6 1627.04   58.09
   3   3   6 1638.84   56.39
  -3   3  -6 1609.74   63.39
   3   3   6 1673.33   52.69
  -3   3  -6 1664.03   57.09
   5  -3   6 1084.29   44.60
   5  -3   6 1111.39   42.20
   5  -3   6 1092.79   40.50
  -5  -3  -6 1070.59   41.30
  -5  -3  -6 1128.69   39.20
   5   3   6 1179.18   43.40
  -5   3  -6 1052.09   38.70
   5   3   6 1105.19   39.80
   5   3   6 1104.49   38.90
   7  -3   6  571.54   26.90
   7  -3   6  651.53   28.30
  -7  -3  -6  522.55   26.50
   7  -3   6  600.64   29.10
  -7   3  -6  548.55   24.70
   7   3   6  581.04   24.70
   7   3   6  606.44   28.90
   7   3   6  599.64   24.80
   9  -3   6  435.26   24.30
   9  -3   6  401.26   24.60
  -9  -3  -6  377.26   23.90
   9  -3   6  413.46   23.10
   9   3   6  409.46   20.00
   9   3   6  399.96   20.50
  -9   3  -6  345.67   20.10
  11  -3   6  246.68   19.10
  11  -3   6  263.87   19.70
  11   3   6  246.18   20.30
  11   3   6  296.27   18.40
  11   3   6  291.47   17.50
 -11   3  -6  247.68   18.60
 -20  -4   6  234.88   18.40
  20  -4  -6  235.68   20.10
  20   4  -6  259.77   17.70
  20   4  -6  224.68   18.80
 -20   4   6  224.68   23.00
 -18  -4   6  287.77   19.40
  18  -4  -6  319.47   19.50
  18  -4  -6  252.77   19.10
  18   4  -6  305.57   20.10
 -18   4   6  281.87   18.10
 -18   4   6  289.87   23.20
  18   4  -6  270.77   17.00
 -16  -4   6  393.86   21.90
  16  -4  -6  422.16   21.70
  16  -4  -6  403.46   22.60
  16   4  -6  426.66   20.70
  16   4  -6  424.06   23.20
 -16   4   6  410.06   20.40
 -16   4   6  418.26   26.90
  14  -4  -6  639.14   27.10
  14  -4  -6  559.14   26.50
 -14  -4   6  602.74   28.20
 -14  -4   6  572.14   26.80
 -14   4   6  613.74   34.60
  14   4  -6  669.83   30.90
  14   4  -6  602.44   28.30
  14   4  -6  591.04   25.60
 -14   4   6  599.84   32.30
 -14   4   6  573.54   24.70
 -14   4   6  604.64   24.50
 -12  -4   6  859.21   33.80
  12  -4  -6  866.91   39.70
  12  -4  -6  890.21   33.70
 -12  -4   6  817.42   34.70
  12  -4  -6  899.51   33.80
 -12   4   6  862.51   31.70
  12   4  -6  864.31   36.50
  12   4  -6  833.32   33.20
 -12   4   6  864.21   33.00
 -12   4   6  881.01   32.20
 -12   4   6  840.82   39.90
  12   4  -6  894.01   35.60
 -10  -4   6 1380.66   46.00
  10  -4  -6 1383.66   53.49
 -10  -4   6 1326.87   49.10
  10  -4  -6 1420.06   47.70
  10  -4  -6 1300.47   46.40
 -10   4   6 1365.46   47.00
  10   4  -6 1282.77   47.80
 -10   4   6 1358.56   45.20
 -10   4   6 1329.57   54.69
  10   4  -6 1375.56   49.60
  10   4  -6 1383.36   49.50
 -10   4   6 1391.66   47.00
   8  -4  -6  928.41   33.20
  -8  -4   6  865.11   34.50
  -8  -4   6  901.61   32.60
   8  -4  -6  900.01   31.20
  -8  -4   6  904.91   35.40
   8  -4  -6  935.21   38.00
   8   4  -6  917.61   33.60
   8   4  -6  846.22   33.70
  -8   4   6  922.21   30.50
  -8   4   6  898.61   39.60
  -8   4   6  860.41   33.20
  -8   4   6  932.81   32.40
   8   4  -6  877.31   34.50
  -6  -4   6  998.00   36.30
  -6  -4   6 1027.70   38.20
   6  -4  -6  981.60   35.60
  -6  -4   6  972.80   36.00
   6  -4  -6  961.40   32.20
  -6  -4   6 1027.50   37.60
   6   4  -6  978.90   36.70
  -6   4   6  990.00   36.10
  -6   4   6  999.50   42.20
  -6   4   6 1000.80   31.80
   6   4  -6  980.00   34.40
  -4  -4   6 1147.29   41.00
  -4  -4   6 1110.99   41.30
  -4  -4   6 1128.79   41.10
  -4  -4   6 1099.89   39.60
   4  -4  -6 1115.99   34.50
   4  -4  -6 1102.99   34.40
   4   4  -6 1105.99   40.80
  -4   4   6 1062.59   39.80
   4   4  -6 1119.69   43.20
   4   4  -6 1120.89   36.50
  -4   4   6 1096.09   45.10
  -4   4   6 1141.69   38.90
  -2  -4   6  796.92   31.60
  -2  -4   6  806.92   32.00
  -2  -4   6  755.22   29.90
  -2  -4   6  767.32   31.30
   2   4  -6  820.02   31.90
   2   4  -6  778.62   26.90
   2   4  -6  771.42   33.90
  -2   4   6  795.32   28.00
  -2   4   6  817.82   34.40
  -2   4   6  773.52   30.70
   0  -4  -6 1078.09   33.70
   0  -4   6 1051.49   38.60
   0  -4   6 1068.59   40.30
   0  -4   6 1016.60   39.70
   0   4  -6 1072.69   44.20
   0   4   6 1047.00   35.40
   0   4   6 1043.90   39.60
   0   4  -6 1024.60   34.30
   0   4  -6 1039.80   40.50
   0   4  -6 1020.70   39.40
   2  -4   6  740.83   29.90
  -2  -4  -6  717.03   27.20
   2  -4   6  752.52   32.00
  -2  -4  -6  778.02   26.00
   2  -4   6  736.63   31.30
  -2   4  -6  745.23   30.70
  -2   4  -6  771.62   36.50
   2   4   6  744.53   25.70
  -2   4  -6  729.33   26.20
   2   4   6  730.43   31.00
   2   4   6  746.93   30.00
   2   4   6  631.94   26.20
  -4  -4  -6  350.06   15.50
   4  -4   6  343.87   18.40
   4  -4   6  325.37   19.40
   4  -4   6  343.47   16.50
  -4  -4  -6  340.37   16.30
   4   4   6  323.27   19.00
   4   4   6  334.77   14.90
   4   4   6  333.97   18.90
   4   4   6  355.06   15.20
  -4   4  -6  351.36   15.70
   6  -4   6  206.18   13.80
   6  -4   6  194.18   15.20
   6  -4   6  200.98   14.20
  -6  -4  -6  165.08   12.20
   6   4   6  186.38   14.90
   6   4   6  198.68   11.60
  -6   4  -6  182.88   12.00
   6   4   6  182.28   10.50
   8  -4   6  234.28   17.30
  -8  -4  -6  208.98   15.90
   8  -4   6  238.28   17.20
   8  -4   6  224.18   17.90
   8   4   6  239.38   13.30
  -8   4  -6  234.28   15.20
   8   4   6  261.97   18.90
   8   4   6  259.87   14.70
 -10  -4  -6  150.48   19.40
  10  -4   6  176.98   15.80
  10  -4   6  149.69   19.50
  10  -4   6  157.68   15.60
 -10   4  -6  165.88   14.70
  10   4   6  180.08   17.20
  10   4   6  183.78   12.50
  10   4   6  152.08   13.00
  19  -5  -6   10.50    7.50
 -19   5   6    6.00    8.20
  19   5  -6    5.50    6.50
  19   5  -6    3.90    6.40
  17  -5  -6   77.49   12.10
  17  -5  -6   80.69   12.20
 -17   5   6   87.59   10.80
  17   5  -6   72.69   11.60
 -17   5   6   82.59   15.30
  17   5  -6   70.49   10.10
 -15  -5   6  122.89   11.70
  15  -5  -6  138.59   13.50
  15  -5  -6  135.39   12.70
 -15   5   6  129.69   10.70
  15   5  -6  130.59   11.80
 -15   5   6  129.89   10.70
  15   5  -6  125.69   12.50
 -15   5   6  142.29   16.50
  13  -5  -6   71.99    8.70
  13  -5  -6   64.39    9.20
 -13  -5   6   64.49    9.20
  13   5  -6   70.19    8.40
  13   5  -6   65.49    9.40
 -13   5   6   79.59   13.00
  13   5  -6   51.29   10.00
 -13   5   6   58.29    7.30
 -13   5   6   64.89    7.40
 -13   5   6   66.89    7.10
 -11  -5   6  272.27   16.50
  11  -5  -6  252.87   18.90
  11  -5  -6  251.27   14.20
 -11  -5   6  248.08   13.40
 -11  -5   6  235.58   15.20
  11  -5  -6  257.37   15.40
 -11   5   6  249.48   13.30
 -11   5   6  221.78   19.00
  11   5  -6  255.07   15.40
 -11   5   6  230.68   13.90
 -11   5   6  237.18   12.50
  11   5  -6  255.07   15.50
  11   5  -6  249.28   16.20
   9  -5  -6  182.68   14.80
  -9  -5   6  164.28   10.60
   9  -5  -6  150.18   11.30
   9  -5  -6  147.19    9.50
  -9  -5   6  165.08   12.30
  -9  -5   6  162.18   11.60
  -9   5   6  156.08    9.30
   9   5  -6  172.78   12.10
  -9   5   6  173.48   11.50
   9   5  -6  171.18   12.30
   9   5  -6  162.58   11.70
  -9   5   6  174.48   15.40
  -9   5   6  161.28    9.00
   7  -5  -6  145.69   10.50
  -7  -5   6  145.09   10.40
  -7  -5   6  145.79   10.50
   7  -5  -6  134.49    7.90
  -7  -5   6  122.49   10.40
  -7  -5   6  134.99    9.70
  -7   5   6  130.19   13.60
  -7   5   6  146.99    7.50
   7   5  -6  156.78    9.90
  -7   5   6  142.49    8.10
   7   5  -6  129.29   10.70
  -7   5   6  153.28   10.60
   5  -5  -6  610.14   21.00
  -5  -5   6  553.14   25.10
  -5  -5   6  573.74   26.20
  -5  -5   6  589.84   24.50
   5  -5  -6  600.24   25.10
  -5  -5   6  633.34   26.30
   5  -5  -6  574.14   20.80
   5   5  -6  568.84   26.10
   5   5  -6  598.84   22.80
  -5   5   6  601.14   30.80
  -5   5   6  589.14   21.40
  -5   5   6  603.54   25.60
  -3  -5   6  476.85   22.50
  -3  -5   6  444.26   20.50
  -3  -5   6  438.86   21.20
   3  -5  -6  503.65   16.60
   3  -5  -6  443.86   16.30
  -3  -5   6  464.45   22.60
  -3   5   6  464.75   18.00
   3   5  -6  441.26   22.30
  -3   5   6  480.85   26.10
   3   5  -6  475.45   24.20
   3   5  -6  457.45   19.60
  -3   5   6  478.15   21.80
  -1  -5   6  153.28   12.20
  -1  -5   6  133.09   11.70
   1  -5  -6  137.49    6.70
   1  -5  -6  141.69    7.00
  -1  -5   6  137.99   10.00
  -1  -5   6  149.49   10.90
   1   5  -6  157.78   13.70
  -1   5   6  147.69    7.20
   1   5  -6  148.69    9.40
   1   5  -6  151.98   12.00
   1   5  -6  140.29   11.20
  -1   5   6  140.89   10.70
   1  -5   6   17.90    4.50
  -1  -5  -6   29.20    3.80
   1  -5   6   25.30    6.80
   1  -5   6   24.50    4.90
  -1   5  -6   14.50    4.90
  -1   5  -6   14.40    6.80
  -1   5  -6   21.80    4.30
   1   5   6   20.70    5.50
   1   5   6   23.70    3.10
  -3  -5  -6  101.49    7.60
   3  -5   6   90.19    9.10
   3  -5   6   87.49    9.40
   3   5   6   95.49    6.80
  -3   5  -6   97.69   10.70
  -3   5  -6   91.79    8.10
   3   5   6   88.29    9.60
   3   5   6   95.29    5.60
   3   5   6   94.29   10.60
   5  -5   6  111.99   11.60
  -5  -5  -6  118.09    8.60
   5  -5   6  108.89   10.20
   5  -5   6   98.49   10.70
   5   5   6  106.79    6.70
  -5   5  -6  105.89    9.60
   5   5   6  102.59    8.10
   5   5   6  112.39   11.80
  -7  -5  -6   16.90    5.40
   7  -5   6    5.80    5.10
   7  -5   6   17.80    6.20
   7  -5   6   11.30    7.20
  -7   5  -6   26.40    6.70
   7   5   6   13.00    3.80
   7   5   6   21.80    5.40
   7   5   6   10.00    6.50
   9  -5   6   20.40   10.50
  -9  -5  -6   34.60    8.10
   9  -5   6   21.60    7.80
   9  -5   6   24.50    7.60
   9   5   6   37.50    9.60
   9   5   6   27.30    6.20
   9   5   6   21.30    5.10
  -9   5  -6   28.60    8.10
  20  -6  -6  418.76   29.20
  20   6  -6  432.26   27.70
  20   6  -6  400.96   25.90
  18  -6  -6  511.25   30.10
  18   6  -6  518.65   28.30
 -18   6   6  553.24   35.80
  18   6  -6  537.15   29.80
  16  -6  -6  780.02   36.80
  16  -6  -6  837.82   37.00
  16   6  -6  817.92   37.40
  16   6  -6  794.72   35.60
 -16   6   6  790.52   34.30
 -16   6   6  693.23   41.50
 -16   6   6  799.22   33.40
  14  -6  -6 1127.19   44.60
  14  -6  -6 1041.50   43.70
 -14   6   6 1063.49   40.70
  14   6  -6 1097.69   45.00
 -14   6   6 1094.99   42.80
 -14   6   6 1099.39   52.49
  14   6  -6 1074.09   43.90
 -12  -6   6 1096.39   40.50
 -12  -6   6 1057.59   41.90
  12  -6  -6 1073.09   42.60
  12  -6  -6 1035.10   41.10
  12   6  -6 1072.19   44.20
 -12   6   6 1064.79   50.39
 -12   6   6 1046.70   39.30
  12   6  -6 1072.69   43.30
 -12   6   6 1067.69   38.80
 -12   6   6 1038.30   41.30
  12   6  -6  991.40   42.50
  10  -6  -6 2552.14   84.49
 -10  -6   6 2536.05   85.59
  10  -6  -6 2278.27   81.19
 -10  -6   6 2415.76   81.99
 -10  -6   6 2452.65   83.49
  10   6  -6 2460.15   84.99
 -10   6   6 2548.15   79.89
 -10   6   6 2321.17   79.49
  10   6  -6 2436.46   85.29
  10   6  -6 2581.94   85.09
 -10   6   6 2488.25   83.99
 -10   6   6 2516.05   94.09
  -8  -6   6 1695.43   59.79
   8  -6  -6 1730.53   60.69
   8  -6  -6 1615.24   56.79
  -8  -6   6 1670.43   59.29
  -8  -6   6 1727.23   59.79
  -8  -6   6 1700.83   61.59
  -8   6   6 1618.34   68.19
  -8   6   6 1700.63   60.99
   8   6  -6 1665.93   61.89
   8   6  -6 1778.72   59.79
  -8   6   6 1737.23   55.69
  -8   6   6 1649.44   55.49
  -6  -6   6  322.17   18.90
  -6  -6   6  331.97   16.90
   6  -6  -6  349.57   18.70
  -6  -6   6  316.27   16.90
   6  -6  -6  330.37   14.60
   6  -6  -6  305.97   14.40
  -6  -6   6  338.77   18.70
  -6   6   6  333.77   18.60
   6   6  -6  304.07   18.60
  -6   6   6  332.27   13.50
  -6   6   6  316.57   22.40
   6   6  -6  337.07   16.60
   4  -6  -6 1403.66   46.00
  -4  -6   6 1463.95   52.89
  -4  -6   6 1387.06   50.59
   4  -6  -6 1472.85   52.09
  -4  -6   6 1409.16   50.49
  -4  -6   6 1428.86   52.69
  -4   6   6 1358.06   46.30
  -4   6   6 1332.57   57.69
   4   6  -6 1442.36   48.40
   4   6  -6 1329.67   52.79
  -4   6   6 1370.96   44.50
   4   6  -6 1427.26   49.90
  -4   6   6 1378.66   52.09
   4   6  -6 1418.26   54.09
   2  -6  -6 1926.81   62.39
  -2  -6   6 1927.71   69.89
  -2  -6   6 1985.90   67.89
  -2  -6   6 1993.20   70.49
   2  -6  -6 1982.40   62.59
  -2  -6   6 1890.41   67.79
   2   6  -6 1968.70   71.29
  -2   6   6 1962.60   60.69
   2   6  -6 1988.90   72.79
   2   6  -6 2040.70   67.39
  -2   6   6 1945.51   74.39
  -2   6   6 1992.40   69.69
   0  -6  -6 1231.58   41.10
   0  -6   6 1174.58   45.70
   0  -6   6 1178.38   46.30
   0  -6   6 1194.18   48.60
   0   6  -6 1209.18   49.20
   0   6  -6 1311.17   45.40
   0   6  -6 1258.77   67.99
   0   6   6 1280.77   48.10
  -2  -6  -6 1502.45   49.40
   2  -6   6 1521.65   54.69
   2  -6   6 1418.66   54.69
   2   6   6 1438.96   55.79
  -2   6  -6 1467.25   52.29
  -2   6  -6 1477.65   58.09
   4  -6   6  817.92   36.60
  -4  -6  -6  841.52   33.80
   4  -6   6  792.12   35.00
   4   6   6  810.02   36.80
   4   6   6  854.81   30.70
  -4   6  -6  787.12   37.90
  -4   6  -6  774.62   32.70
   6  -6   6  359.16   21.50
   6  -6   6  386.26   22.60
   6   6   6  376.56   17.90
   6   6   6  358.66   22.50
  -6   6  -6  320.97   19.30
   8  -6   6  463.65   25.90
   8  -6   6  454.85   26.80
   8  -6   6  484.85   26.90
  -8   6  -6  450.35   24.50
   8   6   6  456.55   27.80
   8   6   6  475.25   22.50
 -19   7   6  195.38   36.80
  19   7  -6  262.57   20.80
  17  -7  -6  336.37   23.80
 -17   7   6  299.57   28.20
  17   7  -6  319.97   22.20
 -17   7   6  313.07   20.80
  17   7  -6  323.77   23.00
 -15  -7   6  533.35   26.70
  15  -7  -6  514.45   28.70
 -15   7   6  557.84   27.90
  15   7  -6  516.15   28.20
  15   7  -6  553.84   29.20
 -15   7   6  520.85   25.50
 -15   7   6  530.65   35.50
  13  -7  -6  550.64   28.50
 -13  -7   6  517.85   25.00
  13  -7  -6  471.25   25.90
  13   7  -6  505.35   27.20
 -13   7   6  513.85   33.60
  13   7  -6  442.76   26.30
 -13   7   6  525.15   23.50
 -13   7   6  535.45   26.40
 -11  -7   6  657.33   29.60
  11  -7  -6  634.34   29.10
  11  -7  -6  664.03   31.70
 -11  -7   6  644.94   28.90
  11   7  -6  647.04   31.80
 -11   7   6  641.24   26.80
  11   7  -6  721.93   33.00
 -11   7   6  640.74   38.50
 -11   7   6  699.33   31.10
 -11   7   6  648.44   26.80
  11   7  -6  656.73   31.20
  -9  -7   6 2088.89   72.39
   9  -7  -6 1960.60   70.39
  -9  -7   6 2005.00   71.39
  -9  -7   6 2092.09   72.69
   9  -7  -6 2181.98   74.89
   9   7  -6 1968.30   75.29
  -9   7   6 2075.89   68.49
  -9   7   6 2073.49   68.09
   9   7  -6 2194.78   74.09
  -9   7   6 2176.28   74.59
  -9   7   6 2038.70   82.89
  -7  -7   6 1763.52   63.89
   7  -7  -6 1983.80   67.39
  -7  -7   6 1818.72   65.99
   7  -7  -6 1750.02   61.79
  -7  -7   6 1884.41   65.09
  -7  -7   6 1892.61   67.99
   7   7  -6 1750.32   67.79
  -7   7   6 1784.32   59.49
   7   7  -6 1964.20   65.49
  -7   7   6 1865.51   75.69
  -7   7   6 1820.22   66.99
  -5  -7   6 1819.62   65.49
   5  -7  -6 1785.22   64.99
  -5  -7   6 1826.42   65.99
   5  -7  -6 1779.32   58.99
   5  -7  -6 1728.23   58.89
  -5  -7   6 1847.12   63.19
  -5  -7   6 1756.72   62.19
  -5   7   6 1719.23   56.09
   5   7  -6 1912.71   62.39
  -5   7   6 1744.33   65.19
   5   7  -6 1708.73   66.39
  -5   7   6 1718.23   71.79
  -3  -7   6 2097.49   74.29
   3  -7  -6 2058.89   66.69
  -3  -7   6 2103.59   71.79
  -3  -7   6 2003.80   74.09
  -3  -7   6 1997.90   70.69
   3  -7  -6 2078.19   73.69
   3  -7  -6 2105.19   66.59
  -3   7   6 2114.39   80.69
   3   7  -6 1966.50   74.89
  -3   7   6 2050.59   73.99
   3   7  -6 2019.00   71.69
   3   7  -6 2078.29   75.69
  -1  -7   6  793.02   36.10
  -1  -7   6  791.72   33.10
   1  -7  -6  795.32   28.80
  -1  -7   6  762.42   32.70
   1  -7  -6  765.42   28.30
  -1   7   6  776.12   38.80
   1   7  -6  762.52   33.20
  -1   7   6  828.02   35.50
   1   7  -6  735.63   36.00
  -1  -7  -6  794.92   29.50
  -1  -7  -6  794.72   28.30
   1  -7   6  779.42   33.70
   1  -7   6  806.42   34.20
  -1   7  -6  745.33   36.70
  -1   7  -6  743.43   33.10
   1   7   6  815.02   36.10
   3  -7   6  744.53   33.80
   3  -7   6  745.23   34.40
  -3   7  -6  773.92   37.70
   3   7   6  798.52   36.10
  -3   7  -6  729.63   32.80
   5  -7   6  280.17   18.90
   5  -7   6  270.07   18.70
  -5   7  -6  230.78   17.30
   5   7   6  272.47   14.90
   5   7   6  273.17   20.10
  -5   7  -6  250.57   20.60
   7  -7   6  241.68   18.30
   7  -7   6  225.28   18.40
  -7   7  -6  218.28   18.10
   7   7   6  202.28   19.00
   7   7   6  235.38   14.60
 -16  -8   6   14.30    6.80
  16  -8  -6    0.00    8.10
  16   8  -6    2.70    8.60
 -16   8   6    9.70    7.30
 -16   8   6    5.20   10.30
 -16   8   6   -1.90    9.00
  16   8  -6   11.00    8.00
  14  -8  -6   12.90    7.90
 -14  -8   6    2.50    4.30
 -14   8   6   18.30    7.10
  14   8  -6   14.20    7.70
 -14   8   6   10.80   10.80
  14   8  -6    9.80    6.20
 -14   8   6   18.30    6.80
 -12  -8   6   23.50    5.60
  12  -8  -6   21.60    7.40
  12   8  -6   12.70    6.10
 -12   8   6    7.50    5.70
 -12   8   6   13.10    5.70
 -12   8   6   24.90   11.10
  12   8  -6   36.50    9.00
 -10  -8   6   34.70    6.70
 -10  -8   6   36.00    7.30
  10  -8  -6   44.10    7.90
  10   8  -6   28.10    8.20
 -10   8   6   30.40    6.00
 -10   8   6   42.00    8.80
 -10   8   6   34.40    6.60
 -10   8   6   37.40   12.10
  -8  -8   6   95.19   10.20
   8  -8  -6   98.39    9.80
  -8  -8   6  106.49    9.60
   8   8  -6   96.29   13.50
  -8   8   6  105.29   12.40
  -8   8   6  118.99   18.80
   8   8  -6  116.09   14.40
  -8   8   6  100.79    8.10
  -6  -8   6    7.70    3.80
  -6  -8   6    5.40    4.00
   6  -8  -6    9.90    5.00
   6  -8  -6    5.80    4.00
  -6   8   6    6.00    2.80
  -6   8   6    5.00    7.90
   6   8  -6    5.40    5.70
  -6   8   6    6.30    5.40
   6   8  -6    3.20    5.90
   4  -8  -6   62.09    7.50
  -4  -8   6   44.10    7.60
   4  -8  -6   52.89    6.50
  -4  -8   6   51.49    7.20
   4   8  -6   51.69    9.50
  -4   8   6   52.89    9.80
   4   8  -6   75.39   11.10
  -4   8   6   53.69   11.70
  -2  -8   6   79.59    8.70
   2  -8  -6   79.39    7.30
  -2  -8   6   89.09   10.00
   2  -8  -6   95.99    9.20
  -2   8   6  109.59   11.80
  -2   8   6  121.09   17.20
   2   8  -6   86.99   12.00
   2   8  -6   89.89   12.90
   0  -8  -6   10.70    3.80
   0  -8   6   14.50    4.90
   0  -8   6   10.80    4.90
   0   8  -6   20.10    6.80
   0   8   6   15.40    7.10
   0   8  -6   11.80    7.60
   0   8   6   22.60    8.60
   2  -8   6   10.10    5.00
  -2  -8  -6   11.80    4.10
   2  -8   6    8.30    5.00
   2   8   6   14.80    7.30
  -2   8  -6    6.60    7.40
  -2   8  -6    7.60    7.10
   4  -8   6    7.40    5.80
  -4  -8  -6    7.30    4.40
   4  -8   6    5.80    5.20
   4   8   6   -2.00    6.60
  -4   8  -6    1.20    8.00
  -4   8  -6   -2.70    6.90
   6  -8   6    0.30    5.20
   6  -8   6   -2.70    5.90
  -6   8  -6  -11.50    8.00
   6   8   6   -0.10    6.70
  15  -9  -6  624.64   34.20
 -15  -9   6  590.94   28.20
  15   9  -6  561.14   33.60
 -15   9   6  521.05   40.80
 -15   9   6  675.83   34.10
  15   9  -6  662.13   34.80
 -13  -9   6  433.36   22.50
  13  -9  -6  452.85   27.10
 -13   9   6  415.16   34.60
 -13   9   6  454.65   27.80
  13   9  -6  465.25   27.70
  13   9  -6  505.15   30.10
 -13   9   6  483.65   24.60
 -11  -9   6  599.04   27.40
  11  -9  -6  624.74   30.90
 -11  -9   6  642.84   30.80
 -11   9   6  621.74   27.70
 -11   9   6  623.74   28.20
  11   9  -6  644.44   35.00
 -11   9   6  643.44   33.00
 -11   9   6  664.53   42.40
  -9  -9   6  862.11   37.50
   9  -9  -6  870.01   36.60
  -9  -9   6  851.51   34.80
   9   9  -6  897.31   42.40
  -9   9   6  838.12   48.70
  -9   9   6  856.41   32.80
  -9   9   6  897.91   40.70
   7  -9  -6  686.03   29.70
  -7  -9   6  675.23   29.30
  -7  -9   6  703.73   31.80
  -7   9   6  676.33   25.50
   7   9  -6  731.73   36.70
  -7   9   6  704.93   42.30
  -7   9   6  669.43   34.90
  -5  -9   6  752.02   31.90
   5  -9  -6  777.92   31.10
  -5  -9   6  748.23   33.80
  -5   9   6  733.63   36.90
   5   9  -6  749.23   35.80
   5   9  -6  848.92   36.10
  -5   9   6  745.03   43.10
   5   9  -6  763.42   38.90
   3  -9  -6  650.33   26.50
  -3  -9   6  652.93   30.60
  -3  -9   6  622.54   28.70
  -3   9   6  692.93   34.60
   3   9  -6  658.03   33.10
   3   9  -6  628.34   34.60
  -3   9   6  641.54   39.20
  -1  -9   6  501.85   25.30
  -1  -9   6  451.95   23.30
   1  -9  -6  444.06   20.10
   1   9  -6  390.76   26.90
   1   9  -6  462.45   27.20
  -1   9   6  466.35   31.90
  -1   9   6  413.56   26.50
  -1  -9  -6  546.35   22.90
   1  -9   6  541.05   28.00
   1  -9   6  530.25   27.30
  -1   9  -6  544.05   32.80
   1   9   6  497.15   32.90
  -1   9  -6  543.35   30.20
   3  -9   6  581.94   30.70
   3  -9   6  595.94   30.30
  -3  -9  -6  594.44   25.10
   3   9   6  613.24   33.50
  -3   9  -6  632.14   36.20
  -3   9  -6  579.34   32.30
   5  -9   6  437.16   25.00
   5  -9   6  435.46   26.40
  -5   9  -6  438.26   28.10
  -5   9  -6  408.16   30.80
   5   9   6  410.06   28.30
 -12 -10   6  373.66   19.50
 -12 -10   6  352.86   23.00
  12 -10  -6  390.46   25.10
  12  10  -6  378.96   27.40
 -12  10   6  381.56   34.80
 -12  10   6  328.37   24.50
 -10 -10   6  520.35   27.70
  10 -10  -6  557.04   28.70
 -10 -10   6  535.05   24.50
 -10  10   6  524.85   24.10
 -10  10   6  520.75   30.70
 -10  10   6  546.95   40.00
  10  10  -6  509.95   32.10
  -8 -10   6  587.14   28.70
   8 -10  -6  555.84   27.40
  -8 -10   6  557.94   25.10
   8  10  -6  531.75   32.50
  -8  10   6  535.75   31.30
  -8  10   6  554.64   22.30
  -8  10   6  443.06   36.90
  -6 -10   6  374.26   19.90
   6 -10  -6  393.06   20.90
  -6 -10   6  395.16   23.10
   6  10  -6  384.06   25.40
  -6  10   6  388.86   32.70
  -6  10   6  396.16   26.50
   6  10  -6  424.46   28.20
  -4 -10   6  407.26   23.90
   4 -10  -6  417.76   21.00
  -4 -10   6  399.86   21.40
  -4  10   6  450.15   28.40
   4  10  -6  451.35   29.20
  -4  10   6  435.06   33.80
   4  10  -6  428.66   27.50
  -2 -10   6  429.96   23.10
  -2 -10   6  455.95   25.40
   2 -10  -6  462.15   21.30
   2  10  -6  460.75   28.50
  -2  10   6  410.86   32.10
  -2  10   6  428.16   28.50
   2  10  -6  491.15   31.30
   0 -10   6  347.87   20.90
   0 -10   6  342.77   21.80
   0 -10  -6  322.27   17.60
   0  10   6  309.17   23.70
   0  10  -6  343.37   25.40
   0  10  -6  336.07   26.80
   0  10   6  319.57   27.20
   2 -10   6  308.37   19.90
   2 -10   6  295.07   21.00
   2  10   6  262.67   23.30
  -2  10  -6  309.27   24.90
   2  10   6  297.47   26.50
  -2  10  -6  277.57   24.40
  -9 -11   6   66.49   11.40
  -9 -11   6   46.00    7.80
   9 -11  -6   39.90   10.50
  -9  11   6   31.00   15.90
  -9  11   6   56.99   14.10
   9  11  -6   70.49   14.80
   7 -11  -6    4.00    7.30
  -7 -11   6   11.30    6.90
  -7 -11   6   -4.70    4.50
  -7  11   6    1.20   10.70
   7  11  -6   -7.60    8.40
   7  11  -6   -6.90    9.00
  -7  11   6    1.40    9.00
  -5 -11   6    2.40    5.00
  -5 -11   6    8.30    6.70
   5 -11  -6   10.70    7.20
  -5  11   6    4.30   12.80
   5  11  -6    5.50    9.70
  -5  11   6    5.30    8.70
   5  11  -6   14.90    9.80
  -3 -11   6   14.80    7.80
  -3 -11   6    2.80    5.10
   3 -11  -6   13.20    6.70
  -3  11   6   11.40   12.60
  -3  11   6    6.70    8.90
   3  11  -6    5.50   10.70
   3  11  -6    7.00   10.30
  22   0  -7   -8.60   10.60
 -22   0   7    3.20    6.80
  22   0  -7    5.90    5.60
  22   0  -7    2.40    7.30
 -20   0   7    6.00    5.80
  20   0  -7    0.50    4.00
  20   0  -7   -7.00    4.90
  20   0  -7   -0.30    5.60
 -16   0   7    5.50    4.60
  16   0  -7    7.90    2.80
 -16   0   7    0.20    4.00
 -14   0   7   -6.10    3.30
 -14   0   7    4.40    3.40
  14   0  -7    1.90    5.30
 -14   0   7    3.60    3.70
  14   0  -7    2.20    1.60
  14   0  -7    2.90    1.30
  14   0  -7   -4.50    3.00
 -12   0   7    3.40    3.10
  12   0  -7    2.50    4.40
  12   0  -7    0.40    2.40
 -12   0   7   -0.90    2.10
  10   0  -7   -1.30    3.60
 -10   0   7    0.20    2.20
 -10   0   7    4.10    2.10
  10   0  -7    2.40    2.10
   8   0  -7   -0.10    1.50
  -8   0   7    3.10    2.20
  -8   0   7    4.10    1.80
   8   0  -7    1.70    2.60
  -6   0   7    5.30    2.80
  -6   0   7    1.10    1.30
   6   0  -7   -0.10    2.00
  -6   0   7    3.30    1.70
  -6   0   7    2.60    1.20
  -6   0   7    1.00    1.30
  -4   0   7    3.50    1.50
  -4   0   7    1.90    1.80
  -4   0   7    4.10    1.40
  -4   0   7    1.30    1.90
  -4   0   7    3.10    1.20
   2   0  -7    2.50    2.80
  -2   0   7    0.80    1.40
  -2   0   7    0.60    1.60
  -2   0   7    2.80    1.30
  -2   0   7    1.50    1.10
  -2   0   7    2.30    2.10
   2   0  -7    0.70    1.50
  -2   0   7    1.40    2.20
   0   0  -7    1.00    3.10
   0   0   7    0.20    1.40
   0   0   7   -0.20    1.70
   0   0   7    2.90    3.30
   0   0   7    3.00    2.10
   0   0  -7    9.50    2.80
  -2   0  -7    4.20    4.40
  -2   0  -7   -0.80    3.00
   2   0   7    1.20    2.60
   2   0   7    5.60    2.40
   2   0   7   -0.50    2.30
   2   0   7   -0.30    3.70
   4   0   7    1.50    2.50
   4   0   7    2.50    3.30
  -4   0  -7    1.90    4.00
   4   0   7    9.00    4.20
  -4   0  -7   -4.10    5.40
   6   0   7    0.20    5.80
   6   0   7    3.30    3.90
   6   0   7    2.00    3.60
   8   0   7   -7.70    7.80
   8   0   7   -2.40    4.00
   8   0   7    1.70    4.40
  10   0   7   -1.60    5.30
  10   0   7    0.90    5.50
  21  -1  -7  226.48   18.40
  21  -1  -7  230.78   16.00
 -21  -1   7  224.78   19.00
  21   1  -7  203.38   13.70
 -21   1   7  182.48   19.10
  21   1  -7  204.18   15.10
  21   1  -7  204.68   17.90
 -19  -1   7  321.27   21.40
  19  -1  -7  357.56   17.10
  19  -1  -7  320.17   20.50
  19   1  -7  335.67   16.10
 -19   1   7  281.87   21.80
 -19   1   7  317.27   22.30
  19   1  -7  343.07   21.00
  19   1  -7  312.67   16.00
 -17  -1   7  905.11   40.80
  17  -1  -7  980.20   39.80
 -17  -1   7  997.30   39.20
  17  -1  -7  969.40   34.40
  17   1  -7  950.40   33.60
 -17   1   7  998.00   38.30
  17   1  -7  984.20   40.00
 -17   1   7  919.91   42.40
 -15  -1   7 1383.36   51.19
  15  -1  -7 1416.66   51.79
  15  -1  -7 1513.35   46.90
 -15  -1   7 1436.16   53.79
 -15  -1   7 1381.76   52.19
  15  -1  -7 1478.75   58.59
 -15   1   7 1387.86   54.99
  15   1  -7 1414.26   56.79
  15   1  -7 1436.86   45.60
 -15   1   7 1412.86   50.29
  15   1  -7 1398.56   46.00
  15   1  -7 1418.36   52.39
  13  -1  -7  477.45   25.90
  13  -1  -7  481.95   20.90
 -13  -1   7  484.15   22.50
 -13  -1   7  443.56   20.60
  13   1  -7  479.05   24.90
 -13   1   7  465.45   23.70
  13   1  -7  477.55   21.60
 -13   1   7  424.96   21.20
 -13   1   7  480.35   20.00
  11  -1  -7  926.71   34.70
  11  -1  -7  995.80   39.80
 -11  -1   7  976.30   36.50
 -11  -1   7  963.30   35.20
 -11   1   7  989.70   34.20
  11   1  -7 1007.60   36.20
 -11   1   7  948.31   38.30
  11   1  -7  994.80   38.60
   9  -1  -7 1505.25   49.40
  -9  -1   7 1508.55   50.19
   9  -1  -7 1505.25   54.19
  -9  -1   7 1477.45   50.59
  -9   1   7 1481.85   48.50
   9   1  -7 1560.64   52.69
  -9   1   7 1489.75   53.09
   9   1  -7 1521.65   50.79
   7  -1  -7 2167.48   75.19
  -7  -1   7 2236.78   71.59
  -7  -1   7 2462.85   70.79
  -7  -1   7 2287.47   77.09
  -7  -1   7 2382.96   72.59
  -7   1   7 2277.67   70.19
   7   1  -7 2197.08   72.69
  -7   1   7 2260.37   70.09
   7   1  -7 2211.98   73.09
  -7   1   7 2277.87   74.89
  -5  -1   7 3825.12  116.79
  -5  -1   7 3861.61  119.69
  -5  -1   7 3882.81  119.49
  -5  -1   7 3831.32  119.09
  -5  -1   7 3886.01  124.29
  -5   1   7 3866.41  123.59
  -5   1   7 3869.91  119.19
  -5   1   7 3906.71  121.79
  -5   1   7 3872.31  116.29
  -5   1   7 3953.00  116.29
  -3  -1   7 1339.87   46.00
  -3  -1   7 1438.46   47.10
  -3  -1   7 1448.66   50.69
  -3  -1   7 1412.26   47.80
   3   1  -7 1436.06   51.99
  -3   1   7 1427.06   43.30
  -3   1   7 1409.86   49.70
  -3   1   7 1459.15   48.50
   1  -1  -7  969.90   31.80
  -1  -1   7  948.01   36.80
   1  -1  -7  918.41   36.70
  -1  -1   7  929.11   33.00
  -1  -1   7  987.00   35.80
   1   1  -7  974.20   34.00
  -1   1   7  993.50   31.20
   1   1  -7  930.91   38.70
  -1   1   7  993.30   32.80
  -1   1   7 1019.20   36.40
  -1  -1  -7  864.11   30.50
   1  -1   7  856.41   34.30
  -1  -1  -7  872.51   35.20
   1  -1   7  839.62   31.00
   1  -1   7  876.41   34.20
   1  -1   7  934.61   29.20
  -1   1  -7  835.52   37.20
   1   1   7  871.41   29.70
  -1   1  -7  823.52   32.00
   1   1   7  847.92   33.30
   1   1   7  897.01   31.10
   3  -1   7  545.35   22.50
   3  -1   7  499.15   24.70
   3  -1   7  541.85   21.70
  -3  -1  -7  539.15   26.20
  -3  -1  -7  546.65   22.00
   3  -1   7  524.25   25.30
   3   1   7  558.64   22.90
   3   1   7  564.94   21.50
   3   1   7  516.95   24.10
  -3   1  -7  519.15   28.40
  -3   1  -7  558.44   23.60
   5  -1   7  800.82   36.40
  -5  -1  -7  783.22   37.30
   5  -1   7  889.51   33.60
   5  -1   7  819.62   33.20
   5   1   7  877.31   32.30
   5   1   7  890.51   34.50
   5   1   7  856.21   35.50
   7  -1   7  344.27   20.90
   7  -1   7  343.67   19.20
   7  -1   7  395.16   21.30
   7   1   7  322.87   19.20
   7   1   7  404.56   22.40
   7   1   7  349.96   18.40
   9  -1   7   80.59   14.00
   9  -1   7   86.19   11.60
   9  -1   7   74.19   10.40
   9   1   7   96.89   10.60
   9   1   7   88.89   10.70
 -22  -2   7  255.37   20.90
  22  -2  -7  278.97   21.90
  22   2  -7  278.47   21.60
  22   2  -7  254.57   17.20
  20  -2  -7  330.57   19.20
  20  -2  -7  324.57   22.00
 -20  -2   7  321.87   22.70
 -20   2   7  311.77   23.90
  20   2  -7  349.77   18.00
  20   2  -7  361.16   18.60
  20   2  -7  364.56   22.90
 -18  -2   7  889.21   39.80
  18  -2  -7  925.31   35.00
  18  -2  -7  894.81   39.00
  18   2  -7  862.71   33.70
  18   2  -7  939.61   33.50
  18   2  -7  967.10   40.40
 -18   2   7  878.91   42.50
 -18   2   7  948.51   37.40
 -16  -2   7  810.82   34.90
  16  -2  -7  743.83   33.00
  16  -2  -7  803.22   29.80
 -16  -2   7  864.21   34.50
  16   2  -7  769.42   33.90
 -16   2   7  794.62   37.60
  16   2  -7  770.32   29.00
 -16   2   7  807.32   32.00
  14  -2  -7  796.72   28.70
  14  -2  -7  820.32   37.70
  14  -2  -7  802.42   32.10
 -14  -2   7  829.22   32.90
 -14  -2   7  800.02   33.50
 -14   2   7  836.22   32.70
 -14   2   7  788.22   36.20
  14   2  -7  761.72   28.30
  14   2  -7  822.32   36.20
 -14   2   7  791.32   30.60
  14   2  -7  834.92   33.70
 -12  -2   7 2001.30   63.79
  12  -2  -7 1934.81   69.09
  12  -2  -7 1850.81   61.99
 -12  -2   7 1899.51   63.79
  12  -2  -7 1588.54   57.59
 -12   2   7 1819.72   67.39
 -12   2   7 1883.21   63.69
  12   2  -7 1969.40   66.59
 -12   2   7 1865.71   60.79
  12   2  -7 1952.40   64.29
  12   2  -7 1715.93   58.29
  10  -2  -7 1868.71   61.79
 -10  -2   7 1809.72   62.79
 -10  -2   7 1889.81   63.79
  10  -2  -7 1988.00   68.59
  10   2  -7 1973.10   65.49
  10   2  -7 1921.41   64.29
 -10   2   7 1902.01   58.69
 -10   2   7 1906.11   60.79
 -10   2   7 1909.41   67.99
  10   2  -7 1936.21   58.99
  -8  -2   7 2136.49   69.89
  -8  -2   7 2137.39   73.49
  -8  -2   7 2162.68   68.09
   8  -2  -7 2200.18   73.79
  -8  -2   7 2121.79   66.89
   8   2  -7 2170.98   70.09
   8   2  -7 2104.79   70.19
  -8   2   7 2109.29   66.09
  -8   2   7 2191.08   73.79
   8   2  -7 2195.38   66.59
  -8   2   7 2028.50   66.99
  -6  -2   7 1440.06   48.50
  -6  -2   7 1461.35   48.40
  -6  -2   7 1483.05   52.69
  -6  -2   7 1487.35   49.50
  -6   2   7 1473.55   51.69
  -6   2   7 1485.95   52.49
   6   2  -7 1465.25   47.30
  -6   2   7 1416.16   47.70
  -4  -2   7  894.61   32.30
  -4  -2   7  848.02   32.20
  -4  -2   7  923.01   35.30
  -4  -2   7  878.71   31.60
   4   2  -7  869.31   36.10
  -4   2   7  992.10   35.70
  -4   2   7  896.31   33.80
  -4   2   7  900.21   32.00
  -2  -2   7 1553.94   53.09
  -2  -2   7 1558.34   55.09
  -2  -2   7 1538.75   53.09
  -2  -2   7 1588.24   51.69
  -2   2   7 1560.64   52.99
  -2   2   7 1525.85   54.59
   2   2  -7 1511.35   56.99
   2   2  -7 1585.44   52.39
  -2   2   7 1560.74   53.19
   0  -2   7 1384.56   46.60
   0  -2   7 1368.16   49.00
   0  -2  -7 1367.46   48.60
   0  -2   7 1327.27   49.40
   0  -2  -7 1299.97   43.40
   0   2   7 1398.96   46.20
   0   2   7 1387.76   47.70
   0   2   7 1359.56   42.70
   0   2  -7 1345.07   47.50
  -2  -2  -7 1100.99   42.10
   2  -2   7 1117.69   36.60
   2  -2   7 1130.79   43.10
   2  -2   7 1126.99   40.20
  -2  -2  -7 1103.89   37.80
   2  -2   7 1087.99   42.80
   2   2   7 1128.09   41.10
   2   2   7 1122.99   37.20
   2   2   7 1099.79   39.90
  -2   2  -7 1076.29   47.20
  -2   2  -7 1127.09   41.30
  -4  -2  -7  664.53   30.20
   4  -2   7  677.03   30.90
   4  -2   7  683.83   28.30
  -4  -2  -7  711.23   26.60
   4  -2   7  682.63   26.40
   4   2   7  644.34   28.70
   4   2   7  653.03   25.60
   4   2   7  715.73   29.00
   6  -2   7  449.56   22.10
  -6  -2  -7  396.76   23.70
   6  -2   7  448.76   24.50
   6  -2   7  439.96   21.70
   6   2   7  458.05   23.50
   6   2   7  421.16   19.70
   6   2   7  443.76   21.50
   8  -2   7  312.27   19.60
   8  -2   7  329.57   21.30
   8  -2   7  344.67   21.60
   8   2   7  346.47   18.50
   8   2   7  325.57   18.60
  10  -2   7  195.28   17.10
  10  -2   7  190.88   16.70
  10   2   7  208.98   15.30
  10   2   7  177.48   14.70
 -21  -3   7   20.50    8.10
  21  -3  -7   26.70   10.60
  21  -3  -7    8.10    8.30
  21   3  -7   26.90    8.80
  21   3  -7   22.80    7.10
 -21   3   7    9.40    9.40
  19  -3  -7   31.40    7.90
 -19  -3   7   22.80    7.40
  19  -3  -7   25.30    7.70
 -19   3   7    7.40    6.90
  19   3  -7   18.20    6.00
  19   3  -7   35.10    8.60
 -19   3   7   19.00    7.70
  17  -3  -7   15.90    5.50
 -17  -3   7   19.80    6.30
  17  -3  -7   14.20    5.40
 -17   3   7   10.50    5.30
  17   3  -7   14.30    5.60
  17   3  -7   26.50    5.40
 -17   3   7    9.80    6.00
 -15  -3   7   22.60    6.50
  15  -3  -7   14.70    4.80
 -15  -3   7   30.00    6.50
  15  -3  -7   25.00    5.50
  15   3  -7   24.70    8.20
 -15   3   7   26.20    7.50
  15   3  -7   18.30    5.40
 -15   3   7   26.10    5.20
  15   3  -7   24.60    4.90
  13  -3  -7  213.88   11.70
  13  -3  -7  212.88   12.60
  13  -3  -7  227.48   18.00
 -13  -3   7  209.28   13.10
 -13  -3   7  234.88   14.30
  13   3  -7  207.68   11.90
  13   3  -7  254.87   16.60
 -13   3   7  225.78   13.30
 -13   3   7  224.38   11.90
  13   3  -7  211.28   14.00
 -13   3   7  222.08   10.30
 -13   3   7  232.88   17.20
 -11  -3   7   67.79    7.60
 -11  -3   7   58.89    6.20
  11  -3  -7   66.89   10.60
  11  -3  -7   54.69    5.60
  11  -3  -7   53.69    5.10
 -11   3   7   65.19   10.10
  11   3  -7   55.69    6.80
 -11   3   7   68.89    5.00
  11   3  -7   66.49    8.20
 -11   3   7   62.29    5.20
  11   3  -7   58.69    5.70
 -11   3   7   68.59    6.90
   9  -3  -7  141.69    7.70
   9  -3  -7  149.59    7.80
  -9  -3   7  140.59    8.20
   9  -3  -7  140.99   12.40
  -9  -3   7  149.49   11.30
  -9  -3   7  124.29    9.50
  -9  -3   7  141.39    7.70
  -9   3   7  156.18    8.50
   9   3  -7  143.19    9.80
   9   3  -7  143.19    8.20
   9   3  -7  138.19    9.90
  -9   3   7  144.69   12.60
  -9   3   7  148.49    7.00
  -7  -3   7  174.38   10.70
  -7  -3   7  168.98    9.80
   7  -3  -7  171.28    6.90
  -7  -3   7  164.28   11.70
  -7  -3   7  167.88    9.60
  -7   3   7  165.38    6.30
   7   3  -7  166.68    9.20
   7   3  -7  141.39    9.90
   7   3  -7  162.28    9.10
  -7   3   7  175.28   13.30
  -7   3   7  160.48    9.30
  -5  -3   7   42.10    5.80
  -5  -3   7   29.20    5.40
  -5  -3   7   57.29    5.30
  -5  -3   7   36.80    5.40
   5   3  -7   41.30    3.10
  -5   3   7   41.40    7.50
  -5   3   7   43.20    5.30
   5   3  -7   39.10    4.80
  -5   3   7   42.90    4.80
  -3  -3   7  315.37   16.90
  -3  -3   7  322.07   16.10
  -3  -3   7  333.67   15.20
  -3  -3   7  328.27   16.00
   3   3  -7  338.47   15.90
  -3   3   7  313.47   15.10
   3   3  -7  308.57   18.60
  -3   3   7  298.77   15.10
  -3   3   7  313.47   18.20
  -1  -3   7  446.46   19.70
  -1  -3   7  447.96   21.10
  -1  -3   7  455.35   21.70
   1   3  -7  484.25   25.30
  -1   3   7  476.75   19.60
  -1   3   7  450.05   20.60
   1   3  -7  452.35   20.60
   1  -3   7   91.49    9.50
   1  -3   7   86.79    8.60
  -1  -3  -7   73.69    7.70
  -1  -3  -7   90.29    5.70
   1  -3   7   92.09    7.70
  -1   3  -7   85.89    8.70
   1   3   7   86.29    8.70
   1   3   7   91.89    8.10
   1   3   7   88.49    7.20
   1   3   7   84.69    4.90
  -1   3  -7   76.59   12.10
  -3  -3  -7   11.70    4.40
   3  -3   7    5.30    3.20
  -3  -3  -7    7.70    3.30
   3  -3   7    8.30    3.80
   3  -3   7    7.50    3.70
   3   3   7    5.30    3.40
   3   3   7    5.20    4.20
   3   3   7   13.40    5.30
   3   3   7    7.00    2.60
   5  -3   7   35.60    7.80
  -5  -3  -7   50.79    8.40
   5  -3   7   51.59    7.90
   5  -3   7   52.79    7.10
   5   3   7   37.90    5.50
  -5   3  -7   48.60    5.80
   5   3   7   36.20    6.00
   5   3   7   49.90    9.10
   7  -3   7   40.20    8.20
   7  -3   7   40.40    8.70
   7  -3   7   43.30    8.10
  -7  -3  -7   39.70    9.10
  -7   3  -7   29.70    6.10
   7   3   7   30.90    5.90
   7   3   7   39.60    6.70
   9  -3   7   15.20    6.50
   9  -3   7   22.40    7.60
   9   3   7   12.40    5.40
   9   3   7    8.90    5.30
   9   3   7    6.00    7.20
  20  -4  -7  299.37   21.10
  20  -4  -7  294.47   21.40
 -20  -4   7  270.77   20.40
  20   4  -7  244.78   17.20
  20   4  -7  261.37   20.50
 -20   4   7  269.17   24.30
  18  -4  -7  565.54   27.00
 -18  -4   7  538.05   28.20
  18  -4  -7  531.25   28.50
  18   4  -7  591.04   30.00
 -18   4   7  551.44   26.00
  18   4  -7  563.54   25.70
 -18   4   7  550.54   33.40
 -16  -4   7 1253.97   49.50
  16  -4  -7 1234.98   49.30
  16  -4  -7 1387.16   48.30
  16   4  -7 1280.97   47.40
 -16   4   7 1296.07   46.80
  16   4  -7 1284.97   51.09
 -16   4   7 1283.97   56.29
 -14  -4   7  817.12   33.70
  14  -4  -7  820.82   33.50
  14  -4  -7  872.01   33.10
 -14  -4   7  843.32   35.60
 -14   4   7  812.42   30.70
 -14   4   7  829.02   42.70
  14   4  -7  879.01   38.00
  14   4  -7  791.32   32.50
 -14   4   7  836.52   31.50
 -14   4   7  799.02   40.00
  14   4  -7  828.42   35.50
  12  -4  -7  952.20   34.90
  12  -4  -7  957.90   35.20
 -12  -4   7  919.01   37.40
  12  -4  -7  989.30   42.90
  12   4  -7  943.21   37.80
 -12   4   7  943.41   43.10
  12   4  -7  947.31   38.40
 -12   4   7  912.01   35.30
  12   4  -7  864.41   35.10
 -12   4   7  936.21   33.30
 -12   4   7  955.60   33.90
  10  -4  -7 1622.24   61.19
 -10  -4   7 1620.04   56.79
  10  -4  -7 1567.54   53.59
 -10  -4   7 1632.94   58.39
  10  -4  -7 1539.75   52.69
 -10  -4   7 1623.44   52.99
  10   4  -7 1625.74   57.09
  10   4  -7 1578.94   56.09
 -10   4   7 1625.04   53.99
 -10   4   7 1612.34   51.69
  10   4  -7 1500.45   54.39
 -10   4   7 1631.24   54.49
 -10   4   7 1551.54   62.39
  -8  -4   7 1055.69   37.30
  -8  -4   7 1018.70   39.30
  -8  -4   7 1046.50   38.20
  -8  -4   7 1060.09   40.90
   8  -4  -7 1063.99   42.30
   8  -4  -7 1017.90   36.80
   8   4  -7  963.10   37.50
   8   4  -7 1034.60   39.50
  -8   4   7 1035.00   37.80
  -8   4   7 1052.59   37.30
   8   4  -7 1046.70   37.30
  -8   4   7 1037.30   33.80
  -8   4   7 1106.29   45.20
  -6  -4   7 1093.79   39.60
  -6  -4   7 1097.49   41.40
  -6  -4   7 1050.19   38.60
  -6  -4   7 1103.49   40.50
  -6   4   7 1105.69   39.20
   6   4  -7 1072.09   36.30
  -6   4   7  993.00   44.40
   6   4  -7 1026.20   39.00
  -4  -4   7 1223.08   45.20
  -4  -4   7 1183.38   43.70
  -4  -4   7 1210.78   45.30
  -4  -4   7 1236.88   46.00
   4   4  -7 1244.58   38.90
   4   4  -7 1279.47   45.20
  -4   4   7 1249.57   44.50
   4   4  -7 1232.98   39.70
   4   4  -7 1204.98   48.30
  -4   4   7 1246.68   43.20
  -4   4   7 1275.67   50.19
  -2  -4   7  691.33   29.00
  -2  -4   7  634.74   28.70
  -2  -4   7  711.33   29.70
  -2  -4   7  690.03   27.60
  -2   4   7  712.33   25.90
  -2   4   7  684.93   28.20
  -2   4   7  640.54   31.10
   2   4  -7  737.43   29.60
   2   4  -7  659.63   32.30
   0  -4   7  682.23   29.50
   0  -4  -7  683.73   22.30
   0  -4   7  682.33   29.40
   0  -4   7  676.63   27.80
   0   4   7  650.13   28.70
   0   4  -7  660.93   28.70
   0   4   7  659.43   25.10
   2  -4   7  601.34   26.20
  -2  -4  -7  589.84   21.90
   2  -4   7  574.94   27.70
   2   4   7  617.54   27.00
  -2   4  -7  562.34   20.60
   2   4   7  644.14   28.30
   2   4   7  588.84   23.70
   2   4   7  615.64   21.50
   4  -4   7  441.86   24.40
   4  -4   7  459.25   19.30
  -4  -4  -7  443.66   21.10
   4  -4   7  456.35   22.80
  -4  -4  -7  489.15   19.70
   4   4   7  449.76   18.70
   4   4   7  453.55   24.20
   4   4   7  480.35   23.90
  -4   4  -7  448.06   18.40
   4   4   7  449.26   19.40
  -6  -4  -7  433.66   22.20
   6  -4   7  479.75   26.00
   6  -4   7  444.16   21.60
   6  -4   7  481.65   24.60
   6   4   7  440.86   20.00
   6   4   7  468.85   20.00
  -6   4  -7  428.66   19.80
   6   4   7  429.86   25.20
  -8  -4  -7  218.08   18.10
   8  -4   7  223.98   18.30
   8  -4   7  243.98   18.40
   8  -4   7  234.08   17.80
   8   4   7  241.28   14.10
   8   4   7  201.28   18.20
   8   4   7  263.67   15.20
  -8   4  -7  221.18   15.20
  21  -5  -7  330.77   24.90
  21   5  -7  296.67   23.60
  21   5  -7  283.37   21.00
  19  -5  -7  509.75   29.90
  19  -5  -7  538.55   29.50
 -19   5   7  576.04   36.10
  19   5  -7  541.85   27.70
  19   5  -7  581.14   30.70
  17  -5  -7  674.53   30.60
  17  -5  -7  637.94   31.30
 -17   5   7  643.14   37.60
  17   5  -7  653.83   32.40
 -17   5   7  658.93   28.40
  17   5  -7  581.94   28.60
  15  -5  -7  466.75   24.10
  15  -5  -7  487.25   24.20
 -15   5   7  483.05   31.00
  15   5  -7  480.35   23.80
 -15   5   7  461.65   21.70
 -15   5   7  474.75   21.70
  15   5  -7  477.95   25.40
  13  -5  -7  839.82   34.50
 -13  -5   7  854.01   37.00
 -13  -5   7  896.31   37.50
  13  -5  -7  899.41   35.40
 -13   5   7  865.51   33.70
  13   5  -7  891.91   38.30
 -13   5   7  869.61   32.40
 -13   5   7  843.02   42.50
  13   5  -7  823.22   35.10
 -13   5   7  852.61   33.60
  13   5  -7  899.01   37.20
 -11  -5   7 2084.19   72.49
  11  -5  -7 1999.60   76.19
  11  -5  -7 2017.00   68.09
 -11  -5   7 2073.39   68.09
 -11  -5   7 2027.40   71.79
  11  -5  -7 2131.89   69.99
 -11   5   7 2037.20   68.09
 -11   5   7 2078.79   66.39
  11   5  -7 2062.39   72.09
 -11   5   7 2079.69   69.39
 -11   5   7 1985.80   78.99
  11   5  -7 2043.60   71.89
  11   5  -7 1964.30   70.69
  -9  -5   7 1700.13   57.49
   9  -5  -7 1641.34   54.99
   9  -5  -7 1653.33   57.69
  -9  -5   7 1693.33   60.09
  -9  -5   7 1681.83   60.39
   9  -5  -7 1724.23   63.69
   9   5  -7 1610.44   59.69
  -9   5   7 1700.43   56.09
   9   5  -7 1691.73   58.19
  -9   5   7 1781.32   54.19
  -9   5   7 1632.34   58.29
   9   5  -7 1551.04   58.79
  -9   5   7 1649.83   66.59
  -7  -5   7  715.23   28.90
  -7  -5   7  718.33   29.40
  -7  -5   7  702.03   30.30
   7  -5  -7  709.33   24.60
   7  -5  -7  687.43   28.50
  -7  -5   7  705.43   30.50
   7   5  -7  663.03   29.40
  -7   5   7  739.03   26.50
  -7   5   7  717.73   35.80
  -7   5   7  733.93   29.60
   7   5  -7  701.73   27.30
  -5  -5   7 1340.67   49.30
   5  -5  -7 1337.57   40.80
  -5  -5   7 1238.68   48.30
  -5  -5   7 1353.96   47.20
  -5  -5   7 1312.27   48.70
   5  -5  -7 1301.47   40.80
  -5   5   7 1257.77   53.79
  -5   5   7 1321.77   45.60
   5   5  -7 1323.37   43.80
  -5   5   7 1305.07   47.90
   5   5  -7 1295.67   48.60
  -3  -5   7 1474.25   54.69
  -3  -5   7 1477.05   55.09
  -3  -5   7 1436.46   54.09
  -3  -5   7 1458.15   52.79
   3   5  -7 1509.95   58.39
  -3   5   7 1582.54   49.99
   3   5  -7 1486.75   47.80
   3   5  -7 1509.65   55.09
  -3   5   7 1502.15   53.99
  -3   5   7 1532.85   59.79
   3   5  -7 1492.05   49.20
  -1  -5   7  976.90   39.30
  -1  -5   7 1075.49   42.60
  -1  -5   7 1058.29   41.20
   1  -5  -7 1075.19   32.90
   1  -5  -7 1054.39   33.00
  -1  -5   7 1038.10   41.70
  -1   5   7 1047.30   41.00
   1   5  -7 1121.49   42.90
  -1   5   7  983.40   35.00
   1   5  -7 1007.50   34.30
   1  -5   7 1113.39   41.70
   1  -5   7 1069.49   42.70
  -1  -5  -7 1108.09   35.70
  -1   5  -7 1066.99   44.20
   1   5   7 1073.79   42.80
  -1   5  -7  994.90   35.40
   1   5   7 1080.39   36.50
  -3  -5  -7  527.75   20.00
   3  -5   7  479.25   25.10
   3  -5   7  482.75   23.90
   3   5   7  479.05   18.70
   3   5   7  485.25   19.00
   3   5   7  483.85   25.30
  -3   5  -7  455.35   19.20
   5  -5   7  160.18   13.30
   5  -5   7  169.58   14.70
  -5  -5  -7  163.18   11.40
  -5   5  -7  138.69   10.60
   5   5   7  182.78   15.30
   5   5   7  153.48   10.10
   5   5   7  161.78    9.20
   7  -5   7  255.07   18.50
   7  -5   7  224.28   16.40
   7  -5   7  237.08   17.70
  -7  -5  -7  222.88   15.60
  -7   5  -7  216.18   14.80
   7   5   7  256.87   19.90
   7   5   7  235.18   14.10
   7   5   7  249.38   12.80
   9  -5   7  201.38   28.20
   9  -5   7  213.98   23.30
   9   5   7  248.58   16.10
   9   5   7  227.98   13.60
  -9   5  -7  192.58   16.60
  20  -6  -7   28.30   11.30
  20   6  -7   16.50    7.70
 -20   6   7   -1.90    9.80
  20   6  -7   17.30    9.20
  18  -6  -7   55.99   12.70
  18  -6  -7   87.49   13.20
 -18   6   7   50.69   13.20
 -18   6   7   69.79   10.80
  18   6  -7   49.50   10.10
  18   6  -7   36.40    8.60
  16  -6  -7   35.50    8.50
  16  -6  -7   40.40   10.60
  16   6  -7   31.20    8.00
 -16   6   7   16.20    9.50
 -16   6   7   30.60    7.00
  16   6  -7   36.60    8.60
 -16   6   7   37.20    7.30
  14  -6  -7  102.69   12.40
  14  -6  -7   94.79   10.90
 -14  -6   7   84.79    9.90
 -14   6   7   98.49    9.10
  14   6  -7   91.09   12.30
  14   6  -7   91.79   11.20
 -14   6   7   88.69   15.40
 -14   6   7   94.79   10.30
  12  -6  -7  133.19   12.80
 -12  -6   7  148.99   15.50
 -12  -6   7  139.89   11.70
  12  -6  -7  119.49   10.50
 -12  -6   7  121.79   10.50
  12   6  -7  101.69   11.40
 -12   6   7  116.99   17.40
  12   6  -7  130.29   12.20
  12   6  -7   94.89   12.60
 -12   6   7  105.79    8.50
 -12   6   7  109.59    9.30
 -12   6   7  119.69   10.40
  10  -6  -7    4.80    5.20
  10  -6  -7    7.50    3.80
 -10  -6   7    8.90    4.70
 -10  -6   7    9.40    6.60
 -10  -6   7    7.60    4.10
  10   6  -7   17.50    6.20
 -10   6   7    6.00    4.50
  10   6  -7    6.50    5.20
 -10   6   7   12.10    3.60
  10   6  -7    6.80    4.60
 -10   6   7    9.20    2.90
 -10   6   7    4.30    6.40
  -8  -6   7   56.19    8.70
  -8  -6   7   46.90    6.90
   8  -6  -7   69.99    9.10
  -8  -6   7   55.19    7.80
   8  -6  -7   52.09    5.60
  -8  -6   7   55.59    8.90
   8   6  -7   53.09    8.50
  -8   6   7   52.79    5.30
  -8   6   7   51.89   10.70
  -8   6   7   50.79    4.80
   8   6  -7   45.70    7.40
  -8   6   7   67.49    8.90
  -6  -6   7    6.40    4.90
   6  -6  -7    4.60    2.60
   6  -6  -7   -2.90    4.40
   6  -6  -7    5.00    2.50
  -6  -6   7    5.40    3.30
  -6  -6   7    4.90    3.40
  -6  -6   7    5.70    5.10
   6   6  -7    7.80    5.00
  -6   6   7    1.20    3.50
  -6   6   7    4.20    2.10
   6   6  -7   17.00    4.50
  -6   6   7    7.20    6.40
  -4  -6   7    2.60    2.90
   4  -6  -7   10.50    2.50
  -4  -6   7    3.00    3.10
  -4  -6   7    2.60    5.50
   4  -6  -7    2.90    2.00
  -4  -6   7    7.20    5.70
   4   6  -7    6.50    5.20
  -4   6   7    9.00    4.30
   4   6  -7   13.30    6.50
  -4   6   7   24.60    8.40
   4   6  -7   13.80    3.70
   4   6  -7    9.40    4.10
  -4   6   7    3.50    2.00
  -4   6   7    5.30    2.50
   2  -6  -7   33.70    3.70
  -2  -6   7   34.70    8.50
  -2  -6   7   36.90    8.10
  -2  -6   7   24.10    5.50
   2  -6  -7   26.90    3.20
  -2  -6   7   34.80    6.20
   2   6  -7   26.60    6.50
   2   6  -7   31.80    5.50
  -2   6   7   32.80    3.30
  -2   6   7   21.80    5.60
  -2   6   7   27.40    3.00
  -2   6   7   19.50    7.00
   0  -6   7    7.80    3.90
   0  -6   7   -1.10    3.20
   0  -6  -7    3.80    2.10
   0  -6  -7    1.00    2.70
   0   6   7   -0.70    4.00
   0   6  -7    8.30    5.30
   0   6  -7    5.60    3.60
   0   6   7    4.10    1.50
   2  -6   7   15.70    5.70
  -2  -6  -7   19.70    4.30
   2  -6   7   13.40    4.80
  -2   6  -7   14.10    4.60
   2   6   7   15.40    6.30
  -2   6  -7   11.40    6.10
   2   6   7   16.20    2.20
   4  -6   7    7.00    4.80
   4  -6   7   12.80    5.60
   4   6   7   11.30    6.20
   4   6   7   11.40    2.50
   4   6   7    8.30    3.70
  -4   6  -7   -1.30    4.40
   6  -6   7   18.20    6.50
   6  -6   7   19.90    7.00
   6   6   7   14.40    7.00
  -6   6  -7    8.70    6.20
   6   6   7   20.50    3.90
   6   6   7   12.60    4.70
   8  -6   7   31.10   10.10
   8  -6   7   25.60    9.10
  -8   6  -7   23.80    8.20
   8   6   7   24.70    8.60
   8   6   7   39.70    7.20
  19  -7  -7  199.58   21.00
  19   7  -7  187.68   18.90
  19   7  -7  233.18   20.20
 -19   7   7  126.49   21.20
 -17  -7   7  317.17   20.80
  17  -7  -7  273.87   22.10
  17   7  -7  278.37   21.30
 -17   7   7  276.07   27.40
 -17   7   7  282.57   19.20
  17   7  -7  302.77   21.50
 -17   7   7  288.27   18.90
  15  -7  -7  243.38   19.10
 -15  -7   7  256.07   18.00
  15  -7  -7  311.67   21.70
  15   7  -7  267.77   19.60
 -15   7   7  282.67   26.50
 -15   7   7  282.67   18.10
 -15   7   7  275.67   16.70
  15   7  -7  235.38   18.90
  13  -7  -7  495.65   26.00
 -13  -7   7  536.55   25.50
 -13  -7   7  532.45   26.40
  13  -7  -7  568.64   28.60
  13   7  -7  515.35   28.10
 -13   7   7  509.25   26.20
  13   7  -7  546.15   28.50
 -13   7   7  511.65   34.50
 -13   7   7  523.85   23.40
  11  -7  -7  781.72   32.80
  11  -7  -7  871.91   36.20
 -11  -7   7  767.82   33.40
 -11  -7   7  751.82   33.60
  11   7  -7  788.32   36.40
 -11   7   7  741.33   34.10
 -11   7   7  788.72   30.10
 -11   7   7  796.62   43.70
 -11   7   7  737.63   30.20
  11   7  -7  826.22   37.00
  11   7  -7  810.32   36.20
   9  -7  -7 1055.49   40.90
   9  -7  -7 1170.68   45.60
  -9  -7   7 1096.89   43.90
  -9  -7   7 1108.79   43.60
  -9  -7   7 1101.99   43.60
  -9   7   7 1090.29   39.00
  -9   7   7 1069.09   53.29
  -9   7   7 1137.59   45.50
   9   7  -7 1243.68   45.40
   9   7  -7 1092.89   46.20
  -9   7   7 1134.49   39.30
   7  -7  -7  670.73   30.70
  -7  -7   7  694.13   30.90
   7  -7  -7  620.74   25.00
  -7  -7   7  689.23   29.30
   7  -7  -7  612.54   25.30
  -7  -7   7  626.64   31.50
  -7  -7   7  673.73   29.10
  -7   7   7  630.64   23.70
   7   7  -7  606.24   31.20
  -7   7   7  635.84   30.30
  -7   7   7  659.33   37.90
   7   7  -7  714.53   29.20
   5  -7  -7  197.28   15.90
   5  -7  -7  179.18   10.30
  -5  -7   7  200.48   16.80
  -5  -7   7  203.68   13.60
  -5  -7   7  205.28   13.80
   5  -7  -7  196.28   10.60
  -5  -7   7  189.48   16.00
  -5   7   7  187.88    8.60
  -5   7   7  189.68   14.70
   5   7  -7  240.18   13.70
   5   7  -7  194.48   15.80
  -5   7   7  190.58   18.50
  -5   7   7  205.48   10.60
   5   7  -7  186.98   13.40
  -3  -7   7  678.03   30.40
   3  -7  -7  721.33   25.10
  -3  -7   7  705.53   34.00
  -3  -7   7  686.23   30.50
   3  -7  -7  686.93   25.00
  -3   7   7  728.73   38.60
  -3   7   7  676.53   32.30
   3   7  -7  698.63   34.10
   3   7  -7  685.53   29.90
   1  -7  -7  901.61   30.70
  -1  -7   7  900.41   37.10
  -1  -7   7  892.21   37.40
   1  -7  -7  920.71   31.10
  -1  -7   7  873.71   39.80
   1   7  -7  877.01   35.40
  -1   7   7  924.81   39.30
  -1   7   7  831.12   42.70
   1   7  -7  856.01   40.10
   1  -7   7  522.55   26.70
  -1  -7  -7  551.84   21.40
   1  -7   7  547.65   26.60
  -1  -7  -7  500.45   19.90
  -1   7  -7  524.85   24.00
  -1   7  -7  503.25   29.60
   1   7   7  537.95   28.30
   3  -7   7  324.87   20.70
   3  -7   7  276.77   19.00
   3   7   7  331.77   21.40
  -3   7  -7  320.67   23.30
  -3   7  -7  295.27   17.30
   5  -7   7  172.98   15.40
   5  -7   7  157.88   15.20
  -5   7  -7  143.89   13.40
   5   7   7  137.19   16.30
   5   7   7  171.08   11.30
 -16  -8   7  807.92   36.50
  16  -8  -7  794.42   39.70
  16   8  -7  876.61   40.70
  16   8  -7  766.92   39.10
 -16   8   7  794.02   49.10
 -16   8   7  805.32   37.80
  14  -8  -7  673.83   34.90
 -14  -8   7  760.12   33.70
 -14   8   7  747.53   34.90
  14   8  -7  724.03   37.00
 -14   8   7  753.42   31.90
 -14   8   7  764.42   45.70
  14   8  -7  784.02   37.30
 -12  -8   7 1025.60   42.30
  12  -8  -7  995.70   41.80
 -12  -8   7 1017.20   41.00
 -12   8   7 1005.70   43.20
 -12   8   7 1010.60   42.00
  12   8  -7 1011.40   45.70
  12   8  -7 1038.50   44.60
 -12   8   7  998.90   38.20
 -12   8   7  949.21   52.89
 -10  -8   7 1019.40   41.50
  10  -8  -7  958.80   40.70
 -10  -8   7 1065.69   43.00
 -10   8   7 1053.49   38.30
 -10   8   7 1069.99   54.19
 -10   8   7 1072.29   44.60
  10   8  -7 1138.89   46.30
 -10   8   7 1076.89   38.90
  10   8  -7 1021.30   46.00
  -8  -8   7  720.23   32.30
  -8  -8   7  722.63   31.60
   8  -8  -7  672.63   29.60
  -8   8   7  782.02   35.50
   8   8  -7  808.12   34.60
   8   8  -7  743.03   36.10
  -8   8   7  722.63   27.10
  -8   8   7  707.23   41.90
   6  -8  -7  957.60   38.40
   6  -8  -7 1036.10   38.50
  -6  -8   7 1093.29   43.20
  -6  -8   7 1076.99   42.20
  -6   8   7 1096.39   37.80
  -6   8   7 1106.69   46.40
  -6   8   7 1049.89   35.70
   6   8  -7 1101.89   43.50
   6   8  -7 1031.30   46.50
  -6   8   7 1087.99   53.29
   6   8  -7 1184.38   43.70
   4  -8  -7 1631.14   54.19
  -4  -8   7 1627.34   59.89
  -4  -8   7 1603.14   59.09
  -4   8   7 1593.54   62.39
  -4   8   7 1639.94   70.59
   4   8  -7 1573.54   59.89
   4   8  -7 1527.75   63.59
   4   8  -7 1725.53   58.69
  -2  -8   7  758.02   34.00
  -2  -8   7  787.12   34.70
   2  -8  -7  816.22   29.10
   2  -8  -7  799.12   29.40
  -2   8   7  725.43   36.30
  -2   8   7  841.42   43.70
   2   8  -7  793.22   34.90
   2   8  -7  773.72   38.80
   0  -8  -7  502.45   22.30
   0  -8   7  509.55   25.80
   0  -8   7  473.15   25.20
   0  -8  -7  506.55   23.40
   0   8   7  447.06   26.70
   0   8  -7  496.35   25.20
   0   8  -7  464.65   29.40
   0   8   7  484.95   31.70
   2  -8   7  663.03   32.20
   2  -8   7  643.74   31.40
  -2   8  -7  609.84   34.80
   2   8   7  623.24   33.20
  -2   8  -7  620.34   29.60
   4  -8   7  418.06   24.80
   4  -8   7  389.86   24.50
  -4   8  -7  369.26   22.60
  -4   8  -7  436.76   29.80
   4   8   7  416.76   26.70
 -15  -9   7   89.99   11.10
  15  -9  -7   60.59   14.00
 -15   9   7   32.90   16.00
 -15   9   7   66.29   12.10
  15   9  -7   75.99   13.20
  15   9  -7   55.09   12.90
 -13  -9   7    4.50    6.20
  13  -9  -7   18.40    8.80
 -13  -9   7   25.40    6.40
 -13   9   7   25.70    8.60
  13   9  -7   17.60    9.70
 -13   9   7   33.80   14.10
 -11  -9   7   64.59   10.40
 -11  -9   7   70.59    9.40
  11  -9  -7   63.99   11.10
 -11   9   7   72.59   10.20
 -11   9   7   80.89   16.40
 -11   9   7   72.79    9.20
  11   9  -7   73.59   13.70
 -11   9   7   61.99   11.50
  -9  -9   7  100.69   10.60
   9  -9  -7  104.69   11.80
  -9  -9   7   84.19    9.70
   9   9  -7  105.89   15.00
  -9   9   7  112.39   13.80
  -9   9   7   94.19    9.00
  -9   9   7  107.19   19.00
   7  -9  -7   97.89   10.40
  -7  -9   7  117.39   11.90
  -7  -9   7   98.29   10.00
   7   9  -7  112.59   15.00
   7   9  -7   86.59   13.90
   7   9  -7  117.79   13.30
  -7   9   7   78.09   12.70
  -7   9   7   89.99    7.00
  -7   9   7  104.59   19.20
  -5  -9   7  194.38   15.30
   5  -9  -7  193.98   12.70
  -5  -9   7  203.78   14.30
  -5   9   7  183.48   17.80
  -5   9   7  179.58   21.10
   5   9  -7  166.58   17.90
   5   9  -7  181.68   18.20
   5   9  -7  180.98   16.90
   3  -9  -7   45.70    7.00
  -3  -9   7   44.30    8.00
  -3  -9   7   61.89    9.80
  -3   9   7   61.19   14.20
   3   9  -7   25.90    9.60
   3   9  -7   50.49   10.70
  -3   9   7   59.19   11.40
  -1  -9   7   58.59    9.70
  -1  -9   7   39.80    8.00
   1   9  -7   66.49   12.20
  -1   9   7   52.19   11.20
  -1   9   7   49.80   13.40
   1   9  -7   45.70   12.40
   1  -9   7  109.49   12.50
   1  -9   7  101.29   12.20
  -1   9  -7   94.39   13.70
  -1   9  -7   95.09   15.50
   1   9   7   76.49   16.70
   1   9   7   90.59   14.20
   3  -9   7   28.30    8.00
   3  -9   7   25.60    7.70
  -3   9  -7   26.20   11.50
  -3   9  -7   30.10   10.50
   3   9   7   32.10    9.90
  12 -10  -7   99.49   14.40
 -12 -10   7  121.49   11.60
 -12 -10   7  118.69   13.70
 -12  10   7   74.09   17.40
 -12  10   7  111.29   15.90
  12  10  -7  111.99   16.50
 -10 -10   7  256.67   16.30
  10 -10  -7  248.18   19.00
 -10 -10   7  260.47   18.70
 -10  10   7  267.17   29.00
  10  10  -7  259.17   23.60
 -10  10   7  244.18   21.30
   8 -10  -7  393.96   22.20
  -8 -10   7  375.86   23.10
  -8 -10   7  410.26   21.40
  -8  10   7  377.26   26.40
  -8  10   7  375.96   32.40
   8  10  -7  399.66   27.90
  -6 -10   7  231.88   17.60
   6 -10  -7  206.38   15.40
  -6 -10   7  202.08   15.00
   6  10  -7  211.18   20.10
   6  10  -7  246.08   22.20
  -6  10   7  223.28   24.80
  -6  10   7  222.18   20.30
  -4 -10   7  217.28   15.90
  -4 -10   7  264.17   18.70
   4 -10  -7  225.68   15.10
   4  10  -7  259.07   23.10
   4  10  -7  259.07   21.10
  -4  10   7  244.08   22.00
  -4  10   7  207.08   26.60
   4  10  -7  267.47   26.20
  -2 -10   7  333.97   22.20
  -2 -10   7  316.47   20.30
  -2  10   7  331.47   29.00
  -2  10   7  358.96   26.10
   2  10  -7  376.16   25.90
   2  10  -7  347.27   27.20
   0 -10   7  259.97   18.80
   0 -10   7  260.37   19.40
   0  10   7  243.68   26.80
   0  10  -7  226.38   23.20
   0  10   7  223.58   21.80
   0  10  -7  246.58   22.60
  22   0  -8  324.87   16.80
  22   0  -8  314.17   22.90
 -22   0   8  321.87   24.60
  20   0  -8  924.91   34.50
  20   0  -8 1028.50   35.40
  20   0  -8  986.00   42.80
 -20   0   8  980.00   45.00
  18   0  -8 1117.79   38.10
 -18   0   8 1134.69   48.50
  18   0  -8 1212.98   38.80
 -18   0   8 1181.88   45.00
  18   0  -8 1169.18   46.50
  16   0  -8 2494.05   90.29
  16   0  -8 2584.24   84.39
 -16   0   8 2219.78   85.59
 -16   0   8 2574.54   82.99
  14   0  -8 4253.07  136.09
 -14   0   8 4259.87  134.79
  14   0  -8 4296.77  141.89
 -14   0   8 4291.87  138.89
 -12   0   8 1789.52   59.69
  12   0  -8 1832.42   65.49
  12   0  -8 1780.72   60.59
 -12   0   8 1793.62   62.89
  10   0  -8 2329.87   78.89
 -10   0   8 2365.66   77.09
 -10   0   8 2302.77   74.19
  10   0  -8 2320.37   75.09
  -8   0   8 3696.83  109.19
  -8   0   8 3652.83  113.49
   8   0  -8 3629.14  114.89
  -8   0   8 3543.05  109.39
  -8   0   8 3655.53  111.29
   8   0  -8 3493.25  111.79
  -8   0   8 3597.04  117.99
  -6   0   8 2070.99   64.79
  -6   0   8 1983.90   69.89
  -6   0   8 1997.80   64.29
  -6   0   8 2078.79   63.69
  -6   0   8 2015.20   63.39
  -4   0   8 1504.15   48.50
  -4   0   8 1554.14   51.49
  -4   0   8 1559.64   55.09
  -4   0   8 1494.85   49.00
  -4   0   8 1592.64   49.00
  -2   0   8 1336.57   42.50
  -2   0   8 1317.97   42.40
  -2   0   8 1312.17   46.30
  -2   0   8 1250.77   47.60
   2   0  -8 1326.57   43.20
  -2   0   8 1407.16   41.50
  -2   0   8 1293.67   43.30
   2   0  -8 1239.88   49.20
   0   0   8 1530.05   47.60
   0   0  -8 1464.85   55.59
   0   0   8 1468.35   52.69
   0   0   8 1468.85   53.09
   0   0  -8 1406.76   49.30
   0   0   8 1470.15   48.20
  -2   0  -8  616.64   31.10
   2   0   8  644.24   24.50
   2   0   8  631.24   28.30
  -2   0  -8  619.84   26.00
   2   0   8  622.64   29.20
   2   0   8  644.84   24.60
   4   0   8  612.04   26.10
   4   0   8  648.64   29.70
   4   0   8  598.04   25.30
   6   0   8  948.41   41.70
   6   0   8 1034.10   39.30
   6   0   8 1040.50   40.70
   8   0   8  427.96   22.70
   8   0   8  437.26   24.60
   8   0   8  415.86   27.60
  23  -1  -8  157.38   17.70
  23  -1  -8  159.08   12.90
 -23  -1   8  122.19   17.40
  23   1  -8  163.38   18.10
  23   1  -8  161.48   13.50
 -23   1   8  127.29   18.20
  21  -1  -8  230.88   14.70
  21  -1  -8  216.38   18.30
 -21  -1   8  182.38   18.20
  21  -1  -8  204.98   12.30
  21   1  -8  234.48   18.60
  21   1  -8  195.98   12.80
 -21   1   8  214.68   19.50
  21   1  -8  210.18   13.20
  19  -1  -8  208.18   16.40
  19  -1  -8  222.68   12.60
 -19  -1   8  225.58   17.60
  19  -1  -8  218.08   10.80
  19   1  -8  207.38   11.50
  19   1  -8  226.78   11.50
  19   1  -8  233.28   17.00
 -19   1   8  234.78   19.20
 -19   1   8  211.58   16.10
  17  -1  -8  370.06   14.70
 -17  -1   8  366.76   19.80
  17  -1  -8  355.56   20.00
  17  -1  -8  340.77   13.30
 -17  -1   8  382.06   21.90
  17   1  -8  341.77   14.10
 -17   1   8  408.26   23.70
  17   1  -8  382.76   21.00
  17   1  -8  364.16   13.70
 -17   1   8  360.86   18.80
  15  -1  -8  199.78   17.80
 -15  -1   8  153.28   12.60
 -15  -1   8  164.88   11.80
  15  -1  -8  164.18   11.90
  15   1  -8  162.38   12.20
 -15   1   8  164.38   13.90
 -15   1   8  168.38   11.00
  15   1  -8  189.58   16.60
  13  -1  -8  159.58   10.50
  13  -1  -8  173.08   14.30
 -13  -1   8  156.08   10.80
 -13  -1   8  145.49   11.10
 -13   1   8  174.88   10.10
  13   1  -8  166.88   13.80
 -13   1   8  173.18   13.10
  13   1  -8  161.28   11.10
  11  -1  -8  545.55   21.30
 -11  -1   8  514.65   22.30
 -11  -1   8  530.85   21.70
  11  -1  -8  524.55   25.70
  11   1  -8  535.25   24.60
 -11   1   8  505.45   24.10
  11   1  -8  545.85   22.40
 -11   1   8  513.55   20.20
   9  -1  -8  965.30   36.80
   9  -1  -8  907.91   31.60
  -9  -1   8  933.91   32.80
  -9  -1   8  916.51   32.80
  -9  -1   8  928.91   37.70
  -9   1   8  942.11   30.90
   9   1  -8  870.21   33.00
   9   1  -8  906.71   34.70
  -9   1   8  929.41   35.60
  -7  -1   8  817.52   27.10
   7  -1  -8  809.52   30.50
  -7  -1   8  809.72   33.30
  -7  -1   8  796.32   28.40
  -7  -1   8  763.82   27.90
  -7  -1   8  801.72   27.50
  -7   1   8  792.62   32.70
  -7   1   8  805.72   30.60
  -7   1   8  783.02   25.70
   7   1  -8  765.62   28.30
  -7   1   8  818.42   27.10
  -7   1   8  797.22   25.80
  -5  -1   8  317.17   13.30
  -5  -1   8  307.07   13.60
  -5  -1   8  331.27   14.20
  -5  -1   8  311.17   17.10
  -5   1   8  311.97   16.70
  -5   1   8  322.67   15.20
  -3  -1   8  519.35   21.00
  -3  -1   8  560.14   24.70
  -3  -1   8  521.65   20.10
  -3  -1   8  558.64   22.40
   3   1  -8  525.55   25.80
  -3   1   8  538.55   23.80
  -3   1   8  562.74   17.60
  -3   1   8  540.55   22.10
   1  -1  -8  559.04   20.50
  -1  -1   8  569.64   21.90
  -1  -1   8  601.34   25.10
  -1  -1   8  548.75   25.40
   1  -1  -8  581.94   26.50
  -1   1   8  547.55   23.50
  -1   1   8  555.74   24.70
  -1   1   8  596.94   19.90
   1   1  -8  589.94   23.20
  -1   1   8  595.94   21.50
   1   1  -8  580.04   28.30
  -1  -1  -8  189.98   11.00
  -1  -1  -8  214.58   15.30
   1  -1   8  218.38   14.40
   1  -1   8  205.18   13.60
   1  -1   8  223.18    9.10
   1  -1   8  195.28   11.00
   1   1   8  192.38    9.70
  -1   1  -8  191.38   12.40
   1   1   8  201.08   12.90
  -1   1  -8  205.98   16.80
   1   1   8  206.68   11.20
   3  -1   8  199.48   11.10
   3  -1   8  182.08   13.70
  -3  -1  -8  184.58   12.20
  -3  -1  -8  202.68   16.10
   3  -1   8  182.48   11.50
   3   1   8  198.78   10.90
   3   1   8  181.68   12.10
   3   1   8  183.48   13.10
   5  -1   8   73.59    8.70
   5  -1   8   71.79   10.00
   5  -1   8   80.99    9.40
   5   1   8   70.59    9.40
   5   1   8   60.89    7.40
   5   1   8   71.59   10.00
   7  -1   8   12.60    5.50
   7  -1   8    6.10    8.50
   7  -1   8    5.00    5.00
   7   1   8    7.90    5.30
   7   1   8   12.50    4.90
   7   1   8    1.80    9.40
   9  -1   8   17.10    7.40
   9  -1   8   31.40    8.40
   9   1   8   21.60    7.30
   9   1   8   22.30    7.10
  22  -2  -8   22.80    9.50
 -22  -2   8   30.70    8.90
  22   2  -8   24.80    7.10
 -22   2   8   33.80   10.60
  22   2  -8   25.60    9.40
 -20  -2   8   51.79   10.00
  20  -2  -8   57.59   10.70
  20  -2  -8   60.79    8.60
  20   2  -8   60.39    7.20
 -20   2   8   46.60   11.40
  20   2  -8   75.99   11.20
 -20   2   8   50.19   10.10
  20   2  -8   58.39    7.30
  18  -2  -8  190.78   11.90
 -18  -2   8  204.38   15.90
  18  -2  -8  176.88   14.60
 -18  -2   8  175.68   14.90
  18   2  -8  183.88    9.80
  18   2  -8  180.68   11.00
  18   2  -8  180.18   15.00
 -18   2   8  172.28   16.30
 -18   2   8  203.18   14.10
  16  -2  -8  292.17   12.70
 -16  -2   8  287.57   17.50
 -16  -2   8  274.07   17.50
  16  -2  -8  292.47   16.80
 -16   2   8  269.87   19.60
  16   2  -8  274.17   12.60
 -16   2   8  298.77   15.60
  16   2  -8  305.67   18.00
  16   2  -8  285.97   11.30
  16   2  -8  288.17   21.60
 -14  -2   8   61.39    8.20
 -14  -2   8   53.69    7.50
  14  -2  -8   50.39   11.00
  14  -2  -8   66.29    7.40
  14   2  -8   68.29   10.30
 -14   2   8   47.90    6.00
 -14   2   8   52.59    7.40
  14   2  -8   72.99    8.00
 -14   2   8   54.99    9.30
  12  -2  -8   63.19    6.20
 -12  -2   8   54.99    6.40
  12  -2  -8   83.59   11.90
 -12  -2   8   69.69    7.30
 -12   2   8   71.49   10.00
 -12   2   8   67.59    5.70
  12   2  -8   63.79    9.00
  12   2  -8   58.39    7.00
 -10  -2   8  534.55   21.10
  10  -2  -8  573.84   26.40
  10  -2  -8  502.85   19.90
 -10  -2   8  535.55   25.60
 -10  -2   8  517.65   17.40
 -10  -2   8  525.85   22.30
 -10   2   8  532.95   17.70
 -10   2   8  510.15   19.00
  10   2  -8  543.45   23.40
 -10   2   8  521.15   25.30
  10   2  -8  530.05   22.60
   8  -2  -8  441.46   16.00
  -8  -2   8  457.85   18.80
  -8  -2   8  445.76   16.80
  -8  -2   8  446.96   22.50
  -8  -2   8  455.15   19.50
   8  -2  -8  428.76   21.40
  -8  -2   8  473.95   17.70
   8   2  -8  449.95   19.70
  -8   2   8  466.95   15.20
  -8   2   8  444.06   17.20
  -8   2   8  446.06   22.10
   8   2  -8  484.15   19.30
  -6  -2   8  575.84   27.10
  -6  -2   8  609.14   23.50
  -6  -2   8  632.04   24.50
  -6  -2   8  636.24   23.90
  -6   2   8  636.14   23.40
  -6   2   8  618.44   26.70
  -6   2   8  641.64   27.10
  -4  -2   8  646.04   28.70
  -4  -2   8  670.53   25.30
  -4  -2   8  687.73   26.50
  -4  -2   8  649.43   26.10
  -4   2   8  660.93   27.70
  -4   2   8  701.13   26.30
   4   2  -8  677.43   30.90
  -4   2   8  720.93   29.10
  -2  -2   8  244.48   13.60
  -2  -2   8  265.27   14.30
  -2  -2   8  231.88   14.60
  -2  -2   8  241.38   12.20
  -2   2   8  261.67   14.10
  -2   2   8  234.08   14.70
   2   2  -8  261.17   13.40
   2   2  -8  233.48   16.60
   0  -2  -8  360.06   19.20
   0  -2   8  400.56   20.10
   0  -2  -8  365.56   14.50
   0  -2   8  354.46   16.80
   0  -2   8  374.16   19.60
   0   2   8  361.46   16.60
   0   2   8  390.96   13.50
   0   2  -8  366.46   18.30
   0   2   8  374.96   18.10
   0   2  -8  348.27   22.60
  -2  -2  -8  259.27   13.10
   2  -2   8  261.57   16.50
   2  -2   8  253.57   14.00
  -2  -2  -8  249.78   16.40
   2   2   8  260.67   11.70
   2   2   8  252.67   15.00
   2   2   8  265.67   14.50
  -4  -2  -8   80.79   11.80
   4  -2   8   82.89    7.90
   4  -2   8   78.29   10.30
   4  -2   8   82.59    8.80
   4   2   8   86.09   10.40
   4   2   8   79.29    7.00
   4   2   8   76.59    8.90
   6  -2   8   59.99   10.60
   6  -2   8   73.59    9.80
   6  -2   8   82.19    9.70
   6   2   8   83.59    8.40
   6   2   8   77.99    9.30
   6   2   8   67.39   11.80
   8  -2   8   48.20   10.40
   8  -2   8   24.60    7.50
   8   2   8   36.10    7.30
   8   2   8   37.20    7.90
 -21  -3   8  494.25   28.60
  21  -3  -8  522.45   29.40
  21   3  -8  513.85   24.60
 -21   3   8  456.35   31.40
  21   3  -8  525.95   30.00
 -19  -3   8  648.84   32.30
  19  -3  -8  677.43   32.50
  19  -3  -8  698.93   28.70
 -19   3   8  648.34   36.40
 -19   3   8  639.64   29.40
  19   3  -8  664.23   32.60
  19   3  -8  633.54   27.40
 -17  -3   8  963.70   40.20
  17  -3  -8  947.41   39.30
  17  -3  -8  948.31   35.60
 -17  -3   8  998.70   40.70
  17   3  -8 1068.89   42.00
 -17   3   8  966.30   37.20
  17   3  -8  838.12   34.80
 -17   3   8 1010.90   46.10
 -15  -3   8 1043.30   41.60
 -15  -3   8 1052.29   41.00
  15  -3  -8 1021.70   36.30
  15  -3  -8 1025.30   40.00
  15   3  -8 1064.19   42.30
  15   3  -8 1146.69   45.80
 -15   3   8 1086.89   47.00
  15   3  -8  946.21   36.50
 -15   3   8 1070.59   38.30
  13  -3  -8 1428.36   46.50
  13  -3  -8 1430.46   49.99
  13  -3  -8 1454.95   57.79
 -13  -3   8 1390.46   50.79
 -13  -3   8 1471.95   52.49
  13   3  -8 1439.06   54.29
 -13   3   8 1405.76   45.80
 -13   3   8 1469.05   51.69
  13   3  -8 1441.76   47.20
 -13   3   8 1430.86   57.39
  13   3  -8 1380.56   52.39
 -13   3   8 1490.65   48.50
 -11  -3   8 1764.32   61.19
  11  -3  -8 1707.73   57.69
  11  -3  -8 1789.12   65.99
 -11  -3   8 1747.23   58.89
 -11  -3   8 1810.82   55.79
 -11  -3   8 1785.62   64.59
 -11   3   8 1766.72   56.29
  11   3  -8 1780.12   61.79
 -11   3   8 1743.73   56.49
  11   3  -8 1777.12   56.49
  11   3  -8 1774.72   61.49
 -11   3   8 1717.63   65.79
   9  -3  -8 1867.31   58.89
  -9  -3   8 1843.62   66.69
  -9  -3   8 1857.01   60.29
   9  -3  -8 1881.31   67.09
  -9  -3   8 1892.81   63.89
  -9   3   8 1842.22   57.89
   9   3  -8 1915.71   62.69
  -9   3   8 1845.82   60.69
   9   3  -8 1832.72   63.79
   9   3  -8 1895.51   60.09
  -9   3   8 1877.11   68.69
  -7  -3   8 2714.13   87.29
  -7  -3   8 2647.14   91.59
  -7  -3   8 2688.93   87.39
  -7  -3   8 2728.53   88.79
  -7   3   8 2800.12   93.69
  -7   3   8 2617.94   86.59
   7   3  -8 2795.22   86.59
   7   3  -8 2782.42   85.09
  -7   3   8 2678.53   90.19
  -5  -3   8 1191.08   46.60
  -5  -3   8 1270.07   44.30
  -5  -3   8 1224.48   44.60
  -5  -3   8 1273.27   43.60
  -5   3   8 1263.57   43.60
  -5   3   8 1216.78   48.30
  -5   3   8 1232.18   45.00
  -3  -3   8  894.91   35.10
  -3  -3   8  918.61   34.00
  -3  -3   8  909.71   36.90
  -3  -3   8  960.20   35.70
  -3   3   8  910.31   34.50
  -3   3   8  899.31   38.30
  -3   3   8  942.41   35.00
   3   3  -8  879.61   39.40
  -1  -3   8 1752.22   65.29
  -1  -3   8 1914.71   65.09
  -1  -3   8 1844.42   62.59
   1   3  -8 1815.22   70.99
  -1   3   8 1888.01   64.49
  -1   3   8 1924.31   62.79
   1   3  -8 1911.51   64.39
  -1   3   8 1776.82   66.29
   1  -3   8 1268.07   51.89
   1  -3   8 1193.58   47.50
  -1  -3  -8 1174.78   40.50
   1  -3   8 1280.77   45.30
  -1  -3  -8 1253.67   46.00
   1   3   8 1277.47   44.90
   1   3   8 1283.57   39.40
   1   3   8 1115.09   46.20
   1   3   8 1237.88   44.50
  -3  -3  -8  569.04   22.60
   3  -3   8  579.34   25.60
   3  -3   8  535.05   27.10
  -3  -3  -8  516.55   25.40
   3   3   8  560.74   21.00
   3   3   8  556.94   27.60
   3   3   8  527.75   24.50
   3   3   8  560.44   25.70
  -5  -3  -8  476.05   26.40
   5  -3   8  544.25   28.90
   5  -3   8  539.45   22.30
   5  -3   8  551.94   26.10
   5   3   8  533.55   28.40
   5   3   8  516.65   24.00
   5   3   8  583.94   27.80
   5   3   8  540.65   22.10
   7  -3   8  309.07   20.50
   7  -3   8  378.86   23.20
   7  -3   8  364.36   20.50
   7   3   8  352.76   19.10
   7   3   8  340.67   23.80
   7   3   8  382.26   18.60
 -22  -4   8  168.38   17.40
  22  -4  -8  160.68   18.70
  22   4  -8  176.58   18.90
 -22   4   8  164.78   34.30
 -20  -4   8  203.68   17.10
  20  -4  -8  194.48   17.80
  20  -4  -8  170.68   17.30
 -20   4   8  158.68   18.60
  20   4  -8  193.78   17.80
  20   4  -8  170.48   14.60
 -20   4   8  197.28   17.00
  18  -4  -8  312.97   18.70
  18  -4  -8  328.77   20.80
 -18  -4   8  305.07   19.70
 -18   4   8  324.17   18.00
  18   4  -8  305.97   17.90
 -18   4   8  326.97   25.00
  18   4  -8  326.27   21.30
  16  -4  -8  227.98   14.60
 -16  -4   8  249.68   16.00
 -16  -4   8  244.58   18.10
  16  -4  -8  255.27   16.30
 -16   4   8  224.68   13.90
  16   4  -8  261.87   17.70
  16   4  -8  280.37   15.60
 -16   4   8  257.07   21.30
 -14  -4   8  709.33   31.10
 -14  -4   8  645.94   28.50
  14  -4  -8  656.93   28.10
  14  -4  -8  694.53   27.10
 -14   4   8  698.53   25.60
  14   4  -8  702.13   31.10
 -14   4   8  707.53   36.40
  14   4  -8  638.64   27.50
 -14   4   8  698.63   26.60
  14   4  -8  673.23   32.90
  12  -4  -8  963.60   33.50
  12  -4  -8  917.21   41.70
  12  -4  -8  897.81   33.70
 -12  -4   8  952.90   39.60
 -12  -4   8  960.60   37.70
 -12  -4   8  945.11   32.50
 -12   4   8  999.10   33.50
  12   4  -8  937.21   38.10
 -12   4   8  920.81   42.80
 -12   4   8  774.02   31.60
 -12   4   8  936.71   35.60
  12   4  -8  902.01   37.30
  10  -4  -8  731.23   34.10
  10  -4  -8  730.53   27.20
  10  -4  -8  656.63   26.40
 -10  -4   8  768.52   31.20
 -10  -4   8  736.23   27.20
 -10  -4   8  727.23   32.30
 -10   4   8  696.23   24.90
  10   4  -8  717.23   30.60
 -10   4   8  736.33   28.90
  10   4  -8  727.73   27.90
 -10   4   8  762.82   36.40
 -10   4   8  744.73   28.20
  10   4  -8  740.23   29.80
   8  -4  -8  753.32   24.70
  -8  -4   8  772.22   31.40
  -8  -4   8  753.42   29.80
  -8  -4   8  779.82   29.50
  -8  -4   8  756.22   32.80
   8   4  -8  756.92   29.30
  -8   4   8  742.93   29.30
   8   4  -8  755.82   28.40
  -8   4   8  730.33   35.60
  -6  -4   8  568.14   23.70
  -6  -4   8  557.94   25.10
  -6  -4   8  586.44   24.70
  -6  -4   8  560.74   26.20
  -6   4   8  528.05   28.80
   6   4  -8  520.65   19.70
   6   4  -8  595.24   24.20
  -6   4   8  578.24   24.50
  -6   4   8  567.64   23.80
  -4  -4   8  846.82   33.50
  -4  -4   8  801.82   34.20
  -4  -4   8  803.52   31.70
  -4  -4   8  778.42   33.30
   4   4  -8  866.91   33.20
  -4   4   8  814.52   37.40
  -4   4   8  826.22   32.50
  -4   4   8  849.91   31.70
   4   4  -8  810.22   37.30
  -2  -4   8  748.13   32.50
  -2  -4   8  756.52   30.40
  -2  -4   8  749.42   32.50
  -2  -4   8  754.12   32.20
  -2   4   8  786.82   29.10
  -2   4   8  715.83   34.50
  -2   4   8  795.82   31.70
   0  -4   8  434.36   19.90
   0  -4   8  368.06   20.50
   0  -4   8  384.86   21.40
   0   4   8  368.56   20.20
   0   4   8  385.26   17.50
   2  -4   8  222.68   14.80
   2  -4   8  231.78   16.30
  -2  -4  -8  247.38   11.70
   2   4   8  242.28   16.20
   2   4   8  242.18   10.20
   2   4   8  229.58   13.20
   2   4   8  233.68   16.30
   4  -4   8  237.08   17.60
   4  -4   8  257.67   16.40
  -4  -4  -8  242.68   15.90
   4   4   8  259.97   18.00
   4   4   8  246.98   12.10
   4   4   8  237.48   13.40
   6  -4   8  178.58   12.70
  -6  -4  -8  180.78   15.80
   6  -4   8  164.88   15.60
   6  -4   8  176.38   14.90
   6   4   8  186.38   12.10
   6   4   8  208.68   17.50
   6   4   8  163.88   11.30
   8  -4   8   45.10   10.20
   8  -4   8   74.19   12.50
   8   4   8   85.79   10.20
   8   4   8   87.59    9.80
   8   4   8   65.09   12.80
  21  -5  -8    8.40    9.60
  21   5  -8   17.30    9.20
  21   5  -8    7.00    8.60
 -21   5   8    4.50   11.00
  19  -5  -8   37.40   10.60
  19  -5  -8   12.70    7.50
  19   5  -8    7.50    7.50
 -19   5   8   22.80   10.60
  19   5  -8   19.40    8.00
 -19   5   8   36.30    8.70
  17  -5  -8   45.10    9.30
  17  -5  -8   48.60    9.00
 -17   5   8   38.50   11.80
 -17   5   8   54.99    8.20
  17   5  -8   46.50    9.30
  17   5  -8   44.30    8.80
  15  -5  -8   48.70    8.60
  15  -5  -8   76.89   10.00
 -15   5   8   71.09   14.10
  15   5  -8   51.79    8.60
  15   5  -8   53.59    8.80
 -15   5   8   75.19    7.60
 -15   5   8   61.49    7.50
 -13  -5   8   37.50    8.40
 -13  -5   8   27.40    6.80
  13  -5  -8   37.90    6.60
  13  -5  -8   36.70    6.20
 -13  -5   8   34.60    5.60
  13   5  -8   23.70    7.20
 -13   5   8   32.40    9.90
 -13   5   8   34.10    5.10
  13   5  -8   23.00    6.30
 -13   5   8   34.60    6.20
  13   5  -8   30.60    7.30
 -13   5   8   34.80    6.00
 -11  -5   8  151.28   12.80
 -11  -5   8  168.78   14.10
 -11  -5   8  158.48   10.40
  11  -5  -8  163.48   11.60
  11  -5  -8  163.58    9.90
  11  -5  -8  152.78   15.30
 -11   5   8  169.48   11.40
  11   5  -8  160.78   13.10
 -11   5   8  165.18    8.90
  11   5  -8  140.69   11.50
 -11   5   8  159.68   10.60
 -11   5   8  164.88   17.30
  11   5  -8  161.58   12.70
  -9  -5   8  220.08   13.20
  -9  -5   8  217.78   15.30
   9  -5  -8  209.28   10.20
  -9  -5   8  220.98   13.60
  -9  -5   8  243.28   15.70
   9  -5  -8  217.18   13.20
   9   5  -8  215.88   13.70
  -9   5   8  243.78   12.60
  -9   5   8  222.68    9.60
  -9   5   8  227.58   18.90
  -9   5   8  220.98   13.70
   9   5  -8  227.08   13.60
  -7  -5   8   85.19    9.00
  -7  -5   8   75.69    9.40
  -7  -5   8   81.79    7.70
  -7  -5   8   74.59    8.50
  -7   5   8   69.99    6.60
  -7   5   8   67.89    7.80
   7   5  -8   70.99    6.70
  -7   5   8   76.69   12.70
   7   5  -8   56.79    7.90
  -5  -5   8  216.58   14.40
  -5  -5   8  227.08   15.10
  -5  -5   8  238.18   15.70
  -5  -5   8  203.28   12.90
   5   5  -8  214.08   10.30
  -5   5   8  215.68   13.90
  -5   5   8  202.68   12.10
  -5   5   8  203.98   17.60
   5   5  -8  220.58    9.60
   5   5  -8  207.98   13.90
  -3  -5   8  165.38   13.80
  -3  -5   8  162.18   12.50
  -3  -5   8  170.48   11.60
  -3  -5   8  171.38   14.40
  -3   5   8  167.18   16.20
   3   5  -8  165.38   13.00
  -3   5   8  186.28   10.20
  -3   5   8  160.88   12.20
  -1  -5   8  117.09   13.10
  -1  -5   8  110.89   10.60
  -1  -5   8  121.99   10.10
  -1   5   8  126.59   13.90
  -1   5   8  113.69   10.80
   1   5  -8  111.59   11.60
  -1   5   8  117.29    7.70
   1  -5   8  177.48   12.60
   1  -5   8  138.99   12.70
  -1  -5  -8  151.48    8.00
   1   5   8  157.58    9.50
   1   5   8  137.69   13.00
   1   5   8  172.58   13.70
   3  -5   8   12.40    5.00
   3  -5   8   11.90    5.60
  -3  -5  -8   12.90    4.80
   3   5   8    4.70    5.70
   3   5   8   20.50    3.90
   3   5   8   15.30    3.30
   5  -5   8   22.80    7.20
   5  -5   8   22.70    7.20
   5   5   8   23.60    4.50
   5   5   8   26.20    4.80
   5   5   8   21.60    7.90
  -5   5  -8   18.80    4.80
   7  -5   8   25.90    8.00
   7  -5   8   19.30    7.40
   7   5   8   39.90    6.40
   7   5   8   24.70    8.80
   7   5   8   35.60    6.30
  20  -6  -8  306.87   24.50
  20   6  -8  318.17   23.10
  20   6  -8  337.47   23.90
 -20   6   8  348.77   31.00
  18  -6  -8  688.23   35.20
  18  -6  -8  748.83   35.10
  18   6  -8  649.04   33.50
  18   6  -8  776.42   36.80
 -18   6   8  725.03   31.50
 -18   6   8  656.93   41.70
  16  -6  -8  623.04   30.60
  16  -6  -8  639.44   31.20
 -16  -6   8  638.14   32.00
  16   6  -8  604.74   31.80
 -16   6   8  664.73   27.90
 -16   6   8  646.54   28.20
  16   6  -8  636.64   30.90
 -16   6   8  673.03   39.60
  14  -6  -8  778.22   33.30
  14  -6  -8  722.53   31.90
 -14  -6   8  724.83   34.20
  14   6  -8  682.23   33.20
 -14   6   8  770.32   29.60
 -14   6   8  763.62   31.60
 -14   6   8  763.82   42.30
  14   6  -8  769.92   35.20
  12  -6  -8 1474.95   53.29
 -12  -6   8 1518.75   57.59
  12  -6  -8 1510.05   55.29
 -12  -6   8 1521.55   58.09
 -12  -6   8 1500.35   53.39
 -12   6   8 1516.45   54.89
 -12   6   8 1485.15   65.69
  12   6  -8 1388.76   55.79
  12   6  -8 1611.24   58.29
 -12   6   8 1512.05   52.69
 -12   6   8 1523.05   50.99
  12   6  -8 1545.35   58.09
 -10  -6   8 1149.78   44.40
 -10  -6   8 1178.18   46.20
 -10  -6   8 1146.69   43.40
 -10  -6   8 1186.78   46.70
  10  -6  -8 1179.48   40.70
  10  -6  -8 1192.28   44.60
 -10   6   8 1137.29   53.49
  10   6  -8 1223.28   45.00
 -10   6   8 1096.19   38.70
  10   6  -8 1049.20   44.80
 -10   6   8 1168.18   41.10
 -10   6   8 1149.89   44.60
   8  -6  -8 1203.98   45.00
  -8  -6   8 1219.38   46.30
   8  -6  -8 1158.98   39.10
  -8  -6   8 1246.08   45.60
  -8  -6   8 1126.89   46.70
  -8  -6   8 1107.89   44.00
   8  -6  -8 1161.48   39.00
  -8   6   8 1237.78   40.90
   8   6  -8 1108.39   45.60
   8   6  -8 1147.39   42.70
  -8   6   8 1200.78   54.59
  -8   6   8 1146.59   45.40
  -6  -6   8  986.40   39.60
  -6  -6   8 1020.80   40.20
  -6  -6   8  958.00   40.60
  -6  -6   8  981.20   38.20
   6   6  -8 1019.70   36.00
  -6   6   8  984.50   33.60
   6   6  -8  895.11   39.60
  -6   6   8  777.62   43.80
  -6   6   8 1032.70   36.40
   6   6  -8  930.31   34.50
  -6   6   8  961.70   39.20
  -4  -6   8  397.56   20.20
  -4  -6   8  414.66   22.60
  -4  -6   8  390.36   21.00
  -4  -6   8  411.96   23.10
   4   6  -8  367.76   15.60
  -4   6   8  385.86   21.10
   4   6  -8  405.96   17.20
  -4   6   8  331.67   24.50
   4   6  -8  392.06   22.00
  -4   6   8  347.97   16.20
  -4   6   8  420.36   15.80
  -2  -6   8  634.24   29.90
  -2  -6   8  695.23   32.90
  -2  -6   8  678.73   29.50
  -2   6   8  646.54   30.40
   2   6  -8  650.73   32.00
   2   6  -8  671.13   22.90
   2   6  -8  634.64   22.20
  -2   6   8  655.03   35.50
  -2   6   8  677.23   23.60
   0  -6   8  896.91   41.20
   0  -6   8  930.61   38.50
   0  -6   8  905.41   39.40
   0   6  -8  941.31   41.70
   0   6   8  962.60   40.50
   0   6   8  953.10   31.30
  -2  -6  -8  551.64   20.70
  -2  -6  -8  537.05   19.50
   2  -6   8  557.84   27.00
   2  -6   8  488.65   27.00
   2   6   8  533.15   18.90
  -2   6  -8  510.95   19.00
   2   6   8  533.05   28.40
   4  -6   8  407.96   23.40
   4  -6   8  381.16   24.40
   4   6   8  439.96   25.80
   4   6   8  399.96   16.90
  -4   6  -8  359.46   16.70
   4   6   8  422.86   15.70
   6  -6   8  341.57   23.00
   6  -6   8  306.07   21.90
   6   6   8  345.57   24.30
   6   6   8  354.26   14.60
   6   6   8  330.17   16.30
  -6   6  -8  265.57   16.40
 -19  -7   8  218.18   18.70
  19  -7  -8  198.48   21.10
  19   7  -8  199.18   20.10
 -19   7   8  147.39   27.20
  19   7  -8  234.48   20.60
  17  -7  -8  398.96   25.30
 -17  -7   8  391.46   24.40
  17   7  -8  408.86   25.50
 -17   7   8  381.56   32.60
 -17   7   8  405.76   24.00
  17   7  -8  376.46   25.10
 -17   7   8  446.16   23.50
 -15  -7   8  276.17   19.30
  15  -7  -8  318.17   22.10
  15  -7  -8  286.07   19.60
 -15   7   8  277.87   18.40
 -15   7   8  290.57   16.70
  15   7  -8  280.77   21.20
 -15   7   8  282.47   26.80
  15   7  -8  321.47   21.70
  13  -7  -8  565.14   27.70
 -13  -7   8  666.33   28.60
  13  -7  -8  608.14   30.30
 -13  -7   8  600.34   29.60
 -13   7   8  591.94   37.70
 -13   7   8  605.04   25.10
 -13   7   8  597.14   28.60
  13   7  -8  611.64   31.10
  13   7  -8  564.74   30.40
 -11  -7   8  617.74   29.10
  11  -7  -8  557.54   29.00
 -11  -7   8  637.14   28.70
 -11  -7   8  634.84   28.30
  11  -7  -8  565.14   25.90
 -11   7   8  590.94   37.20
 -11   7   8  595.94   23.80
 -11   7   8  588.54   24.70
  11   7  -8  614.74   30.90
 -11   7   8  635.04   29.20
  11   7  -8  607.84   29.90
  -9  -7   8  320.17   19.70
   9  -7  -8  270.67   19.70
   9  -7  -8  310.77   20.10
  -9  -7   8  321.87   18.20
   9  -7  -8  335.37   15.50
  -9  -7   8  299.77   18.40
   9   7  -8  330.27   19.30
  -9   7   8  318.07   14.80
  -9   7   8  290.17   19.10
   9   7  -8  307.77   20.50
  -9   7   8  328.97   26.60
   7  -7  -8 1160.78   47.00
  -7  -7   8 1223.68   48.00
  -7  -7   8 1144.79   48.40
   7  -7  -8 1190.78   39.50
  -7  -7   8 1163.38   46.10
   7  -7  -8 1126.79   39.60
  -7  -7   8 1200.78   45.80
   7   7  -8 1212.68   44.10
  -7   7   8 1206.18   56.29
  -7   7   8 1229.48   43.10
  -7   7   8 1171.18   39.60
  -7   7   8 1144.29   47.20
   7   7  -8 1102.69   47.80
  -5  -7   8 1534.85   59.49
  -5  -7   8 1527.55   56.19
  -5  -7   8 1508.15   56.49
   5  -7  -8 1464.25   48.10
   5  -7  -8 1561.04   48.00
  -5   7   8 1459.15   65.39
   5   7  -8 1439.56   58.89
   5   7  -8 1516.15   53.99
  -5   7   8 1515.15   48.40
  -5   7   8 1549.54   58.19
   5   7  -8 1549.45   52.39
  -5   7   8 1504.35   50.29
  -3  -7   8 1134.59   48.30
  -3  -7   8 1113.79   44.40
  -3  -7   8 1119.99   45.10
   3   7  -8 1089.29   47.70
  -3   7   8 1126.69   35.40
   3   7  -8 1123.89   39.40
   3   7  -8 1119.69   41.40
  -3   7   8 1122.59   53.29
  -3   7   8 1184.48   47.10
  -1  -7   8  835.92   36.00
   1  -7  -8  865.71   27.70
   1  -7  -8  830.82   27.70
  -1  -7   8  863.01   37.00
   1   7  -8  801.22   30.70
  -1   7   8  770.02   41.90
  -1   7   8  837.42   37.80
   1   7  -8  832.62   40.00
   1  -7   8  381.06   23.00
  -1  -7  -8  446.96   17.00
   1  -7   8  414.36   23.00
  -1  -7  -8  413.86   15.80
  -1   7  -8  387.66   25.90
   1   7   8  372.16   24.10
  -1   7  -8  374.56   17.30
   3  -7   8  292.77   19.50
   3  -7   8  284.17   20.30
   3   7   8  297.87   21.70
  -3   7  -8  254.17   14.00
   5  -7   8  222.58   19.10
   5  -7   8  239.18   19.30
   5   7   8  245.48   21.20
  -5   7  -8  217.58   14.70
 -16  -8   8    6.90    6.60
  16  -8  -8    8.80    9.00
 -16   8   8   19.80   13.30
  16   8  -8   30.50   10.70
 -16   8   8    3.40    7.20
  16   8  -8   12.40    8.70
  14  -8  -8    7.10    7.70
 -14  -8   8    1.80    5.00
 -14   8   8    0.20    5.50
 -14   8   8    8.80   10.10
 -14   8   8    7.70    6.90
  14   8  -8    6.00    6.90
  14   8  -8   10.80    8.80
  12  -8  -8   28.60    7.60
 -12  -8   8   35.90    8.20
 -12  -8   8   24.40    6.70
 -12   8   8   20.20   13.00
 -12   8   8   31.20    8.40
 -12   8   8   43.90    6.90
 -12   8   8   31.10    6.10
  12   8  -8   19.40    8.60
  10  -8  -8   21.70    6.20
 -10  -8   8   26.30    6.70
 -10  -8   8   36.90    7.60
 -10   8   8   28.30    5.40
 -10   8   8   27.30    7.80
 -10   8   8   44.90   12.60
  10   8  -8   24.90   10.60
  10   8  -8   22.60    8.50
   8  -8  -8   86.59    9.20
  -8  -8   8   88.69    9.80
  -8  -8   8   88.99    9.80
  -8   8   8   41.90   13.60
  -8   8   8  104.89   12.50
   8   8  -8   87.19   13.00
  -8   8   8   79.29    6.70
   8   8  -8   97.39   12.70
   6  -8  -8   67.99    7.60
   6  -8  -8   47.30    6.40
  -6  -8   8   59.59    9.50
  -6  -8   8   40.40    8.00
   6   8  -8   57.39    9.50
  -6   8   8   54.69    5.80
   6   8  -8   47.20   10.40
  -6   8   8   59.39   13.90
  -6   8   8   47.90    4.60
  -6   8   8   54.59   10.40
   6   8  -8   43.70    9.20
  -4  -8   8   12.90    5.00
   4  -8  -8    7.40    3.80
  -4  -8   8    9.50    5.10
   4  -8  -8   13.90    4.20
  -4   8   8   15.90    6.20
   4   8  -8   11.40    7.50
   4   8  -8    8.70    6.20
   4   8  -8   17.00    6.90
  -4   8   8   -0.20    8.70
  -2  -8   8  141.29   12.50
   2  -8  -8  141.19    8.80
  -2  -8   8  132.99   12.40
   2  -8  -8  125.69    8.30
  -2   8   8  138.79   15.20
   2   8  -8  128.89   12.80
   2   8  -8  125.89   15.50
   2   8  -8  128.79   11.80
  -2   8   8  112.69   18.30
   0  -8  -8   40.90    6.30
   0  -8   8   34.30    8.20
   0  -8   8   42.20    9.00
   0   8   8   40.40   10.00
   0   8  -8   56.29   12.40
   0   8  -8   42.90    8.10
   0   8   8   26.60   11.90
   2  -8   8    3.90    5.20
   2  -8   8   -0.50    5.70
  -2   8  -8    6.60    6.40
   2   8   8    3.80    7.40
  -2   8  -8    7.60    8.80
 -15  -9   8  817.22   36.80
 -15  -9   8  840.92   38.90
  15  -9  -8  737.53   39.80
  15   9  -8  802.72   41.40
 -15   9   8  776.72   49.70
 -15   9   8  872.01   40.10
  15   9  -8  863.51   43.10
 -13  -9   8  887.81   39.60
  13  -9  -8  755.62   38.00
 -13  -9   8  874.31   37.30
  13   9  -8  865.01   42.80
 -13   9   8  853.41   39.90
 -11  -9   8  608.54   29.60
 -11  -9   8  553.24   27.60
  11  -9  -8  517.05   27.90
  11   9  -8  621.14   34.10
 -11   9   8  594.14   25.40
 -11   9   8  590.84   31.50
 -11   9   8  549.54   40.00
  -9  -9   8  613.44   29.80
  -9  -9   8  574.44   28.00
   9  -9  -8  517.25   26.30
  -9   9   8  546.05   38.70
   9   9  -8  653.63   34.90
   9   9  -8  547.85   33.20
  -9   9   8  594.54   23.90
  -9   9   8  622.44   32.60
  -7  -9   8  643.24   30.20
  -7  -9   8  691.43   32.10
   7   9  -8  713.83   34.10
   7   9  -8  628.64   31.80
  -7   9   8  606.44   41.50
   7   9  -8  650.13   35.70
  -7   9   8  615.74   23.00
  -7   9   8  645.94   24.70
  -7   9   8  691.13   34.70
  -5  -9   8  613.14   29.60
   5  -9  -8  600.34   25.30
  -5  -9   8  655.73   31.20
   5   9  -8  620.74   35.00
   5   9  -8  618.34   31.00
  -5   9   8  591.24   40.20
   5   9  -8  667.53   31.60
  -5   9   8  656.93   34.30
  -3  -9   8  677.83   31.10
  -3  -9   8  573.54   30.50
   3   9  -8  624.74   36.10
   3   9  -8  659.13   30.80
  -3   9   8  666.53   34.70
   3   9  -8  655.43   31.60
  -3   9   8  594.04   40.30
  -1  -9   8  438.16   24.70
  -1  -9   8  399.66   23.90
  -1   9   8  395.56   27.00
   1   9  -8  410.36   23.60
   1   9  -8  380.76   27.90
  -1   9   8  419.26   32.50
   1  -9   8  198.08   17.50
   1  -9   8  206.28   18.00
  -1   9  -8  229.78   18.00
   1   9   8  208.48   20.60
  -1   9  -8  195.68   21.50
   1   9   8  187.78   23.80
 -10 -10   8  407.16   22.30
  10 -10  -8  337.97   23.00
 -10 -10   8  417.26   24.40
 -10  10   8  428.26   27.50
  10  10  -8  402.06   29.10
 -10  10   8  384.96   35.10
  -8 -10   8  466.65   26.90
  -8 -10   8  492.55   25.30
   8  10  -8  485.85   32.10
   8  10  -8  508.55   29.40
  -8  10   8  484.35   30.70
  -8  10   8  503.55   39.50
  -8  10   8  483.45   20.10
  -6 -10   8  540.35   28.40
  -6 -10   8  531.55   26.70
  -6  10   8  551.94   32.50
   6  10  -8  516.55   33.70
  -6  10   8  490.25   37.90
   6  10  -8  497.35   30.00
  -4 -10   8  303.17   19.80
  -4 -10   8  312.07   21.30
  -4  10   8  274.77   30.60
   4  10  -8  320.57   24.20
   4  10  -8  366.46   27.70
  -4  10   8  334.07   25.60
   2  10  -8  217.38   20.90
  22   0  -9   -4.90    6.60
 -22   0   9   15.00    8.00
  22   0  -9    1.40    7.10
  22   0  -9   -7.50    4.40
 -20   0   9    5.40    6.50
 -20   0   9    5.00    6.70
  20   0  -9    5.70    5.90
  18   0  -9    0.40    4.40
 -18   0   9    0.10    4.90
 -18   0   9    6.70    5.30
 -16   0   9   -0.30    3.80
 -16   0   9   -6.50    3.70
  16   0  -9   -1.90    8.30
  16   0  -9    5.40    4.40
  14   0  -9   11.40    7.00
 -14   0   9   -2.50    3.40
  14   0  -9    3.60    3.50
 -14   0   9   -2.60    3.10
  12   0  -9   -0.20    4.90
 -12   0   9    2.30    2.50
  12   0  -9   -2.10    2.60
 -12   0   9    5.10    3.30
 -10   0   9    4.10    2.60
 -10   0   9    2.20    2.70
  10   0  -9    5.60    2.50
 -10   0   9   -1.30    1.90
  10   0  -9   -6.70    3.70
   8   0  -9    5.60    3.10
  -8   0   9    4.70    3.30
  -8   0   9    2.70    1.70
  -8   0   9    2.60    1.80
  -8   0   9    7.30    2.10
  -8   0   9    2.90    2.30
  -8   0   9    1.60    1.60
  -6   0   9    0.80    2.60
  -6   0   9    5.10    1.70
  -6   0   9    3.30    1.60
  -6   0   9    1.00    1.90
  -6   0   9    5.60    2.50
  -4   0   9    1.70    2.90
  -4   0   9   -0.50    1.60
  -4   0   9    1.80    1.20
  -4   0   9    1.60    1.70
  -4   0   9    3.60    1.60
  -4   0   9    6.10    3.50
  -2   0   9    0.50    2.60
  -2   0   9    2.00    1.70
  -2   0   9   -2.00    2.00
  -2   0   9   -1.90    1.50
   2   0  -9    8.10    4.80
  -2   0   9    3.20    4.10
  -2   0   9    2.10    1.80
   0   0  -9   -0.90    3.60
   0   0  -9    4.10    5.70
   0   0   9    1.90    2.80
   0   0   9    0.60    2.80
   0   0   9    2.00    5.20
   0   0   9   -2.20    2.40
   0   0   9    2.40    2.20
   2   0   9    3.00    4.10
   2   0   9   -5.90    2.50
   2   0   9    5.80    3.90
   4   0   9    2.50    4.40
   4   0   9    6.40    3.90
   4   0   9    9.70    5.80
   6   0   9    1.70    4.50
   6   0   9    4.40    5.20
   6   0   9    5.70    9.00
 -23  -1   9  249.97   22.30
  23  -1  -9  268.47   14.80
  23  -1  -9  309.77   23.50
  23   1  -9  288.47   22.60
  23   1  -9  296.07   16.30
  21  -1  -9  306.27   21.50
 -21  -1   9  295.87   21.90
  21  -1  -9  298.07   12.60
  21   1  -9  271.47   13.50
  21   1  -9  304.97   21.00
 -21   1   9  302.37   23.30
 -19  -1   9  445.16   23.60
  19  -1  -9  391.46   22.90
 -19  -1   9  403.66   24.50
  19   1  -9  428.16   23.90
 -19   1   9  431.16   22.30
 -19   1   9  423.26   26.50
 -17  -1   9  326.97   19.70
 -17  -1   9  319.47   18.10
  17  -1  -9  295.77   17.80
  17   1  -9  309.47   18.50
 -17   1   9  281.57   19.90
 -17   1   9  291.67   16.50
  15  -1  -9 1132.99   42.10
 -15  -1   9 1130.79   44.00
  15  -1  -9 1122.59   48.10
 -15  -1   9 1123.99   42.00
  15   1  -9 1127.99   47.30
 -15   1   9 1098.59   40.40
 -15   1   9 1064.79   45.10
  15   1  -9 1153.98   43.30
  13  -1  -9 1156.38   47.20
 -13  -1   9 1118.69   40.90
 -13  -1   9 1098.39   42.10
  13  -1  -9 1131.89   40.70
  13   1  -9 1131.29   41.90
 -13   1   9 1116.89   39.40
  13   1  -9 1187.48   46.10
 -13   1   9 1102.89   44.50
 -11  -1   9  418.16   18.70
 -11  -1   9  440.76   18.60
  11  -1  -9  398.26   22.00
  11  -1  -9  408.66   17.50
 -11   1   9  424.36   21.00
  11   1  -9  422.46   18.90
 -11   1   9  410.26   16.50
  11   1  -9  421.36   21.10
  -9  -1   9 1264.57   43.10
  -9  -1   9 1308.87   42.90
   9  -1  -9 1304.17   47.20
  -9  -1   9 1295.07   49.60
  -9  -1   9 1270.07   43.50
  -9  -1   9 1114.79   40.30
  -9   1   9 1265.57   40.00
  -9   1   9 1285.77   46.10
  -9   1   9 1278.67   41.00
  -9   1   9 1341.67   49.60
   9   1  -9 1287.17   44.30
   9   1  -9 1256.37   45.10
  -9   1   9 1328.27   40.50
  -7  -1   9  841.42   34.70
  -7  -1   9  772.62   28.50
  -7  -1   9  811.42   29.00
  -7  -1   9  784.52   26.30
  -7  -1   9  783.82   28.40
  -7   1   9  754.72   27.80
  -7   1   9  772.72   25.40
  -7   1   9  835.02   34.20
  -7   1   9  819.92   25.50
  -7   1   9  884.81   31.20
  -7   1   9  816.42   28.40
  -5  -1   9  680.63   25.80
  -5  -1   9  690.13   26.90
  -5  -1   9  709.33   25.30
  -5  -1   9  698.43   30.70
  -5   1   9  736.33   30.50
  -5   1   9  717.23   27.30
  -3  -1   9 1626.24   55.99
  -3  -1   9 1556.74   58.29
  -3  -1   9 1576.64   52.69
  -3  -1   9 1601.04   53.89
  -3   1   9 1617.64   51.79
  -3   1   9 1638.34   57.89
  -3   1   9 1697.03   54.99
   3   1  -9 1580.04   60.79
  -3   1   9 1638.04   49.40
  -1  -1   9  922.61   36.10
   1  -1  -9  896.31   37.80
  -1  -1   9  903.71   32.00
  -1  -1   9  770.92   35.50
   1  -1  -9  892.21   30.50
  -1   1   9  894.51   33.90
  -1   1   9  876.21   35.70
  -1   1   9  902.71   29.50
  -1   1   9  878.41   30.10
   1   1  -9  931.21   33.60
  -1   1   9  910.41   31.30
   1   1  -9  917.01   43.70
   1  -1   9  440.76   22.70
   1  -1   9  418.26   18.60
  -1  -1  -9  404.36   23.70
  -1  -1  -9  367.96   18.20
   1   1   9  434.96   18.70
   1   1   9  439.76   17.00
   1   1   9  418.06   21.40
   3  -1   9  209.38   16.00
   3  -1   9  240.18   12.10
   3  -1   9  233.18   13.70
   3   1   9  235.38   12.40
   3   1   9  212.88   15.50
   3   1   9  239.08   14.60
   5  -1   9  183.98   15.90
   5  -1   9  195.78   13.60
   5  -1   9  147.29   13.20
   5   1   9  183.98   15.90
   5   1   9  190.18   12.20
   5   1   9  168.98   14.50
   7  -1   9  234.18   16.60
   7  -1   9  207.98   17.70
   7   1   9  226.78   15.50
   7   1   9  206.38   16.70
 -22  -2   9  303.77   22.90
  22  -2  -9  304.87   22.40
  22  -2  -9  308.87   14.60
  22   2  -9  278.67   16.70
  22   2  -9  320.57   23.30
  20  -2  -9  430.36   24.90
 -20  -2   9  407.46   25.30
  20  -2  -9  441.76   18.50
 -20   2   9  488.45   29.40
  20   2  -9  406.46   18.10
  20   2  -9  422.36   25.40
  20   2  -9  459.55   16.90
 -20   2   9  467.85   23.90
 -18  -2   9  363.56   21.60
  18  -2  -9  387.76   21.40
 -18  -2   9  389.86   22.30
 -18   2   9  384.36   25.00
 -18   2   9  392.26   20.00
  18   2  -9  397.16   22.60
 -16  -2   9 1031.70   41.40
  16  -2  -9 1052.89   40.70
 -16  -2   9 1081.99   42.40
 -16   2   9 1084.19   39.00
  16   2  -9 1021.50   45.90
 -16   2   9 1050.59   45.80
  16   2  -9 1032.40   42.30
 -14  -2   9  812.92   33.60
  14  -2  -9  847.12   39.70
  14  -2  -9  851.01   32.60
 -14  -2   9  841.32   33.80
 -14   2   9  845.22   37.80
  14   2  -9  825.92   36.90
  14   2  -9  837.62   34.40
 -14   2   9  861.61   31.10
  12  -2  -9  647.94   31.10
 -12  -2   9  634.84   26.50
 -12  -2   9  652.23   25.80
  12  -2  -9  622.64   24.60
 -12   2   9  616.04   29.70
  12   2  -9  644.24   28.80
  12   2  -9  618.74   26.80
 -12   2   9  661.03   23.50
 -10  -2   9 1348.77   47.20
 -10  -2   9 1526.05   52.29
 -10  -2   9 1506.45   57.19
 -10  -2   9 1662.13   50.69
  10  -2  -9 1471.05   56.19
 -10   2   9 1514.05   47.80
  10   2  -9 1484.15   52.79
 -10   2   9 1538.75   47.90
 -10   2   9 1502.05   55.99
  10   2  -9 1584.74   53.49
  -8  -2   9 1552.14   58.49
  -8  -2   9 1576.84   52.89
  -8  -2   9 1610.74   52.29
  -8  -2   9 1604.64   53.89
  -8   2   9 1586.04   51.59
  -8   2   9 1584.34   56.99
   8   2  -9 1579.14   51.79
  -8   2   9 1543.15   57.59
  -6  -2   9  829.22   30.10
  -6  -2   9  807.12   34.20
  -6  -2   9  792.02   29.20
  -6  -2   9  796.02   30.00
  -6   2   9  769.32   32.20
  -6   2   9  769.12   32.60
  -6   2   9  772.52   29.20
  -4  -2   9  511.65   20.50
  -4  -2   9  497.95   24.40
  -4  -2   9  490.15   21.80
  -4  -2   9  490.35   21.40
   4   2  -9  496.15   26.60
  -4   2   9  488.45   23.10
  -4   2   9  536.65   22.00
  -4   2   9  519.55   23.90
  -2  -2   9  754.62   32.20
  -2  -2   9  749.92   30.90
  -2  -2   9  682.03   29.30
  -2  -2   9  729.53   27.90
  -2   2   9  740.73   27.30
  -2   2   9  721.33   31.30
  -2   2   9  753.22   30.50
   0  -2  -9  547.65   26.70
   0  -2  -9  553.04   20.20
   0  -2   9  573.04   26.90
   0  -2   9  532.25   27.00
   0  -2   9  560.84   23.20
   0   2   9  540.95   24.70
   0   2   9  567.04   22.90
   0   2   9  541.85   18.70
   2  -2   9  408.96   19.50
  -2  -2  -9  361.96   17.90
   2  -2   9  388.06   22.20
  -2  -2  -9  372.16   22.40
   2   2   9  390.96   20.50
   2   2   9  415.26   16.20
   2   2   9  426.56   20.00
   4  -2   9  444.56   17.60
   4  -2   9  463.35   25.90
   4  -2   9  404.16   21.50
   4   2   9  442.16   23.50
   4   2   9  441.96   19.20
   4   2   9  473.05   23.80
   6  -2   9  164.88   15.70
   6  -2   9  176.48   14.40
   6   2   9  193.58   12.60
   6   2   9  161.98   19.40
   6   2   9  173.68   14.10
  21  -3  -9    9.60    7.90
  21  -3  -9   -5.80    7.30
 -21  -3   9   22.30    8.10
  21   3  -9   37.90    9.50
  21   3  -9   17.20    6.90
 -21   3   9   30.10    9.80
  21   3  -9    2.00    5.30
 -21   3   9   25.30   10.70
  19  -3  -9    5.20    5.50
 -19  -3   9    2.30    5.30
  19  -3  -9    3.90    5.30
  19   3  -9   11.70    4.90
  19   3  -9    0.30    6.40
 -19   3   9    2.80    5.60
 -19   3   9    2.70    6.50
  19   3  -9    6.30    3.60
 -17  -3   9    4.00    6.80
  17  -3  -9    3.30    2.90
  17  -3  -9   -1.70    4.20
 -17  -3   9    7.60    4.40
  17   3  -9    2.70    3.20
 -17   3   9    6.30    4.90
 -17   3   9    3.20    6.40
  17   3  -9    4.20    5.30
  15  -3  -9    7.20    4.00
  15  -3  -9    4.30    1.90
 -15  -3   9    3.30    3.60
 -15  -3   9   13.50    5.60
  15   3  -9   -1.90    7.20
  15   3  -9    6.50    4.70
  15   3  -9    5.60    2.10
 -15   3   9    6.30    3.40
 -15   3   9    4.50    5.40
 -13  -3   9    7.30    5.00
  13  -3  -9   12.80    3.80
 -13  -3   9   16.70    4.30
  13  -3  -9   18.80    8.40
 -13  -3   9   12.70    5.20
  13   3  -9   23.60    6.80
 -13   3   9   12.10    5.10
  13   3  -9   16.80    4.90
 -13   3   9   14.00    3.20
 -13   3   9   21.10    6.70
 -13   3   9   14.70    2.10
  13   3  -9   14.70    2.40
  11  -3  -9    7.10    6.00
 -11  -3   9    9.90    2.50
 -11  -3   9    8.40    4.20
 -11  -3   9    2.00    2.60
 -11  -3   9   12.80    4.40
 -11   3   9   14.50    2.50
  11   3  -9   18.60    4.80
  11   3  -9    7.40    2.30
  11   3  -9    6.20    5.10
 -11   3   9   13.30    2.90
 -11   3   9   10.10    5.40
   9  -3  -9   25.10    2.80
  -9  -3   9   23.80    5.60
  -9  -3   9   24.60    5.30
  -9  -3   9   21.10    4.30
  -9  -3   9   29.30    4.90
  -9   3   9   23.80    6.70
  -9   3   9   30.40    4.50
   9   3  -9   27.20    5.10
  -7  -3   9   55.69    7.00
  -7  -3   9   45.40    7.70
  -7  -3   9   44.80    5.50
  -7  -3   9   42.60    6.40
  -7   3   9   59.59    9.30
  -7   3   9   50.99    5.80
  -7   3   9   50.19    7.00
  -5  -3   9   42.30    6.60
  -5  -3   9   43.70    6.60
  -5  -3   9   41.70    7.30
  -5  -3   9   47.00    5.60
  -5   3   9   40.60    8.00
  -5   3   9   41.00    6.00
  -5   3   9   38.10    5.80
  -3  -3   9   58.79    8.00
  -3  -3   9   69.19    9.10
  -3  -3   9   86.39    7.40
  -3  -3   9   71.99    8.60
  -3   3   9   65.59    7.20
  -3   3   9   72.59   10.50
  -3   3   9   64.89    7.30
  -1  -3   9   22.40    7.10
  -1  -3   9   27.50    5.00
  -1  -3   9   29.00    6.30
  -1  -3   9   28.30    6.50
  -1   3   9   28.30    6.40
  -1   3   9   26.20    7.00
  -1   3   9   28.00    5.80
  -1   3   9   29.60    5.40
   1  -3   9   32.30    7.00
   1  -3   9   18.60    5.20
  -1  -3  -9   30.60    4.40
   1   3   9   24.70    2.70
   1   3   9   21.80    5.20
   1   3   9   25.70    6.40
   1   3   9   32.30    6.60
   3  -3   9   59.59    8.30
  -3  -3  -9   62.69   10.30
  -3  -3  -9   42.50    7.30
   3  -3   9   49.90    9.30
   3   3   9   49.80    9.60
   3   3   9   56.79    5.60
   3   3   9   46.40    8.70
   3   3   9   61.99    8.50
   5  -3   9   11.70    7.30
   5  -3   9   11.30    5.80
   5   3   9   12.70    4.20
   5   3   9   33.20    8.90
   5   3   9   22.30    5.80
 -22  -4   9  270.17   21.30
  22   4  -9  317.07   24.00
 -22   4   9  226.08   25.60
  20  -4  -9  480.05   28.60
 -20  -4   9  530.95   28.50
  20   4  -9  571.04   30.70
 -20   4   9  534.85   26.10
  20   4  -9  505.05   25.40
 -20   4   9  552.44   34.90
 -18  -4   9  505.05   26.00
  18  -4  -9  504.15   26.40
  18  -4  -9  518.75   22.80
  18   4  -9  492.65   22.90
 -18   4   9  537.95   24.00
  18   4  -9  492.45   27.60
 -18   4   9  503.25   32.00
 -16  -4   9  603.74   29.80
  16  -4  -9  603.24   24.10
 -16  -4   9  634.04   28.10
  16  -4  -9  623.84   27.80
  16   4  -9  649.14   30.50
  16   4  -9  553.54   24.30
 -16   4   9  589.94   34.60
 -16   4   9  644.14   25.50
  14  -4  -9 1399.56   50.89
 -14  -4   9 1474.05   54.89
 -14  -4   9 1495.25   57.89
  14  -4  -9 1458.65   48.30
  14   4  -9 1393.96   48.90
  14   4  -9 1494.25   56.39
  14   4  -9 1416.46   54.59
 -14   4   9 1436.36   47.70
 -14   4   9 1476.35   61.29
 -14   4   9 1484.05   49.00
  12  -4  -9 1315.27   46.10
 -12  -4   9 1401.26   45.40
  12  -4  -9 1333.37   55.49
 -12  -4   9 1389.56   51.09
 -12  -4   9 1356.26   53.69
 -12   4   9 1359.46   46.10
  12   4  -9 1432.66   51.69
  12   4  -9 1303.67   45.90
 -12   4   9 1327.77   44.60
 -12   4   9 1407.46   57.39
  12   4  -9 1361.56   50.99
 -12   4   9 1370.76   49.50
 -10  -4   9  990.60   34.90
 -10  -4   9  937.91   38.20
 -10  -4   9  932.21   36.80
 -10  -4   9 1023.20   41.40
  10  -4  -9  951.80   32.10
 -10   4   9  952.90   35.40
 -10   4   9  985.80   44.20
  10   4  -9  961.50   36.50
  10   4  -9  978.40   34.90
 -10   4   9  948.61   30.90
  -8  -4   9 1135.69   44.40
  -8  -4   9 1262.07   49.10
  -8  -4   9 1243.58   45.00
  -8  -4   9 1291.07   46.90
  -8   4   9 1249.47   44.80
  -8   4   9 1295.07   47.70
   8   4  -9 1258.57   44.30
   8   4  -9 1254.67   42.20
  -8   4   9 1232.08   51.79
  -6  -4   9  951.90   37.40
  -6  -4   9 1019.20   38.90
  -6  -4   9 1027.70   39.60
  -6  -4   9 1000.00   41.00
  -6   4   9  988.60   44.20
  -6   4   9  988.60   37.80
   6   4  -9 1032.10   38.10
  -6   4   9 1020.60   38.90
  -4  -4   9  542.45   24.10
  -4  -4   9  547.65   26.70
  -4  -4   9  551.74   26.00
  -4  -4   9  525.55   25.60
  -4   4   9  583.34   24.30
  -4   4   9  584.54   30.00
  -4   4   9  567.34   25.00
  -2  -4   9  734.93   31.80
  -2  -4   9  671.63   28.40
  -2  -4   9  682.93   31.00
  -2  -4   9  680.73   31.20
  -2   4   9  605.94   32.80
  -2   4   9  728.33   27.90
  -2   4   9  671.63   29.80
   0  -4   9  604.74   27.40
   0  -4   9  605.44   29.70
   0   4   9  660.63   26.40
   0   4   9  663.63   28.20
   0   4   9  619.44   29.40
   2  -4   9  254.37   15.90
  -2  -4  -9  226.38   12.30
   2  -4   9  245.38   17.50
   2   4   9  267.97   17.70
   2   4   9  260.07   17.70
   2   4   9  239.98   14.50
   4  -4   9  170.38   15.60
  -4  -4  -9  169.98   15.50
   4  -4   9  156.78   14.00
   4   4   9  164.18   11.60
   4   4   9  173.38   16.40
   4   4   9  154.58    9.30
   6  -4   9  224.88   18.60
   6  -4   9  192.78   17.00
   6   4   9  197.18   12.50
   6   4   9  174.08   18.80
   6   4   9  223.78   14.20
  21  -5  -9  439.36   29.20
 -21   5   9  434.46   33.70
  21   5  -9  502.45   29.90
  21   5  -9  430.96   26.00
  19  -5  -9  578.14   30.40
  19  -5  -9  509.85   27.00
 -19   5   9  596.74   26.60
 -19   5   9  553.64   36.30
  19   5  -9  511.35   27.10
  19   5  -9  571.84   30.80
  17  -5  -9  727.93   33.60
  17  -5  -9  777.52   32.00
  17   5  -9  735.33   32.40
 -17   5   9  789.42   31.00
 -17   5   9  767.32   42.00
  17   5  -9  745.93   35.90
 -15  -5   9  805.92   41.70
  15  -5  -9  740.33   30.10
 -15  -5   9  760.42   36.10
  15  -5  -9  760.22   31.60
 -15   5   9  747.93   29.00
 -15   5   9  781.72   41.70
 -15   5   9  755.22   28.90
  15   5  -9  753.32   36.90
  15   5  -9  627.34   30.00
  15   5  -9  811.52   35.40
 -13  -5   9  931.51   33.40
  13  -5  -9  905.31   34.50
 -13  -5   9  912.11   39.00
  13  -5  -9  907.51   34.20
 -13  -5   9  922.71   40.30
 -13   5   9  884.31   44.90
  13   5  -9  937.31   39.20
 -13   5   9  917.31   32.40
  13   5  -9  882.21   38.90
 -13   5   9  957.50   39.70
  13   5  -9  866.31   35.20
 -13   5   9  900.21   34.20
 -11  -5   9  904.61   36.90
 -11  -5   9  784.92   33.80
  11  -5  -9  849.12   32.40
 -11  -5   9  903.81   32.50
 -11  -5   9  856.61   37.60
 -11   5   9  813.52   41.90
 -11   5   9  853.41   32.80
  11   5  -9  808.62   33.00
  11   5  -9  841.22   34.70
 -11   5   9  833.42   28.60
  11   5  -9  840.82   36.20
 -11   5   9  816.72   32.90
  -9  -5   9 1357.66   52.69
  -9  -5   9 1448.96   49.50
  -9  -5   9 1345.97   49.30
   9  -5  -9 1337.57   42.40
   9  -5  -9 1355.66   42.30
  -9  -5   9 1367.86   51.69
   9   5  -9 1306.67   47.40
  -9   5   9 1305.17   57.49
  -9   5   9 1346.37   47.60
  -9   5   9 1396.06   49.70
   9   5  -9 1296.17   48.70
  -7  -5   9 1530.85   58.39
  -7  -5   9 1603.44   56.89
  -7  -5   9 1571.34   55.79
  -7  -5   9 1567.64   57.89
   7   5  -9 1524.85   50.59
  -7   5   9 1491.05   63.89
   7   5  -9 1589.14   50.89
   7   5  -9 1548.45   55.99
  -7   5   9 1562.94   56.29
  -7   5   9 1637.64   56.29
  -5  -5   9  826.72   34.90
  -5  -5   9  782.12   34.40
  -5  -5   9  751.12   33.70
  -5  -5   9  816.32   32.40
  -5   5   9  747.73   32.30
  -5   5   9  804.52   31.10
   5   5  -9  776.62   33.10
  -5   5   9  733.03   38.50
  -3  -5   9  775.92   34.90
  -3  -5   9  761.22   31.90
  -3  -5   9  737.63   34.10
  -3  -5   9  740.33   33.70
  -3   5   9  828.62   33.90
  -3   5   9  758.72   29.30
  -3   5   9  768.92   38.80
  -1  -5   9  768.52   36.40
  -1  -5   9  790.22   33.10
  -1  -5   9  821.42   35.50
  -1   5   9  731.43   38.00
  -1   5   9  787.32   29.40
  -1   5   9  763.42   34.40
   1  -5   9  459.25   25.70
   1  -5   9  465.25   23.90
   1   5   9  475.45   20.60
   1   5   9  504.75   26.20
  -3  -5  -9  380.06   18.20
   3  -5   9  405.86   24.80
   3  -5   9  395.86   23.00
   3   5   9  406.76   25.00
   3   5   9  448.46   18.60
   5  -5   9  253.07   19.10
   5  -5   9  225.28   19.30
   5   5   9  245.98   12.50
   5   5   9  286.37   21.80
   5   5   9  259.27   13.90
  20  -6  -9   18.10   10.50
 -20   6   9   27.40   13.90
  20   6  -9    1.30   10.30
  20   6  -9   37.00   10.90
  18  -6  -9   69.99   12.70
 -18  -6   9   69.69   12.10
  18  -6  -9   43.10   10.60
  18   6  -9   47.60   10.50
 -18   6   9   43.60   12.80
 -18   6   9   46.70    9.20
  18   6  -9   56.69   10.70
  16  -6  -9  121.99   12.70
  16  -6  -9   87.59   12.10
 -16  -6   9  100.99   12.80
 -16   6   9   97.99   10.20
 -16   6   9   97.19   10.20
 -16   6   9  114.09   19.40
  16   6  -9  108.39   13.20
  16   6  -9  106.69   14.00
 -14  -6   9   87.19   11.30
  14  -6  -9  103.69   12.20
  14  -6  -9   85.09   10.00
 -14  -6   9   98.49    9.80
 -14   6   9   90.19   16.90
  14   6  -9  101.39   13.20
 -14   6   9   88.29    9.90
  14   6  -9  111.39   14.50
 -14   6   9   88.09    8.20
  14   6  -9   71.19   10.70
  12  -6  -9  133.59   12.20
 -12  -6   9  134.89   15.00
  12  -6  -9  134.99   10.00
 -12  -6   9  148.79   12.00
 -12  -6   9  150.68   13.40
 -12  -6   9  132.69   11.30
 -12   6   9  135.09   19.10
  12   6  -9  141.99   14.50
 -12   6   9  125.29   10.30
 -12   6   9  140.09   11.60
 -12   6   9  146.69    8.60
  12   6  -9  134.39   12.20
  12   6  -9  127.09   13.10
 -10  -6   9   34.30    7.40
 -10  -6   9   14.70    5.00
  10  -6  -9   32.00    4.50
 -10  -6   9   41.10    9.50
 -10  -6   9   26.20    6.40
  10  -6  -9   38.90    7.30
 -10   6   9   31.90    7.10
  10   6  -9   34.30    7.10
  10   6  -9   33.40    7.40
 -10   6   9   26.20   10.50
 -10   6   9   23.60    4.90
  -8  -6   9   30.60    7.60
  -8  -6   9   31.40    6.10
  -8  -6   9   32.10    7.20
  -8  -6   9   31.40    8.50
  -8   6   9   29.20   10.60
  -8   6   9   28.80    6.10
  -8   6   9   32.40    7.10
   8   6  -9   28.20    6.70
  -8   6   9   28.30    4.80
   8   6  -9   33.90    6.20
  -6  -6   9  173.78   13.50
  -6  -6   9  168.38   14.80
  -6  -6   9  177.88   15.50
  -6  -6   9  165.48   12.40
  -6   6   9  149.49   10.80
  -6   6   9  162.78   18.10
   6   6  -9  145.09   12.90
   6   6  -9  146.49    8.80
  -6   6   9  153.68   13.20
  -6   6   9  160.88    9.60
   6   6  -9  156.48    9.60
  -4  -6   9    2.20    3.30
  -4  -6   9   16.10    5.60
  -4  -6   9   12.70    7.50
   4   6  -9   13.10    5.80
  -4   6   9    9.30    7.60
  -4   6   9    4.90    3.20
  -4   6   9    7.10    4.80
  -2  -6   9    2.70    3.90
  -2  -6   9    7.60    7.80
  -2  -6   9    4.00    4.10
  -2   6   9   -0.20    7.20
   2   6  -9   -0.30    5.10
  -2   6   9    2.30    5.10
  -2   6   9    8.30    3.00
   0  -6   9    4.10    9.40
   0  -6   9    6.30    4.60
   0  -6   9    6.30    5.10
   0   6   9   -1.70    7.70
   0   6   9   12.40    3.30
   0   6   9   28.80    7.90
   2  -6   9    2.00    4.50
  -2  -6  -9   -1.00    4.30
   2  -6   9    5.30    4.70
   2   6   9    5.10    2.70
   2   6   9    3.20    6.60
   4  -6   9   13.80    7.40
   4  -6   9   20.50    7.20
   4   6   9    6.90    8.70
   4   6   9   23.00    4.40
  17  -7  -9  275.17   21.70
 -17  -7   9  320.17   21.90
  17  -7  -9  312.87   24.20
  17   7  -9  295.07   22.20
 -17   7   9  310.67   28.70
 -17   7   9  305.57   18.80
  17   7  -9  312.17   22.90
  15  -7  -9  277.37   19.50
 -15  -7   9  341.37   21.80
  15  -7  -9  311.57   22.40
 -15   7   9  309.27   16.80
  15   7  -9  297.87   21.50
 -15   7   9  314.47   19.10
  15   7  -9  327.27   22.50
 -15   7   9  322.17   28.90
 -13  -7   9  310.27   19.60
  13  -7  -9  319.57   21.60
 -13  -7   9  338.57   19.90
  13  -7  -9  317.37   18.40
 -13  -7   9  354.86   21.40
 -13   7   9  314.37   15.70
  13   7  -9  298.27   20.90
 -13   7   9  292.27   27.30
  13   7  -9  333.17   21.50
 -13   7   9  328.17   19.70
  13   7  -9  362.66   24.60
 -11  -7   9  430.66   24.10
  11  -7  -9  458.85   24.50
 -11  -7   9  444.56   23.50
 -11  -7   9  451.95   23.60
  11   7  -9  460.45   25.70
 -11   7   9  459.15   24.10
 -11   7   9  450.05   20.10
  11   7  -9  384.16   24.10
 -11   7   9  460.95   32.40
   9  -7  -9  437.26   17.60
   9  -7  -9  453.65   25.00
  -9  -7   9  416.56   23.50
   9  -7  -9  452.55   17.60
  -9  -7   9  475.85   23.50
  -9  -7   9  431.46   24.10
  -9   7   9  453.55   32.20
  -9   7   9  420.66   18.60
   9   7  -9  411.16   24.30
   9   7  -9  474.35   23.10
  -9   7   9  443.46   24.10
  -7  -7   9  846.62   36.70
  -7  -7   9  818.42   43.10
  -7  -7   9  883.71   36.00
   7   7  -9  822.12   33.20
   7   7  -9  736.43   36.90
  -7   7   9  760.42   36.30
  -7   7   9  897.71   33.00
   7   7  -9  810.42   32.20
  -7   7   9  834.42   45.70
  -7   7   9  851.01   29.70
  -5  -7   9  362.16   24.90
  -5  -7   9  355.66   21.10
  -5  -7   9  358.76   20.40
   5   7  -9  359.56   15.90
  -5   7   9  367.06   28.20
   5   7  -9  336.47   22.60
  -5   7   9  363.16   15.90
   5   7  -9  365.16   17.10
  -5   7   9  380.66   14.70
  -5   7   9  379.16   22.60
  -3  -7   9   98.59   10.90
  -3  -7   9   91.79   11.00
  -3   7   9   98.19    6.00
   3   7  -9  109.99   14.70
  -3   7   9   93.69   12.60
  -3   7   9   95.99   15.80
  -3   7   9  107.79    5.80
  -1  -7   9  357.36   21.20
  -1  -7   9  343.47   21.70
  -1   7   9  362.46   23.10
   1   7  -9  374.86   24.40
  -1   7   9  363.96   27.50
   1  -7   9  315.97   20.50
   1  -7   9  324.67   21.20
   1   7   9  286.47   21.60
   1   7   9  292.97   25.20
   3  -7   9  169.78   16.50
   3  -7   9  180.48   17.20
   3   7   9  208.48   19.50
 -16  -8   9  813.62   37.70
  16  -8  -9  765.12   37.80
 -16   8   9  664.33   46.80
  16   8  -9  734.63   38.70
 -16   8   9  845.02   36.60
  16   8  -9  790.72   40.00
 -14  -8   9  848.72   38.30
 -14  -8   9  937.21   39.40
  14  -8  -9  753.42   36.50
 -14   8   9  838.52   32.80
 -14   8   9  879.01   37.90
  14   8  -9  816.42   40.80
 -14   8   9  791.72   48.50
  12  -8  -9  786.72   33.00
 -12  -8   9  807.72   35.90
 -12  -8   9  783.72   35.50
 -12   8   9  816.92   36.90
  12   8  -9  669.23   36.90
 -12   8   9  790.22   31.30
 -10  -8   9  660.53   30.90
  10  -8  -9  597.04   26.70
 -10  -8   9  623.54   30.50
  10   8  -9  622.94   33.00
 -10   8   9  648.54   41.20
  10   8  -9  679.23   32.60
 -10   8   9  623.74   25.10
 -10   8   9  632.34   32.30
  -8  -8   9  742.33   33.90
  -8  -8   9  753.62   34.10
   8  -8  -9  755.02   26.90
   8  -8  -9  749.62   27.20
  -8   8   9  807.22   36.60
   8   8  -9  701.63   33.10
   8   8  -9  703.43   36.30
   8   8  -9  794.92   33.30
  -8   8   9  785.62   30.60
  -8   8   9  763.12   45.60
  -8   8   9  689.03   26.90
  -6  -8   9  728.33   33.70
  -6  -8   9  743.43   34.00
   6   8  -9  729.93   31.20
   6   8  -9  744.63   32.00
   6   8  -9  710.03   37.20
  -6   8   9  730.13   43.90
  -6   8   9  745.93   25.50
  -6   8   9  763.62   27.10
  -6   8   9  797.12   36.90
  -4  -8   9  701.93   31.90
  -4  -8   9  672.13   31.80
   4   8  -9  686.03   27.90
  -4   8   9  670.63   34.10
  -4   8   9  664.23   41.10
   4   8  -9  612.84   34.40
   4   8  -9  589.24   26.00
  -2  -8   9  768.72   34.50
  -2  -8   9  741.93   33.70
  -2   8   9  680.53   41.90
  -2   8   9  697.23   35.70
   2   8  -9  633.74   25.40
   2   8  -9  685.43   37.30
   0  -8   9  355.96   22.50
   0  -8   9  326.47   21.30
   0   8  -9  313.47   25.10
   0   8   9  304.57   27.80
   0   8   9  340.07   24.10
 -13  -9   9   81.99   12.50
  13  -9  -9   84.49   13.10
 -13  -9   9   92.09   11.60
  13   9  -9   90.99   15.40
 -13   9   9   49.10   16.00
 -13   9   9   87.69   13.50
 -11  -9   9   31.20    7.60
 -11  -9   9   26.30    7.20
  11  -9  -9    7.60    7.50
 -11   9   9    3.20   12.80
 -11   9   9   32.50    9.80
  11   9  -9   37.00   11.50
  -9  -9   9   57.09    9.80
  -9  -9   9   48.80    9.10
  -9   9   9   64.79    8.80
   9   9  -9   49.60   10.50
   9   9  -9   66.39   13.50
  -9   9   9   50.79   11.50
  -9   9   9   51.39   16.60
   9   9  -9   42.70   14.50
  -7  -9   9  105.59   12.70
  -7  -9   9   93.49   11.30
   7   9  -9   92.09   15.40
  -7   9   9  108.69    7.40
  -7   9   9  107.99    9.50
  -7   9   9   95.39   18.80
   7   9  -9  104.59   15.40
   7   9  -9   96.69   13.50
  -7   9   9  113.49   15.50
  -5  -9   9   77.49   11.20
  -5  -9   9   78.69   11.20
   5   9  -9   86.09   12.30
   5   9  -9   99.89   16.10
  -5   9   9   89.19   14.50
  -5   9   9   91.29   19.40
  -3  -9   9   52.59    9.60
  -3  -9   9   61.79   10.20
  -3   9   9   43.70   15.10
   3   9  -9   40.50    9.60
  -3   9   9   46.40   11.60
   3   9  -9   65.69   13.70
 -22   0  10  603.54   34.00
  22   0 -10  609.74   32.50
  20   0 -10  476.05   26.10
 -20   0  10  483.95   25.10
 -20   0  10  470.15   28.00
 -18   0  10  947.61   38.80
 -18   0  10  979.50   42.60
  18   0 -10 1019.00   40.80
  16   0 -10 1649.23   65.49
  16   0 -10 1608.94   58.89
 -16   0  10 1635.74   61.49
 -16   0  10 1695.23   57.59
  14   0 -10 3345.57  112.59
 -14   0  10 3320.97  109.09
 -14   0  10 3182.18  105.09
  14   0 -10 3335.87  106.89
 -12   0  10 3358.56  106.49
 -12   0  10 3417.76  109.79
  12   0 -10 3356.46  107.69
  12   0 -10 3403.76  112.79
  10   0 -10 1915.11   65.89
 -10   0  10 2006.70   61.69
 -10   0  10 2000.80   70.49
  10   0 -10 1932.91   62.69
 -10   0  10 1623.74   60.79
 -10   0  10 1991.10   63.99
  -8   0  10 1576.54   51.09
  -8   0  10 1537.85   49.60
  -8   0  10 1528.35   49.70
  -8   0  10 1542.05   50.39
  -8   0  10 1537.45   58.09
  -6   0  10 1318.37   41.10
  -6   0  10 1318.37   41.40
  -6   0  10 1265.07   49.30
  -6   0  10 1256.67   40.80
  -6   0  10 1215.28   43.90
  -4   0  10 1846.02   57.99
  -4   0  10 1842.92   58.59
  -4   0  10 1809.32   62.79
  -4   0  10 1873.61   66.39
  -2   0  10 1124.69   44.90
  -2   0  10 1168.98   38.30
  -2   0  10 1181.38   44.20
  -2   0  10 1124.29   39.00
   0   0  10  398.86   21.70
   0   0 -10  388.36   18.80
   0   0  10  394.86   16.70
   0   0  10  388.56   14.70
   2   0  10  518.25   21.00
   2   0  10  514.55   26.50
   2   0  10  502.75   21.60
   2   0  10  535.15   22.10
   4   0  10  223.38   17.90
   4   0  10  220.18   15.40
   4   0  10  242.18   14.50
 -23  -1  10  136.89   16.20
  23  -1 -10  165.38   18.30
 -23   1  10  123.39   17.80
  23   1 -10  166.68   17.70
 -21  -1  10  253.77   20.50
  21  -1 -10  278.27   20.20
 -21   1  10  298.07   20.70
 -21   1  10  283.47   22.10
  21   1 -10  297.17   20.90
 -19  -1  10  163.78   14.40
  19  -1 -10  159.58   14.30
 -19  -1  10  172.78   15.20
 -19   1  10  179.68   16.20
 -19   1  10  160.08   13.50
  19   1 -10  169.18   14.90
  17  -1 -10  372.46   20.00
 -17  -1  10  348.57   20.70
 -17  -1  10  372.56   19.90
 -17   1  10  352.16   22.20
  17   1 -10  350.26   20.20
 -17   1  10  371.06   18.50
  15  -1 -10  552.94   24.50
  15  -1 -10  556.24   30.80
 -15  -1  10  582.54   26.40
 -15  -1  10  552.74   24.70
 -15   1  10  568.04   23.30
 -15   1  10  527.25   27.20
  15   1 -10  558.94   25.70
  15   1 -10  559.24   30.30
  13  -1 -10   71.79    7.10
 -13  -1  10   64.99    7.30
  13  -1 -10   69.99   11.50
 -13  -1  10   69.79    7.60
  13   1 -10   77.09   11.20
 -13   1  10   63.19    6.00
  13   1 -10   67.79    7.60
 -13   1  10   69.89    8.90
  11  -1 -10  247.38   17.10
 -11  -1  10  268.27   13.70
 -11  -1  10  283.37   18.50
  11  -1 -10  271.17   12.90
 -11  -1  10  273.77   13.70
  11   1 -10  277.47   14.50
 -11   1  10  292.17   16.30
 -11   1  10  282.27   11.90
  11   1 -10  270.87   16.50
  -9  -1  10  710.73   32.20
  -9  -1  10  709.23   24.50
  -9  -1  10  664.23   24.30
  -9  -1  10  657.43   25.20
  -9  -1  10  678.93   25.80
  -9   1  10  663.43   23.80
  -9   1  10  675.63   23.50
  -9   1  10  695.03   22.90
  -9   1  10  690.93   22.80
   9   1 -10  695.83   26.30
  -9   1  10  681.63   27.80
  -9   1  10  672.63   31.30
  -7  -1  10  422.46   22.30
  -7  -1  10  383.46   17.10
  -7  -1  10  393.66   16.20
  -7  -1  10  389.36   16.70
  -7   1  10  395.86   16.80
  -7   1  10  400.76   21.50
  -7   1  10  412.66   18.20
  -7   1  10  387.06   16.70
  -5  -1  10  519.15   21.80
  -5  -1  10  504.15   19.00
  -5  -1  10  409.36   19.00
  -5  -1  10  529.15   25.20
  -5   1  10  487.75   20.40
  -5   1  10  488.75   24.20
  -5   1  10  507.35   21.40
  -3  -1  10  406.16   21.80
  -3  -1  10  396.06   17.80
  -3  -1  10  400.06   16.80
  -3  -1  10  403.16   20.60
  -3   1  10  446.76   18.50
  -3   1  10  405.16   21.20
  -3   1  10  397.96   20.00
  -3   1  10  409.06   16.10
  -1  -1  10  213.28   11.50
  -1  -1  10  212.48   15.10
  -1  -1  10  199.28   12.90
  -1   1  10  206.68   14.50
   1   1 -10  206.48   13.50
  -1   1  10  224.78   11.10
  -1   1  10  211.88    9.70
  -1   1  10  229.18    9.40
  -1   1  10  211.78   12.80
  -1  -1 -10  202.48   13.10
   1  -1  10  196.18   15.20
   1  -1  10  212.18   12.30
   1   1  10  204.78   14.00
   1   1  10  206.68   12.50
   1   1  10  217.48   10.70
   1   1  10  202.28   14.80
   3  -1  10  139.99   14.00
   3  -1  10  147.89   11.30
   3   1  10  146.99   10.10
   3   1  10  150.38   13.70
   3   1  10  156.28   13.50
   5  -1  10   60.19    9.20
   5  -1  10   50.69    9.90
   5   1  10   48.90    9.80
   5   1  10   49.60    7.30
  22  -2 -10   96.79   14.00
 -22  -2  10  117.39   14.90
 -22   2  10   89.29   15.70
  22   2 -10  107.09   14.80
 -20  -2  10   58.09   10.30
  20  -2 -10   49.20    9.40
 -20   2  10   57.39    9.60
 -20   2  10   68.29   13.40
  20   2 -10   83.69   12.60
 -18  -2  10   57.19    9.70
  18  -2 -10   38.10    7.70
 -18  -2  10   33.30    7.60
 -18   2  10   47.20   10.10
  18   2 -10   26.90    8.10
 -18   2  10   43.10    7.00
 -16  -2  10  108.29   10.90
 -16  -2  10  137.09   12.00
  16  -2 -10  129.79   10.70
  16   2 -10  121.29   11.60
 -16   2  10  133.19    9.60
  16   2 -10  121.19   16.00
 -16   2  10   98.89   12.60
  14  -2 -10  393.06   24.70
 -14  -2  10  390.36   19.20
  14  -2 -10  386.56   18.20
 -14  -2  10  392.86   19.90
  14   2 -10  422.56   23.40
  14   2 -10  368.36   19.90
 -14   2  10  391.26   22.90
 -14   2  10  383.86   16.70
  12  -2 -10   63.49    5.90
 -12  -2  10   52.49    9.40
 -12  -2  10   55.49    6.30
  12  -2 -10   65.99   10.40
 -12  -2  10   73.19    8.50
 -12   2  10   68.19    9.70
  12   2 -10   54.89    8.90
 -12   2  10   62.69    4.90
  12   2 -10   65.79    7.80
 -10  -2  10   27.90    4.70
 -10  -2  10   22.80    6.40
 -10  -2  10   34.20    4.10
 -10  -2  10   33.70    4.00
  10  -2 -10   29.30    3.60
 -10  -2  10   22.50    4.90
  10  -2 -10   30.70    7.10
 -10   2  10   23.10    6.10
  10   2 -10   27.20    5.70
 -10   2  10   27.00    2.50
 -10   2  10   35.40    4.00
 -10   2  10   34.10    2.70
 -10   2  10   22.70    6.00
  -8  -2  10  228.38   12.00
  -8  -2  10  233.98   12.30
  -8  -2  10  232.38   12.70
  -8  -2  10  202.68   15.40
  -8   2  10  230.38   14.70
  -8   2  10  216.28   11.40
  -8   2  10  237.28   15.70
  -6  -2  10  125.49   11.30
  -6  -2  10  133.49    9.80
  -6  -2  10  127.09    8.40
  -6  -2  10  128.19    9.30
  -6   2  10  121.89    8.90
  -6   2  10  149.88   11.40
  -6   2  10  116.69   10.60
  -4  -2  10  285.17   14.90
  -4  -2  10  283.87   17.80
  -4  -2  10  281.47   13.80
  -4  -2  10  283.17   16.10
  -4   2  10  268.87   16.30
  -4   2  10  285.47   16.70
  -4   2  10  276.07   15.40
  -2  -2  10  359.96   16.90
  -2  -2  10  328.47   18.40
  -2  -2  10  374.36   20.90
  -2  -2  10  378.46   20.60
  -2   2  10  361.96   20.00
  -2   2  10  367.76   19.40
  -2   2  10  359.66   16.50
  -2   2  10  369.36   19.50
   0  -2  10   78.19    9.70
   0  -2  10   79.69    7.90
   0  -2 -10   80.69    6.40
   0   2  10   76.59    8.90
   0   2  10   90.69   11.30
   0   2  10   67.79    8.60
   2  -2  10   59.29    7.90
   2  -2  10   39.30    8.60
   2   2  10   48.90    8.70
   2   2  10   45.80    5.20
   2   2  10   38.00    8.50
   4  -2  10   64.29    9.10
   4  -2  10   62.59   11.00
   4   2  10   52.49    9.30
   4   2  10   71.89   18.20
   4   2  10   62.89    7.20
  21  -3 -10  537.75   30.20
 -21  -3  10  536.35   29.90
  21   3 -10  590.64   31.80
 -21   3  10  545.25   33.80
 -19  -3  10  637.74   31.10
  19  -3 -10  632.74   30.30
 -19   3  10  621.94   35.80
  19   3 -10  642.04   32.20
 -19   3  10  656.13   28.30
 -17  -3  10  661.13   30.00
 -17  -3  10  651.33   31.10
  17  -3 -10  639.04   28.90
  17   3 -10  694.83   32.00
 -17   3  10  668.03   27.00
 -17   3  10  627.94   34.50
 -15  -3  10 1274.37   48.10
 -15  -3  10 1207.98   46.10
  15  -3 -10 1241.78   45.20
  15   3 -10 1256.17   51.09
  15   3 -10 1315.57   49.00
 -15   3  10 1224.68   42.90
 -15   3  10 1216.58   52.59
 -13  -3  10 1039.00   40.50
 -13  -3  10 1040.40   37.90
  13  -3 -10 1003.10   36.60
 -13  -3  10 1066.69   45.00
  13  -3 -10 1000.60   45.50
  13   3 -10 1054.29   42.00
 -13   3  10 1021.70   44.90
  13   3 -10 1037.00   41.10
 -13   3  10 1046.70   35.00
 -11  -3  10 1054.19   34.90
  11  -3 -10 1025.40   43.30
 -11  -3  10 1028.50   44.10
  11  -3 -10 1044.50   34.60
 -11  -3  10 1047.70   40.00
 -11  -3  10 1039.80   38.90
  11   3 -10 1060.59   39.70
 -11   3  10 1030.40   35.50
  11   3 -10 1012.40   40.30
 -11   3  10 1052.99   33.10
 -11   3  10 1052.49   44.20
  -9  -3  10 1176.58   43.80
  -9  -3  10 1192.78   42.80
  -9  -3  10 1177.18   48.10
  -9  -3  10 1181.68   41.90
  -9   3  10 1194.18   48.30
  -9   3  10 1203.18   41.70
  -9   3  10 1192.38   47.00
   9   3 -10 1185.68   40.10
  -7  -3  10 1102.89   38.70
  -7  -3  10 1021.80   42.90
  -7  -3  10 1015.10   38.90
  -7  -3  10  969.90   39.00
  -7   3  10 1050.99   38.20
  -7   3  10 1086.79   43.60
  -7   3  10 1043.60   41.60
  -5  -3  10 1046.70   41.30
  -5  -3  10 1138.49   44.80
  -5  -3  10 1102.39   39.90
  -5  -3  10 1047.90   40.90
  -5   3  10 1130.89   45.50
  -5   3  10 1101.09   42.20
  -5   3  10 1050.09   40.30
  -3  -3  10  682.63   27.90
  -3  -3  10  657.43   30.40
  -3  -3  10  679.83   30.00
  -3  -3  10  706.53   32.10
  -3   3  10  677.73   32.70
  -3   3  10  707.53   29.60
  -3   3  10  726.63   30.20
  -1  -3  10  472.75   21.90
  -1  -3  10  469.25   24.70
  -1  -3  10  458.45   24.80
  -1   3  10  485.15   22.00
  -1   3  10  510.45   24.70
  -1   3  10  450.45   25.90
  -1   3  10  469.85   22.50
   1  -3  10  536.25   25.20
  -1  -3 -10  551.74   19.80
   1  -3  10  552.64   28.60
   1   3  10  560.64   28.40
   1   3  10  550.24   25.90
   1   3  10  564.34   25.80
   3  -3  10  369.96   21.10
   3  -3  10  359.86   23.70
   3   3  10  402.46   23.40
   3   3  10  377.56   15.30
   3   3  10  411.66   24.90
   3   3  10  392.16   21.40
   5  -3  10  183.48   15.90
   5  -3  10  181.88   17.80
   5   3  10  184.38   11.60
   5   3  10  216.28   15.30
   5   3  10  183.58   18.50
  20  -4 -10  202.58   18.10
 -20  -4  10  194.68   16.70
 -20   4  10  221.18   20.70
 -20   4  10  189.98   21.50
  20   4 -10  233.88   19.00
  20   4 -10  172.48   11.60
  18  -4 -10  257.77   17.70
 -18  -4  10  229.28   16.70
  18  -4 -10  264.47   11.60
  18   4 -10  272.37   12.00
 -18   4  10  268.87   15.70
 -18   4  10  278.47   23.80
  18   4 -10  234.78   18.50
 -16  -4  10  452.95   22.60
  16  -4 -10  442.86   22.20
 -16  -4  10  454.55   27.10
 -16  -4  10  458.15   25.30
  16   4 -10  441.36   28.60
  16   4 -10  477.65   17.30
 -16   4  10  456.75   19.90
 -16   4  10  458.45   28.90
  16   4 -10  465.95   25.20
  14  -4 -10  259.37   13.90
 -14  -4  10  254.97   18.90
 -14  -4  10  233.98   17.00
  14   4 -10  247.28   11.30
 -14   4  10  240.78   10.90
 -14   4  10  250.47   12.00
  14   4 -10  259.17   19.10
  14   4 -10  268.27   17.30
 -14   4  10  253.07   21.00
 -12  -4  10  401.66   16.20
  12  -4 -10  373.86   24.30
 -12  -4  10  409.46   23.50
 -12  -4  10  380.26   20.80
  12  -4 -10  388.76   16.00
 -12  -4  10  403.26   19.80
 -12   4  10  412.06   26.10
  12   4 -10  400.96   21.30
 -12   4  10  354.46   16.50
 -12   4  10  385.26   20.20
  12   4 -10  371.86   16.20
  12   4 -10  378.36   20.90
 -12   4  10  380.26   14.40
 -10  -4  10  779.12   29.70
 -10  -4  10  784.52   35.70
 -10  -4  10  734.03   32.30
 -10  -4  10  764.62   31.30
 -10   4  10  740.13   37.40
 -10   4  10  808.92   30.40
  10   4 -10  788.12   29.00
  10   4 -10  734.13   29.50
  -8  -4  10  733.03   31.40
  -8  -4  10  770.32   30.20
  -8  -4  10  725.13   33.60
  -8  -4  10  715.43   30.40
  -8   4  10  715.73   31.90
  -8   4  10  750.72   36.30
  -8   4  10  703.43   29.30
  -6  -4  10  355.16   18.10
  -6  -4  10  364.76   19.80
  -6  -4  10  389.36   21.70
  -6  -4  10  353.36   19.70
  -6   4  10  358.06   19.20
  -6   4  10  336.17   18.10
  -6   4  10  367.46   23.50
  -4  -4  10  284.37   18.60
  -4  -4  10  279.77   18.20
  -4  -4  10  308.77   18.60
  -4  -4  10  309.57   16.50
  -4   4  10  299.87   17.50
  -4   4  10  301.87   16.50
  -4   4  10  302.27   21.60
  -2  -4  10  347.87   20.80
  -2  -4  10  326.07   20.80
  -2  -4  10  333.77   18.00
  -2   4  10  339.87   23.50
  -2   4  10  335.07   19.70
  -2   4  10  342.17   17.60
   0  -4  10  228.78   16.90
   0  -4  10  255.97   19.70
   0  -4  10  229.58   15.30
   0   4  10  251.17   16.60
   0   4  10  223.18   16.80
   0   4  10  237.58   14.30
   0   4  10  218.98   19.60
   2  -4  10  212.58   15.80
   2  -4  10  225.68   17.50
   2   4  10  222.78   14.80
   2   4  10  227.78   18.20
   4  -4  10  120.29   13.20
   4  -4  10  111.09   14.40
   4   4  10  102.09    7.10
   4   4  10  117.79   10.90
   4   4  10  124.79   15.50
  19  -5 -10   20.30    9.10
  19  -5 -10   -0.80    6.90
  19   5 -10   22.80    7.20
  19   5 -10   10.80    8.30
 -19   5  10   15.70   10.30
  17  -5 -10    6.20    5.40
 -17  -5  10    7.50    5.90
  17  -5 -10    5.80    6.00
  17   5 -10   11.30    6.80
  17   5 -10    5.30    5.40
 -17   5  10    8.50    8.80
 -17   5  10    9.90    5.10
 -15  -5  10   49.20    9.70
  15  -5 -10   52.99    7.10
 -15  -5  10   37.70    9.40
  15  -5 -10   35.90    6.80
 -15   5  10   30.20   10.70
  15   5 -10   43.50   11.20
 -15   5  10   43.80    5.80
  15   5 -10   44.90    9.20
  15   5 -10   44.90    6.90
 -15   5  10   38.60    5.60
 -13  -5  10  146.49   14.20
 -13  -5  10  151.38   10.20
 -13  -5  10  149.19   14.60
 -13   5  10  153.48   16.90
  13   5 -10  135.89   10.60
 -13   5  10  149.29    8.20
  13   5 -10  139.29   13.40
  13   5 -10  148.79   15.00
 -13   5  10  162.78   10.80
 -11  -5  10   17.70    6.10
 -11  -5  10   11.70    4.80
 -11  -5  10   14.20    4.70
 -11  -5  10   13.30    6.90
  11  -5 -10   15.00    3.10
 -11   5  10   17.00    5.20
  11   5 -10   15.60    4.90
  11   5 -10   21.20    6.40
 -11   5  10   12.80    8.00
 -11   5  10   15.50    5.10
  -9  -5  10   59.39    8.70
  -9  -5  10   52.09    9.40
  -9  -5  10   60.99    7.50
  -9  -5  10   51.79    9.30
  -9   5  10   67.79    8.80
  -9   5  10   55.79   11.50
  -9   5  10   69.49    8.80
   9   5 -10   52.09    7.90
   9   5 -10   62.69    7.40
  -7  -5  10   94.49   11.80
  -7  -5  10  101.39   12.40
  -7  -5  10  115.69   10.10
  -7  -5  10  117.89   11.70
  -7   5  10  130.49   15.60
   7   5 -10  134.59   11.20
  -7   5  10  115.89   10.90
  -7   5  10  114.99   10.50
  -5  -5  10   38.60    8.70
  -5  -5  10   22.70    6.70
  -5  -5  10   26.10    8.00
  -5  -5  10   29.70    5.90
  -5   5  10   36.20   10.40
  -5   5  10   26.80    6.60
  -5   5  10   42.60    6.80
  -3  -5  10  158.78   12.00
  -3  -5  10  144.29   14.90
  -3  -5  10  128.19   12.70
  -3   5  10  135.59    9.90
  -3   5  10  131.79   12.50
  -3   5  10  134.99   16.80
  -1  -5  10  115.39   10.60
  -1  -5  10  110.19   14.40
  -1  -5  10   95.79   11.30
  -1   5  10   94.59   15.30
  -1   5  10  108.99   12.70
  -1   5  10   98.59    8.60
   1  -5  10   31.80   11.90
   1  -5  10   15.40    6.50
   1  -5  10   29.40    7.30
   1   5  10   23.00   10.50
   1   5  10   14.90    7.10
   1   5  10   26.70    5.90
   3  -5  10   19.80    7.70
   3  -5  10   20.50    7.70
   3   5  10   21.70    8.20
   3   5  10   23.10    5.60
 -18  -6  10  479.75   28.30
  18  -6 -10  436.66   25.50
  18   6 -10  433.26   27.30
 -18   6  10  393.06   31.30
  18   6 -10  395.56   23.50
  16  -6 -10  716.33   31.60
  16  -6 -10  679.13   30.60
 -16  -6  10  726.03   35.90
 -16   6  10  736.33   29.10
 -16   6  10  726.43   28.30
 -16   6  10  720.13   43.10
  16   6 -10  621.94   30.60
  16   6 -10  701.03   35.30
 -14  -6  10  636.54   33.00
  14  -6 -10  647.54   28.70
  14  -6 -10  670.33   27.80
 -14  -6  10  673.63   27.40
 -14  -6  10  645.44   30.60
  14   6 -10  641.44   33.60
 -14   6  10  664.33   28.10
  14   6 -10  603.74   28.90
 -14   6  10  667.83   25.10
  14   6 -10  725.63   33.80
 -14   6  10  689.53   40.60
 -12  -6  10  582.84   30.30
 -12  -6  10  589.64   25.90
 -12  -6  10  606.64   27.90
  12  -6 -10  594.64   22.70
 -12  -6  10  576.34   30.00
 -12   6  10  514.55   35.20
  12   6 -10  586.94   28.80
 -12   6  10  598.74   26.80
 -12   6  10  593.04   26.00
  12   6 -10  555.34   26.80
 -12   6  10  575.04   20.70
 -10  -6  10  833.12   35.60
 -10  -6  10  841.82   38.30
 -10  -6  10  890.81   35.80
 -10  -6  10  830.62   38.60
  10   6 -10  880.41   34.40
 -10   6  10  835.02   45.00
 -10   6  10  907.71   36.30
 -10   6  10  833.72   32.90
  10   6 -10  851.71   35.80
  -8  -6  10 1055.99   42.80
  -8  -6  10 1068.69   44.40
  -8  -6  10 1043.80   41.50
  -8  -6  10 1026.50   44.40
   8   6 -10 1048.80   42.40
  -8   6  10 1081.99   41.40
  -8   6  10 1040.70   38.00
   8   6 -10 1024.20   36.30
  -8   6  10 1077.59   51.99
  -8   6  10 1050.49   42.30
   8   6 -10 1002.60   36.00
  -6  -6  10  773.52   35.40
  -6  -6  10  756.72   33.00
  -6  -6  10  737.23   35.90
   6   6 -10  833.52   35.50
  -6   6  10  760.62   30.90
  -6   6  10  787.92   34.70
  -6   6  10  757.82   41.90
  -4  -6  10  274.87   16.90
  -4  -6  10  264.77   18.30
  -4  -6  10  265.77   20.50
  -4   6  10  228.58   17.00
  -4   6  10  267.67   13.70
  -4   6  10  241.88   23.30
  -2  -6  10  138.59   17.60
  -2  -6  10  169.88   13.90
  -2  -6  10  192.68   15.50
  -2   6  10  180.38   15.50
  -2   6  10  145.99   20.10
  -2   6  10  185.68   10.70
   0  -6  10  267.97   18.90
   0  -6  10  314.57   27.00
   0  -6  10  274.37   20.00
   0   6  10  295.27   21.10
   0   6  10  261.47   24.20
   0   6  10  304.47   14.00
   2  -6  10  308.07   22.30
   2  -6  10  319.47   21.30
   2   6  10  310.97   23.30
   2   6  10  293.87   25.70
   2   6  10  309.67   14.20
 -17  -7  10  276.17   21.00
  17  -7 -10  260.77   20.30
 -17   7  10  258.07   27.90
 -17   7  10  284.57   17.90
  17   7 -10  275.17   22.20
  17   7 -10  260.47   20.80
 -15  -7  10  398.96   21.70
  15  -7 -10  416.76   24.80
  15  -7 -10  389.96   21.90
 -15  -7  10  395.26   23.20
 -15  -7  10  375.36   24.20
  15   7 -10  335.87   22.90
 -15   7  10  380.26   32.40
 -15   7  10  426.36   22.00
  15   7 -10  413.06   25.90
 -15   7  10  434.66   18.90
 -13  -7  10  259.37   17.30
  13  -7 -10  225.08   18.30
 -13  -7  10  259.97   17.70
 -13  -7  10  234.18   18.10
  13   7 -10  204.68   17.10
  13   7 -10  222.98   21.10
 -13   7  10  225.98   24.00
 -13   7  10  250.77   12.30
 -13   7  10  234.18   16.80
 -11  -7  10  376.26   21.10
  11  -7 -10  358.06   15.20
  11  -7 -10  348.87   15.10
 -11  -7  10  338.47   21.40
 -11  -7  10  352.06   21.10
  11   7 -10  365.66   22.30
 -11   7  10  311.17   28.40
 -11   7  10  362.36   21.40
 -11   7  10  333.17   17.20
  11   7 -10  314.37   21.10
  -9  -7  10  382.86   21.60
  -9  -7  10  409.96   26.50
  -9  -7  10  369.66   22.30
  -9   7  10  343.47   29.30
  -9   7  10  379.76   22.60
   9   7 -10  347.57   22.50
   9   7 -10  375.56   19.90
  -9   7  10  410.36   21.10
   9   7 -10  400.26   19.30
  -9   7  10  365.96   17.20
  -7  -7  10  363.96   20.60
  -7  -7  10  374.16   22.10
  -7   7  10  364.06   15.90
   7   7 -10  341.97   15.60
   7   7 -10  342.67   16.10
   7   7 -10  357.66   22.70
  -7   7  10  342.47   17.70
  -7   7  10  324.17   28.70
  -7   7  10  348.37   21.40
  -5  -7  10  516.05   27.30
  -5  -7  10  535.45   26.40
  -5   7  10  493.05   19.60
  -5   7  10  521.05   27.90
  -5   7  10  513.85   20.90
  -5   7  10  452.75   33.80
   5   7 -10  537.15   29.00
  -3  -7  10  515.55   26.70
  -3  -7  10  537.45   28.20
  -3   7  10  535.35   19.70
   3   7 -10  524.85   30.10
  -3   7  10  476.45   34.50
  -3   7  10  513.55   19.20
  -3   7  10  532.85   28.80
  -1  -7  10  519.55   28.70
  -1  -7  10  513.45   27.10
  -1   7  10  502.55   35.00
  -1   7  10  520.15   29.60
 -16  -8  10   62.49   11.90
 -16  -8  10   40.00    9.20
  16  -8 -10   36.60   12.30
 -16   8  10   32.90   13.90
 -16   8  10   57.19   11.10
  16   8 -10   51.09   12.50
 -14  -8  10    6.20    5.80
 -14  -8  10   11.70    6.70
  14  -8 -10    1.80    7.20
 -14   8  10   10.70   11.00
 -14   8  10    0.80    7.30
  14   8 -10    0.00    9.40
 -12  -8  10    2.70    5.10
 -12  -8  10   -0.40    4.80
  12  -8 -10    0.40    5.80
 -12   8  10   -4.70   10.30
  12   8 -10   -4.90   12.80
 -12   8  10    0.60    6.90
  12   8 -10    9.00    8.40
  10  -8 -10   63.79    7.40
 -10  -8  10   61.89   10.10
 -10  -8  10   67.99   11.10
  10   8 -10   67.29   12.40
 -10   8  10   70.19    9.90
 -10   8  10   50.99    7.00
 -10   8  10   46.20   10.50
 -10   8  10   86.59   18.80
  10   8 -10   66.99   12.80
  -8  -8  10   47.90    9.00
  -8  -8  10   42.20    8.50
  -8   8  10   46.00   10.30
   8   8 -10   40.30    8.40
   8   8 -10   33.60   10.50
  -8   8  10   33.70    6.50
  -8   8  10   24.40   14.50
  -8   8  10   36.00    5.30
  -6  -8  10   81.99   11.40
  -6  -8  10   99.39   11.80
   6   8 -10   98.09   10.10
  -6   8  10   88.09    6.30
  -6   8  10   88.79    7.10
  -6   8  10  108.39   14.60
  -6   8  10   91.39   18.30
   6   8 -10   97.49   14.20
  -4  -8  10   51.79    9.40
  -4  -8  10   43.50    9.00
   4   8 -10   38.00   11.10
  -4   8  10   35.60   10.10
  -4   8  10   29.90   14.30
  -2  -8  10   13.50    7.00
  -2  -8  10    3.90    6.40
   2   8 -10    9.60    9.40
  -2   8  10    7.30   13.00
  -2   8  10   15.90    9.10
 -11  -9  10  638.44   32.80
 -11  -9  10  675.13   32.80
 -11   9  10  649.34   45.10
  11   9 -10  627.84   36.20
 -11   9  10  667.13   34.80
  -9  -9  10  581.74   30.40
  -9  -9  10  585.14   31.00
  -9   9  10  593.94   43.60
  -9   9  10  636.04   34.30
  -9   9  10  612.64   26.10
   9   9 -10  617.04   35.70
   9   9 -10  637.84   31.30
  -7  -9  10  499.45   27.60
  -7  -9  10  497.75   27.50
   7   9 -10  485.65   31.40
  -7   9  10  466.75   38.50
  -7   9  10  569.74   32.60
   7   9 -10  473.15   25.70
  -5  -9  10  359.66   26.30
  -5  -9  10  358.56   22.80
  -5   9  10  406.16   26.70
  -5   9  10  367.06   32.20
   5   9 -10  382.16   28.60
 -22   0  11   -5.40    6.30
  22   0 -11    6.50    7.80
 -20   0  11   -4.30    6.90
 -20   0  11    5.80    6.00
  20   0 -11   -7.00    5.70
 -18   0  11   -1.60    5.20
  18   0 -11    6.30    5.30
 -18   0  11   -3.10    4.90
  16   0 -11    2.90    9.70
  16   0 -11    3.90    4.60
 -16   0  11   -5.80    4.10
 -16   0  11   -2.80    3.80
 -14   0  11   -2.20    3.20
 -14   0  11    0.30    3.70
  14   0 -11   -1.30    3.20
  14   0 -11   10.60    7.90
 -12   0  11    2.50    3.60
 -12   0  11    2.10    4.00
  12   0 -11    9.50    6.40
 -12   0  11    0.00    2.50
  12   0 -11    3.10    3.20
 -10   0  11    2.90    2.20
 -10   0  11    3.50    1.90
 -10   0  11    0.80    2.10
 -10   0  11   -1.80    2.90
 -10   0  11   -1.30    1.90
 -10   0  11    2.60    3.80
  -8   0  11    3.10    3.10
  -8   0  11   -2.50    1.40
  -8   0  11    0.00    3.30
  -8   0  11    2.00    1.90
  -8   0  11    0.10    2.30
  -6   0  11   -1.10    1.80
  -6   0  11    3.30    4.00
  -6   0  11   -2.00    3.40
  -6   0  11    0.70    1.60
  -4   0  11    0.20    1.90
  -4   0  11   -1.20    3.40
  -4   0  11    2.80    2.30
  -4   0  11    0.60    5.00
  -2   0  11   -0.60    2.20
  -2   0  11    0.80    2.90
  -2   0  11    1.40    3.80
   0   0  11    0.70    4.20
   0   0  11    5.30    4.80
   0   0  11   -2.10    2.90
   2   0  11   -0.50    5.40
   2   0  11   -5.60    3.80
 -21  -1  11  318.57   22.00
  21  -1 -11  326.57   21.70
 -21   1  11  295.27   22.20
  21   1 -11  290.17   21.00
 -21   1  11  294.87   20.20
 -19  -1  11  291.07   19.70
  19  -1 -11  274.67   18.50
 -19  -1  11  281.77   18.80
  19   1 -11  307.47   20.10
 -19   1  11  276.67   21.10
 -19   1  11  299.37   17.80
 -17  -1  11  557.94   27.90
  17  -1 -11  553.14   26.40
 -17  -1  11  571.24   26.50
 -17   1  11  572.84   24.80
 -17   1  11  593.44   30.10
  17   1 -11  622.34   28.30
 -15  -1  11  476.65   21.70
 -15  -1  11  414.96   21.90
  15  -1 -11  444.56   21.10
  15  -1 -11  483.75   28.70
  15   1 -11  449.46   26.20
  15   1 -11  426.86   21.90
 -15   1  11  459.75   24.10
 -15   1  11  459.15   19.60
  13  -1 -11  942.31   34.90
  13  -1 -11  952.00   41.40
 -13  -1  11  964.30   36.30
 -13  -1  11  948.81   35.60
 -13  -1  11  911.61   42.30
 -13   1  11 1025.70   33.60
  13   1 -11  915.01   39.60
 -13   1  11  972.40   39.00
  13   1 -11  946.01   36.80
  11  -1 -11  611.94   28.80
 -11  -1  11  644.44   32.10
 -11  -1  11  676.03   25.00
 -11  -1  11  653.33   25.50
 -11  -1  11  658.23   25.20
 -11   1  11  649.04   22.90
 -11   1  11  666.63   32.20
 -11   1  11  658.43   22.60
  11   1 -11  628.24   27.30
 -11   1  11  636.14   27.70
  -9  -1  11  207.38   11.00
  -9  -1  11  214.48   16.20
  -9  -1  11  199.58   10.60
  -9  -1  11  194.78   10.70
  -9  -1  11  216.08    8.90
  -9   1  11  193.38   10.00
  -9   1  11  207.18   12.40
  -9   1  11  199.08   10.30
  -9   1  11  211.98   15.70
  -7  -1  11  549.25   27.80
  -7  -1  11  542.75   20.90
  -7  -1  11  547.65   21.60
  -7  -1  11  530.45   22.90
  -7   1  11  549.65   22.50
  -7   1  11  567.84   22.70
  -7   1  11  550.64   22.40
  -7   1  11  559.24   27.50
  -5  -1  11  625.14   29.80
  -5  -1  11  611.44   22.90
  -5  -1  11  613.84   23.80
  -5  -1  11  594.24   26.40
  -5   1  11  606.04   21.90
  -5   1  11  602.54   26.30
  -5   1  11  637.74   29.40
  -5   1  11  631.74   23.60
  -3  -1  11  453.35   18.00
  -3  -1  11  412.26   18.70
  -3  -1  11  429.06   23.50
  -3  -1  11  425.66   22.60
  -3   1  11  437.76   17.90
  -3   1  11  398.76   22.10
  -3   1  11  438.86   16.60
  -3   1  11  422.16   22.70
  -1  -1  11  327.47   20.40
  -1  -1  11  291.27   16.90
  -1  -1  11  324.57   15.50
  -1   1  11  307.27   19.00
  -1   1  11  325.97   16.00
  -1   1  11  360.36   14.90
  -1   1  11  344.27   12.60
  -1   1  11  318.07   12.70
   1  -1  11  250.37   14.50
   1  -1  11  257.07   18.70
   1   1  11  277.27   12.40
   1   1  11  252.37   16.20
   1   1  11  238.18   13.30
   1   1  11  285.47   14.90
   1   1  11  274.77   18.40
   3  -1  11  139.99   15.90
   3  -1  11  178.18   12.90
   3   1  11  151.18   10.50
   3   1  11  167.38   16.00
   3   1  11  143.09   15.30
  22  -2 -11  196.18   18.60
 -22  -2  11  170.18   17.40
 -22   2  11  200.18   19.60
  22   2 -11  213.78   19.10
 -20  -2  11  312.87   22.60
  20  -2 -11  309.37   20.90
 -20  -2  11  322.57   21.90
  20   2 -11  386.36   23.20
 -20   2  11  361.06   19.80
 -20   2  11  316.67   24.00
  18  -2 -11  521.75   25.80
 -18  -2  11  544.05   26.90
 -18  -2  11  542.05   26.90
 -18   2  11  502.35   23.40
  18   2 -11  521.65   27.50
 -18   2  11  557.34   30.20
 -16  -2  11  645.44   29.10
 -16  -2  11  590.24   28.00
  16  -2 -11  659.33   27.70
  16   2 -11  610.44   33.00
 -16   2  11  650.43   25.50
 -16   2  11  644.84   32.60
  16   2 -11  687.73   30.30
  14  -2 -11  741.63   36.90
 -14  -2  11  767.22   30.80
 -14  -2  11  754.92   29.50
  14  -2 -11  721.33   28.20
 -14  -2  11  683.93   35.30
  14   2 -11  688.63   30.90
 -14   2  11  688.63   26.10
  14   2 -11  720.33   33.70
 -14   2  11  744.73   34.10
 -12  -2  11  554.44   21.50
 -12  -2  11  586.84   23.60
 -12  -2  11  581.84   24.20
 -12  -2  11  545.75   29.10
  12  -2 -11  514.25   20.40
  12  -2 -11  540.95   28.00
 -12   2  11  566.74   19.00
 -12   2  11  515.55   28.30
  12   2 -11  510.35   24.30
  12   2 -11  489.45   24.80
 -12   2  11  507.75   26.10
 -10  -2  11  669.43   24.70
 -10  -2  11  621.64   26.00
 -10  -2  11  689.83   27.20
 -10  -2  11  691.93   33.00
 -10   2  11  617.94   23.30
  10   2 -11  677.83   24.90
 -10   2  11  676.73   30.00
 -10   2  11  678.53   32.10
 -10   2  11  676.53   24.50
  -8  -2  11  623.34   25.60
  -8  -2  11  615.14   25.50
  -8  -2  11  608.64   24.80
  -8  -2  11  662.53   31.40
  -8   2  11  613.54   27.60
  -8   2  11  638.64   25.00
  -8   2  11  651.03   30.40
  -6  -2  11  779.62   30.70
  -6  -2  11  782.32   32.00
  -6  -2  11  765.72   35.50
  -6  -2  11  788.42   29.70
  -6   2  11  827.62   31.70
  -6   2  11  808.32   34.70
  -6   2  11  808.82   32.90
  -4  -2  11  509.95   23.00
  -4  -2  11  518.85   26.80
  -4  -2  11  539.35   25.10
  -4  -2  11  503.75   21.40
  -4   2  11  541.35   21.10
  -4   2  11  525.85   25.60
  -4   2  11  529.75   24.40
  -4   2  11  494.95   24.10
  -2  -2  11  103.59   11.10
  -2  -2  11  125.09   12.30
  -2  -2  11  106.79    8.70
  -2   2  11  110.29   10.80
  -2   2  11  120.59   11.70
  -2   2  11  100.59   10.80
  -2   2  11  130.69    9.60
   0  -2  11  227.98   13.80
   0  -2  11  246.28   17.70
   0  -2  11  222.58   17.10
   0   2  11  219.38   15.70
   0   2  11  209.08   17.10
   0   2  11  229.98   14.50
   2  -2  11  222.88   15.00
   2  -2  11  236.08   18.30
   2   2  11  208.48   16.60
   2   2  11  208.68   18.50
   2   2  11  220.58   10.20
  21  -3 -11   41.40   10.30
 -21  -3  11   39.10    9.60
 -21   3  11   23.60   10.40
  21   3 -11   50.79   11.30
  19  -3 -11   17.50    7.20
 -19  -3  11   11.60    6.50
 -19  -3  11   24.70   10.90
 -19   3  11   22.70    9.10
  19   3 -11   23.40    8.00
 -19   3  11   25.40    6.40
 -17  -3  11   28.80    8.40
  17  -3 -11   23.50    6.90
 -17  -3  11   28.60    6.80
  17   3 -11   20.30    7.40
 -17   3  11   45.10   10.20
 -17   3  11   37.00    5.70
 -15  -3  11   19.50    5.00
 -15  -3  11   14.90    6.60
  15  -3 -11    9.40    4.60
 -15  -3  11   14.00    6.50
 -15   3  11   18.10    7.60
 -15   3  11    6.10    3.20
  15   3 -11   13.40    6.00
  15   3 -11   15.30    9.30
 -13  -3  11    2.20    3.10
  13  -3 -11    6.00    3.40
  13  -3 -11   12.60    8.60
 -13  -3  11    3.50    4.40
 -13  -3  11    4.40    5.40
  13   3 -11    4.00    4.30
 -13   3  11   -0.70    5.40
  13   3 -11   -0.60    6.60
 -13   3  11    3.30    2.00
 -11  -3  11  111.39   12.40
 -11  -3  11  108.99   10.40
 -11  -3  11  102.89    8.90
 -11  -3  11  109.19    7.50
 -11   3  11  100.49    7.60
 -11   3  11   89.69   12.30
 -11   3  11  103.79   11.50
  11   3 -11  102.99   10.00
  -9  -3  11   12.00    4.90
  -9  -3  11    5.40    4.50
  -9  -3  11   10.50    4.80
  -9  -3  11    2.40    2.90
  -9   3  11    2.60    3.40
  -9   3  11    5.90    4.60
  -9   3  11   -2.30    5.20
  -7  -3  11    3.00    5.10
  -7  -3  11    1.70    3.00
  -7  -3  11   -1.10    4.20
  -7  -3  11    2.70    3.90
  -7   3  11    2.50    3.60
  -7   3  11    2.80    3.60
  -7   3  11    0.20    5.30
  -5  -3  11   16.20    6.60
  -5  -3  11    5.00    5.10
  -5  -3  11   10.50    5.00
  -5  -3  11    6.20    3.50
  -5   3  11    9.90    4.60
  -5   3  11   12.70    4.80
  -5   3  11   18.60    7.50
  -3  -3  11    1.60    3.40
  -3  -3  11    5.90    4.20
  -3  -3  11    3.30    5.60
  -3   3  11    2.30    3.90
  -3   3  11    4.00    6.20
  -3   3  11    6.90    4.80
  -3   3  11   -0.70    4.40
  -1  -3  11   24.50    6.80
  -1  -3  11   18.50    5.10
  -1  -3  11    9.30    7.70
  -1   3  11   17.30    6.70
  -1   3  11   23.10    9.00
  -1   3  11   10.90    6.20
  -1   3  11   18.30    5.80
   1  -3  11   30.10    8.50
   1  -3  11   32.70    7.10
   1   3  11   32.30    8.60
   1   3  11   18.40   10.00
   1   3  11   23.80    6.90
   1   3  11   32.80    9.50
  20  -4 -11  384.56   24.50
 -20  -4  11  410.16   24.10
  20   4 -11  401.26   26.00
 -20   4  11  439.06   31.00
  18  -4 -11  471.45   24.90
 -18  -4  11  517.75   30.60
 -18  -4  11  529.55   25.70
 -18   4  11  503.95   22.50
  18   4 -11  471.85   27.50
 -18   4  11  548.25   33.30
 -16  -4  11  560.04   28.80
 -16  -4  11  569.74   31.60
  16  -4 -11  562.64   25.10
  16   4 -11  595.94   29.40
 -16   4  11  565.64   33.30
 -16   4  11  533.25   22.20
  16   4 -11  571.54   32.30
 -14  -4  11  848.72   39.70
 -14  -4  11  859.41   36.40
 -14   4  11  762.72   40.40
 -14   4  11  812.52   27.40
 -14   4  11  820.22   28.40
  14   4 -11  857.21   36.80
  14   4 -11  816.72   37.00
 -12  -4  11 1012.90   44.20
 -12  -4  11  988.90   40.20
 -12  -4  11  939.41   38.10
 -12  -4  11  979.60   34.30
  12  -4 -11  992.10   31.90
 -12   4  11  956.00   35.00
  12   4 -11 1011.30   38.80
 -12   4  11  966.00   45.10
 -10  -4  11  787.62   37.40
 -10  -4  11  830.62   31.90
 -10  -4  11  829.22   34.60
 -10  -4  11  829.12   32.90
  10   4 -11  791.32   28.20
 -10   4  11  829.22   36.60
 -10   4  11  797.22   39.30
 -10   4  11  788.72   31.60
  -8  -4  11  789.82   36.20
  -8  -4  11  743.33   31.60
  -8  -4  11  798.22   32.80
  -8  -4  11  767.72   33.30
  -8   4  11  782.72   34.30
  -8   4  11  752.92   37.70
  -8   4  11  802.42   32.00
  -6  -4  11  768.22   34.90
  -6  -4  11  706.83   32.20
  -6  -4  11  735.33   32.70
  -6  -4  11  702.73   30.10
  -6   4  11  689.83   36.40
  -6   4  11  742.33   31.90
  -6   4  11  761.62   31.60
  -4  -4  11  502.35   26.30
  -4  -4  11  514.55   27.50
  -4  -4  11  526.15   24.10
  -4   4  11  549.05   25.90
  -4   4  11  507.25   29.80
  -4   4  11  507.55   24.30
  -2  -4  11  322.67   21.90
  -2  -4  11  332.77   18.20
  -2  -4  11  330.77   20.80
  -2   4  11  316.97   20.00
  -2   4  11  310.87   23.90
  -2   4  11  314.87   17.60
  -2   4  11  321.17   19.20
   0  -4  11  217.88   21.80
   0  -4  11  270.97   17.00
   0  -4  11  229.98   18.70
   0   4  11  292.27   20.00
   0   4  11  269.77   19.00
   0   4  11  229.38   21.80
   0   4  11  245.28   15.80
   2  -4  11  207.08   18.70
   2  -4  11  221.08   17.10
   2   4  11  224.38   19.20
   2   4  11  237.48   15.70
   2   4  11  214.78   21.80
  19  -5 -11  452.25   27.00
 -19  -5  11  548.75   31.70
  19   5 -11  482.15   29.20
 -19   5  11  512.35   35.20
  19   5 -11  532.05   19.40
 -17  -5  11  660.23   35.00
  17  -5 -11  657.23   29.20
  17   5 -11  646.94   23.60
  17   5 -11  631.54   32.70
 -17   5  11  603.74   25.40
 -17   5  11  627.24   38.20
  15  -5 -11  749.82   29.30
 -15  -5  11  720.13   35.50
 -15  -5  11  708.83   36.70
  15   5 -11  754.72   35.50
 -15   5  11  746.93   27.10
  15   5 -11  701.13   36.60
 -15   5  11  725.83   26.70
  15   5 -11  790.52   27.70
 -15   5  11  673.83   40.20
  13  -5 -11  533.55   20.00
 -13  -5  11  548.45   29.70
 -13  -5  11  509.35   25.10
 -13  -5  11  516.95   21.60
 -13  -5  11  502.95   27.30
 -13   5  11  513.55   32.70
  13   5 -11  495.25   26.80
  13   5 -11  521.95   22.00
 -13   5  11  543.65   22.70
 -11  -5  11  755.22   31.20
 -11  -5  11  644.54   32.40
 -11  -5  11  749.42   35.50
 -11  -5  11  729.23   29.30
 -11   5  11  718.63   39.20
 -11   5  11  648.74   32.80
  11   5 -11  682.33   28.90
  11   5 -11  743.93   28.80
 -11   5  11  712.93   34.30
 -11   5  11  708.53   29.60
  -9  -5  11  828.82   37.40
  -9  -5  11  858.21   35.70
  -9  -5  11  854.01   39.10
  -9  -5  11  856.31   35.30
  -9   5  11  905.21   35.60
  -9   5  11  864.21   43.50
  -9   5  11  875.71   37.30
  -7  -5  11  851.61   34.40
  -7  -5  11  825.62   36.00
  -7  -5  11  840.72   37.00
  -7  -5  11  827.12   37.80
  -7   5  11  819.32   34.60
  -7   5  11  795.92   34.70
  -7   5  11  777.52   41.60
  -5  -5  11  624.94   31.60
  -5  -5  11  633.44   31.60
  -5  -5  11  626.14   28.40
  -5   5  11  636.64   27.60
  -5   5  11  650.23   29.90
  -5   5  11  606.64   35.90
  -3  -5  11  411.36   21.90
  -3  -5  11  422.16   24.50
  -3  -5  11  413.06   26.30
  -3   5  11  399.16   28.70
  -3   5  11  417.66   24.00
  -3   5  11  420.76   20.10
  -1  -5  11  434.66   25.60
  -1  -5  11  440.16   23.30
  -1  -5  11  410.06   28.80
  -1   5  11  420.56   20.30
  -1   5  11  387.26   29.80
  -1   5  11  411.06   25.10
   1  -5  11  304.17   22.40
   1  -5  11  358.06   21.70
   1   5  11  374.56   24.60
   1   5  11  342.57   27.90
   1   5  11  359.46   18.30
 -18  -6  11   22.50    8.50
  18  -6 -11   11.40    8.50
  18   6 -11   13.40    7.40
 -18   6  11   24.40   11.90
  18   6 -11   23.00    9.20
  16  -6 -11   48.20    8.50
 -16  -6  11   42.70    9.80
  16   6 -11   71.59   12.50
  16   6 -11   50.09    8.00
 -16   6  11   49.60    6.40
 -16   6  11   54.99    7.50
 -16   6  11   58.19   15.70
 -14  -6  11   61.09   11.00
  14  -6 -11   60.49    7.10
 -14  -6  11   46.30    8.20
 -14  -6  11   57.59    8.30
  14   6 -11   59.69    8.80
 -14   6  11   56.69    5.80
 -14   6  11   74.59   16.60
 -14   6  11   61.89    8.50
  14   6 -11   75.19   13.80
 -12  -6  11   82.69    9.70
 -12  -6  11   68.29    9.30
 -12  -6  11   79.09   11.10
 -12  -6  11   75.19   12.20
  12   6 -11   71.59   11.10
 -12   6  11   90.09   10.80
  12   6 -11   72.79    9.40
 -12   6  11   65.49   14.80
 -10  -6  11  143.79   17.40
 -10  -6  11  221.38   14.70
 -10  -6  11  181.38   15.70
 -10  -6  11  190.38   15.70
  10   6 -11  190.18   14.70
 -10   6  11  194.88   15.00
 -10   6  11  164.18   12.60
 -10   6  11  163.78   14.40
  10   6 -11  173.98   12.00
 -10   6  11  145.59   20.40
  -8  -6  11   20.90    9.50
  -8  -6  11    1.90    8.80
  -8  -6  11   14.90    6.00
  -8  -6  11   11.70    5.00
  -8   6  11    3.80    9.90
  -8   6  11   19.10    6.90
   8   6 -11   24.30    7.10
  -8   6  11   22.70    6.10
  -6  -6  11   19.90    6.60
  -6  -6  11   18.00    9.70
  -6  -6  11   14.60    5.80
  -6   6  11   22.90    5.60
  -6   6  11    9.40   10.30
  -6   6  11   23.50    7.50
  -4  -6  11   75.99   10.80
  -4  -6  11   64.29    9.60
  -4  -6  11   68.29   14.40
  -4   6  11   89.99   17.00
  -4   6  11   72.49    7.90
  -4   6  11   71.19   11.30
  -2  -6  11    6.70    5.90
  -2  -6  11   11.60    6.00
  -2   6  11   13.60   11.00
  -2   6  11   12.50    4.70
  -2   6  11    9.70    7.70
   0  -6  11    5.50    6.00
   0   6  11    8.30    8.30
   0   6  11    3.40    4.20
   0   6  11   -1.70   11.60
 -17  -7  11  190.38   17.30
 -17  -7  11  218.48   19.90
  17   7 -11  175.58   17.70
 -17   7  11  222.38   15.70
  17   7 -11  221.18   20.80
 -17   7  11  224.18   27.20
 -15  -7  11  304.97   22.10
 -15  -7  11  281.47   19.30
 -15   7  11  278.67   17.70
  15   7 -11  213.88   18.10
 -15   7  11  239.68   27.20
 -15   7  11  269.17   13.50
 -13  -7  11  230.18   17.30
 -13  -7  11  179.88   17.10
 -13  -7  11  242.78   16.80
  13  -7 -11  203.58   12.20
  13   7 -11  206.68   17.10
 -13   7  11  191.18   24.00
 -13   7  11  230.78   16.80
  13   7 -11  195.08   21.30
 -11  -7  11  306.57   20.50
 -11  -7  11  283.37   20.30
 -11  -7  11  286.77   18.70
 -11   7  11  283.67   16.10
  11   7 -11  246.58   19.10
 -11   7  11  239.28   26.30
 -11   7  11  305.27   19.90
 -11   7  11  290.97   19.40
  -9  -7  11  348.97   22.30
  -9  -7  11  339.67   20.50
   9   7 -11  331.27   22.00
  -9   7  11  355.46   17.30
  -9   7  11  343.87   29.70
   9   7 -11  342.47   15.70
  -9   7  11  346.37   22.50
  -9   7  11  373.66   20.30
  -7  -7  11  251.67   17.80
  -7  -7  11  278.47   19.90
  -7   7  11  274.47   15.40
  -7   7  11  266.57   14.00
  -7   7  11  259.97   27.20
   7   7 -11  262.77   19.90
  -7   7  11  260.47   19.80
  -5  -7  11  338.87   22.50
  -5  -7  11  336.27   21.10
  -5   7  11  372.46   16.60
  -5   7  11  331.07   29.80
  -5   7  11  365.36   23.50
  -3  -7  11  107.49   13.40
  -3  -7  11  114.49   13.20
  -3   7  11  114.99   15.00
  -3   7  11  106.19   19.00
  -3   7  11  107.09    8.00
 -14  -8  11  646.64   33.60
 -14  -8  11  615.74   32.70
  14   8 -11  566.84   32.60
 -14   8  11  628.84   43.30
 -14   8  11  699.03   32.60
 -12  -8  11  658.53   32.70
 -12  -8  11  710.33   34.70
  12   8 -11  595.14   34.10
 -12   8  11  655.93   45.10
 -12   8  11  709.63   34.10
 -12   8  11  675.43   32.90
 -10  -8  11  614.54   32.60
 -10  -8  11  646.24   31.90
  10   8 -11  636.24   29.10
 -10   8  11  710.63   34.40
 -10   8  11  724.93   44.80
 -10   8  11  670.63   29.90
  10   8 -11  561.14   33.00
  -8  -8  11  441.86   25.70
  -8  -8  11  450.35   25.20
  -8   8  11  448.06   27.10
   8   8 -11  387.36   26.60
  -8   8  11  444.46   20.50
  -8   8  11  400.26   34.90
  -6  -8  11  328.17   22.20
  -6  -8  11  330.87   21.20
  -6   8  11  369.96   34.30
  -6   8  11  340.77   14.70
  -6   8  11  352.26   23.90
   6   8 -11  316.67   24.80
 -22   0  12  472.65   28.90
  22   0 -12  455.95   27.40
  20   0 -12  475.05   26.30
 -20   0  12  479.05   27.60
 -20   0  12  469.65   24.90
 -18   0  12  856.41   34.20
 -18   0  12  782.52   36.80
  18   0 -12  833.52   35.60
  16   0 -12  848.42   34.40
  16   0 -12  818.22   40.80
 -16   0  12  837.72   35.90
 -16   0  12  828.72   32.40
 -14   0  12  971.60   35.50
  14   0 -12  968.00   37.20
  14   0 -12 1028.20   42.80
 -14   0  12  956.60   44.70
 -14   0  12  984.30   38.70
 -12   0  12 2731.93   94.89
  12   0 -12 2496.95   87.39
 -12   0  12 2611.44   82.79
 -12   0  12 2558.84   82.79
 -12   0  12 2657.43   85.69
 -10   0  12 1624.64   63.09
 -10   0  12 1521.35   51.59
 -10   0  12 1606.44   51.89
 -10   0  12 1633.84   53.39
 -10   0  12 1586.14   52.49
 -10   0  12 1697.73   52.09
  -8   0  12 1027.20   43.70
  -8   0  12  989.50   32.50
  -8   0  12  982.40   36.60
  -8   0  12 1025.90   36.50
  -8   0  12 1007.80   32.80
  -6   0  12 1252.77   38.90
  -6   0  12 1206.28   49.50
  -6   0  12 1242.88   38.70
  -6   0  12 1167.78   44.80
  -4   0  12  486.35   28.50
  -4   0  12  525.15   26.50
  -4   0  12  474.85   17.20
  -4   0  12  452.65   17.30
  -2   0  12  501.65   26.20
  -2   0  12  474.75   18.00
  -2   0  12  435.06   18.30
   0   0  12  429.36   20.00
   0   0  12  477.05   26.40
   0   0  12  471.25   19.20
 -21  -1  12  127.39   15.00
  21  -1 -12  130.49   15.60
  21   1 -12  140.99   16.40
 -21   1  12  136.69   16.50
 -19  -1  12  368.36   21.60
 -19  -1  12  308.17   20.90
  19  -1 -12  331.37   20.50
  19   1 -12  382.96   22.30
 -19   1  12  333.87   23.10
 -19   1  12  352.46   19.20
 -17  -1  12  174.68   13.60
  17  -1 -12  171.78   13.40
 -17  -1  12  168.68   13.80
 -17   1  12  177.78   11.80
 -17   1  12  156.28   14.70
  17   1 -12  180.58   21.40
  17   1 -12  148.09   13.40
  15  -1 -12  206.98   19.90
  15  -1 -12  200.58   13.10
 -15  -1  12  208.98   13.70
 -15  -1  12  212.98   18.10
 -15  -1  12  222.08   14.30
  15   1 -12  210.08   19.10
 -15   1  12  232.58   12.00
  15   1 -12  215.78   14.70
 -15   1  12  204.98   15.30
 -13  -1  12  368.56   17.40
 -13  -1  12  359.86   17.10
 -13  -1  12  365.36   23.60
  13  -1 -12  352.66   22.10
 -13  -1  12  364.06   17.60
  13   1 -12  387.26   21.40
 -13   1  12  374.66   20.00
 -13   1  12  377.66   15.00
  13   1 -12  378.06   19.00
 -13   1  12  357.16   23.50
 -13   1  12  335.07   15.00
 -11  -1  12   60.39    4.60
 -11  -1  12   72.49    6.50
 -11  -1  12   66.79   10.90
 -11  -1  12   64.59    5.90
 -11  -1  12   64.89    4.10
 -11  -1  12   61.69    6.90
 -11   1  12   64.79   11.20
 -11   1  12   58.09    4.40
 -11   1  12   69.89    4.20
 -11   1  12   63.59    4.10
 -11   1  12   79.39    8.80
  -9  -1  12  111.29    8.90
  -9  -1  12  106.19   12.00
  -9  -1  12  102.69    7.80
  -9  -1  12  101.69    7.20
  -9   1  12   92.99    8.00
  -9   1  12  102.79    8.90
  -9   1  12  112.39   12.20
  -9   1  12  106.59    7.90
  -7  -1  12  387.36   16.40
  -7  -1  12  378.96   15.60
  -7  -1  12  406.56   23.30
  -7  -1  12  370.96   18.90
  -7   1  12  368.76   18.10
  -7   1  12  343.77   18.10
  -7   1  12  389.56   16.40
  -7   1  12  366.26   22.20
  -5  -1  12  271.57   18.50
  -5  -1  12  271.47   17.40
  -5  -1  12  252.47   13.00
  -5  -1  12  262.47   12.30
  -5   1  12  270.57   16.00
  -5   1  12  257.87   10.80
  -5   1  12  281.97   18.30
  -5   1  12  263.67   11.50
  -5   1  12  276.57   16.90
  -3  -1  12  121.49    9.50
  -3  -1  12  142.89   13.50
  -3  -1  12  125.89    8.50
  -3   1  12  127.69   12.40
  -1  -1  12  167.28   15.60
  -1  -1  12  152.08   12.40
  -1  -1  12  165.48   10.80
  -1   1  12  169.48   14.50
   1  -1  12  129.19   14.30
   1  -1  12  126.49   10.70
   1   1  12  117.89    8.90
   1   1  12  131.79    8.10
   1   1  12  122.79   13.70
  22  -2 -12  146.69   17.30
 -22  -2  12  153.28   17.40
 -22   2  12  162.58   19.60
  22   2 -12  158.18   17.50
 -20  -2  12  101.29   14.00
 -20  -2  12  107.59   13.80
  20  -2 -12  108.99   13.50
 -20   2  12  102.99   15.50
  20   2 -12  124.89   15.20
  18  -2 -12   88.69   11.00
 -18  -2  12   85.39   11.10
 -18  -2  12   91.69   12.30
 -18   2  12   70.29   12.50
  18   2 -12   76.19   11.50
 -18   2  12   87.39    9.20
 -16  -2  12   90.79   10.00
 -16  -2  12   98.19   13.50
  16  -2 -12  110.39    9.90
 -16  -2  12  103.19   11.80
 -16   2  12   96.69   13.30
 -16   2  12   92.09    7.70
  16   2 -12  147.79   17.80
  16   2 -12  101.39   11.40
  14  -2 -12  125.49   16.20
 -14  -2  12  147.49   15.00
 -14  -2  12  125.09    9.70
 -14  -2  12  131.49   10.30
 -14  -2  12  144.39   11.90
 -14   2  12  121.59   13.00
 -14   2  12  142.59    7.80
  14   2 -12  136.29   15.10
  14   2 -12  145.89   12.40
 -12  -2  12  144.79   10.30
 -12  -2  12  137.39    8.20
 -12  -2  12  129.89   13.90
 -12  -2  12  141.59   11.00
  12   2 -12  136.79   11.70
 -12   2  12  132.89   13.60
 -12   2  12  139.89   12.60
 -10  -2  12   26.50    5.20
 -10  -2  12   30.60    5.90
 -10  -2  12   30.70    7.50
 -10  -2  12   33.80    5.60
 -10   2  12   32.90    7.30
 -10   2  12   30.80    4.90
 -10   2  12   32.30    7.80
  -8  -2  12   61.99   10.10
  -8  -2  12   76.69    9.10
  -8  -2  12   91.69    8.60
  -8  -2  12   84.99    7.40
  -8   2  12   87.39    9.50
  -8   2  12   68.79    8.10
  -8   2  12   82.99    8.40
  -8   2  12   96.99   11.00
  -6  -2  12  126.99   13.10
  -6  -2  12  121.99    8.80
  -6  -2  12  121.59   10.10
  -6  -2  12  135.29   12.80
  -6   2  12  135.59   11.30
  -6   2  12  129.49   10.90
  -6   2  12  127.79   12.40
  -6   2  12  124.89   11.50
  -4  -2  12   42.30    6.00
  -4  -2  12   35.20    6.70
  -4  -2  12   40.80    8.40
  -4   2  12   46.60    6.30
  -4   2  12   48.00    8.50
  -4   2  12   39.00    7.50
  -4   2  12   46.50    8.20
  -2  -2  12   85.89    8.60
  -2  -2  12   83.99   10.40
  -2  -2  12   81.79   11.30
  -2   2  12   79.89    9.40
  -2   2  12   78.99   11.40
  -2   2  12   77.79   10.20
  -2   2  12   89.89   10.90
   0  -2  12   87.79    9.80
   0  -2  12   84.79   11.70
   0   2  12   91.69   11.70
   0   2  12   93.89   13.00
   0   2  12   78.39   11.50
 -21  -3  12  299.07   21.80
  21  -3 -12  332.57   22.40
  21   3 -12  336.47   23.80
 -21   3  12  308.17   26.00
  19  -3 -12  756.72   33.40
 -19  -3  12  714.13   33.50
 -19  -3  12  751.72   36.40
 -19   3  12  729.43   30.30
  19   3 -12  782.52   36.30
 -19   3  12  717.43   39.20
 -17  -3  12  706.13   33.40
 -17  -3  12  712.83   31.00
  17  -3 -12  745.83   30.70
 -17  -3  12  707.83   37.80
  17   3 -12  737.73   34.30
 -17   3  12  702.83   37.00
  17   3 -12  710.43   38.40
 -17   3  12  744.03   27.70
 -15  -3  12  548.65   24.10
 -15  -3  12  574.04   27.80
 -15  -3  12  585.44   32.10
  15   3 -12  525.65   30.10
 -15   3  12  576.04   21.10
 -15   3  12  642.34   32.20
  15   3 -12  570.24   28.30
 -13  -3  12  877.11   35.20
 -13  -3  12  955.00   37.30
  13  -3 -12  887.41   29.90
 -13  -3  12  950.90   42.80
 -13   3  12  863.91   40.40
  13   3 -12  833.52   36.10
 -13   3  12  874.01   41.40
 -11  -3  12  744.13   28.30
 -11  -3  12  763.72   37.10
 -11  -3  12  776.62   31.90
 -11  -3  12  759.42   30.80
 -11   3  12  708.03   35.50
 -11   3  12  789.22   28.50
 -11   3  12  767.82   35.50
  -9  -3  12  629.34   27.00
  -9  -3  12  625.84   32.00
  -9  -3  12  608.84   27.30
  -9  -3  12  601.04   26.10
  -9   3  12  618.04   30.40
  -9   3  12  666.53   26.30
  -9   3  12  617.84   30.90
  -7  -3  12  646.04   28.60
  -7  -3  12  641.64   29.30
  -7  -3  12  663.23   33.00
  -7  -3  12  667.03   27.50
  -7   3  12  719.23   29.10
  -7   3  12  675.43   31.40
  -7   3  12  645.14   31.70
  -5  -3  12  503.05   23.20
  -5  -3  12  490.45   25.20
  -5  -3  12  540.45   28.70
  -5   3  12  568.34   27.10
  -5   3  12  593.24   26.40
  -5   3  12  526.55   27.70
  -3  -3  12  319.77   21.20
  -3  -3  12  346.37   17.80
  -3  -3  12  301.87   20.00
  -3   3  12  314.97   21.90
  -3   3  12  339.57   18.00
  -3   3  12  349.96   19.80
  -3   3  12  324.87   20.00
  -1  -3  12  217.38   18.10
  -1  -3  12  221.48   15.10
  -1   3  12  230.18   20.00
  -1   3  12  242.18   16.70
  -1   3  12  249.88   18.50
 -20  -4  12  337.57   26.00
 -20  -4  12  348.27   21.50
  20  -4 -12  336.77   22.50
  20   4 -12  368.36   24.40
 -20   4  12  321.17   27.80
  18  -4 -12  198.38   15.20
 -18  -4  12  200.48   22.70
 -18  -4  12  162.58   17.70
 -18   4  12  204.78   12.40
 -18   4  12  222.18   21.90
  18   4 -12  198.58   18.10
 -16  -4  12  219.68   18.80
 -16  -4  12  244.48   20.10
  16  -4 -12  228.58   19.80
  16   4 -12  245.78   18.10
 -16   4  12  223.28   11.30
 -16   4  12  228.28   21.20
  16   4 -12  199.18   21.20
 -14  -4  12  301.37   17.80
 -14  -4  12  328.97   20.60
  14  -4 -12  296.37   13.40
 -14  -4  12  314.57   22.60
  14   4 -12  301.67   21.00
 -14   4  12  304.07   23.30
 -12  -4  12  314.87   19.90
 -12  -4  12  362.56   18.80
 -12  -4  12  323.57   15.40
 -12  -4  12  352.76   22.90
 -12   4  12  331.07   16.10
  12   4 -12  327.07   17.00
 -12   4  12  339.77   22.00
 -12   4  12  323.57   23.60
 -10  -4  12  288.37   16.90
 -10  -4  12  271.87   18.30
 -10  -4  12  288.47   16.60
 -10  -4  12  290.47   20.40
 -10   4  12  246.18   21.10
 -10   4  12  288.17   19.40
 -10   4  12  293.97   16.00
  -8  -4  12  269.67   18.20
  -8  -4  12  278.77   16.10
  -8  -4  12  278.17   18.30
  -8  -4  12  262.97   19.40
  -8   4  12  236.08   20.40
  -8   4  12  292.67   18.60
  -8   4  12  274.47   16.60
  -6  -4  12  340.17   18.50
  -6  -4  12  331.57   20.90
  -6  -4  12  346.97   22.40
  -6  -4  12  375.76   26.10
  -6   4  12  353.06   24.70
  -6   4  12  340.27   20.10
  -6   4  12  361.36   20.30
  -4  -4  12  162.78   16.50
  -4  -4  12  163.38   15.10
  -4  -4  12  158.18   12.50
  -4   4  12  171.18   13.30
  -4   4  12  168.38   18.90
  -4   4  12  198.28   15.10
  -2  -4  12  141.59   14.40
  -2  -4  12  163.08   13.40
  -2   4  12  128.69   18.30
  -2   4  12  149.19   15.00
  -2   4  12  167.08   13.10
  19  -5 -12   60.59   11.00
 -19  -5  12   53.69   12.20
 -19   5  12   51.09   14.30
  19   5 -12   52.29   11.60
  17  -5 -12   28.40    7.50
 -17  -5  12   25.40    8.90
  17   5 -12   25.80    8.90
 -17   5  12   31.80   12.40
 -17   5  12   29.50    5.20
 -15  -5  12    9.30    6.80
  15  -5 -12    8.00    5.00
 -15  -5  12   14.70    5.80
 -15  -5  12   20.40   10.00
  15   5 -12   14.90   12.00
 -15   5  12   12.80    4.20
 -15   5  12   22.00    3.30
 -15   5  12   12.90    9.70
 -13  -5  12   33.10    6.90
 -13  -5  12   27.10    8.10
 -13  -5  12   35.00    9.80
 -13  -5  12   29.70    6.10
 -13   5  12   31.40    8.90
 -13   5  12   19.70    5.90
  13   5 -12   22.10    8.90
 -13   5  12   31.50   11.10
 -11  -5  12   56.89    8.90
 -11  -5  12   50.99   10.40
 -11  -5  12   64.89   11.50
 -11  -5  12   52.79    8.90
 -11   5  12   54.59    9.90
 -11   5  12   63.19   14.30
 -11   5  12   66.19    8.90
  -9  -5  12   36.60    9.30
  -9  -5  12   35.20   10.20
  -9  -5  12   41.80    9.30
  -9  -5  12   30.00    6.40
  -9   5  12   36.00    7.80
  -9   5  12   28.50   11.00
  -9   5  12   28.20    7.20
  -7  -5  12   56.09   10.00
  -7  -5  12   64.09   11.60
  -7  -5  12   59.29    8.70
  -7   5  12   50.69    8.50
  -7   5  12   41.10    8.60
  -7   5  12   56.79   13.60
  -5  -5  12   22.80    9.90
  -5  -5  12   11.60    5.60
  -5  -5  12   16.60    6.70
  -5   5  12   17.70   11.20
  -5   5  12   14.90    7.10
  -5   5  12   24.00    6.30
  -3  -5  12    9.40    5.70
  -3  -5  12    8.60    6.40
  -3   5  12    7.20    4.70
  -3   5  12   11.00   11.20
  -3   5  12   14.70    7.70
 -18   6  12  325.77   30.60
 -16  -6  12  455.55   28.70
 -16  -6  12  416.46   24.40
  16   6 -12  471.05   20.80
 -16   6  12  443.66   19.90
 -16   6  12  458.95   34.50
 -16   6  12  444.86   17.70
 -14  -6  12  661.93   30.60
 -14  -6  12  602.54   33.80
 -14   6  12  607.14   27.10
  14   6 -12  641.84   26.90
 -14   6  12  613.44   39.50
 -12  -6  12  462.95   29.90
 -12  -6  12  485.35   28.40
 -12  -6  12  485.55   24.40
 -12  -6  12  471.25   24.80
  12   6 -12  492.65   23.50
 -12   6  12  479.65   27.30
 -12   6  12  454.75   33.50
 -12   6  12  503.15   24.80
 -10  -6  12  476.15   26.80
 -10  -6  12  457.35   28.70
 -10  -6  12  515.95   28.90
 -10  -6  12  476.25   25.00
 -10   6  12  526.75   26.60
 -10   6  12  494.85   25.90
 -10   6  12  440.46   33.10
  -8  -6  12  495.25   27.90
  -8  -6  12  420.36   29.00
  -8  -6  12  494.95   25.00
  -8   6  12  470.25   23.90
  -8   6  12  482.25   26.00
  -8   6  12  420.86   32.80
  -6  -6  12  423.46   25.90
  -6  -6  12  448.96   23.90
  -6   6  12  414.36   32.80
  -6   6  12  465.75   22.10
  -6   6  12  449.26   25.80
  -4  -6  12  320.67   20.00
  -4  -6  12  299.67   21.80
  -4   6  12  304.87   21.70
  -4   6  12  276.07   28.20
  -4   6  12  328.97   17.00
 -15  -7  12  360.86   24.50
 -15  -7  12  285.07   20.40
  15   7 -12  310.47   20.20
 -15   7  12  325.47   19.50
 -15   7  12  352.76   32.40
 -13  -7  12  331.77   23.00
 -13  -7  12  337.47   20.70
 -13   7  12  336.27   20.90
  13   7 -12  255.07   20.00
 -13   7  12  259.97   29.00
 -13   7  12  340.27   22.90
 -11  -7  12  226.58   16.40
 -11  -7  12  199.68   17.90
  11   7 -12  215.08   12.60
 -11   7  12  192.88   16.90
 -11   7  12  209.68   17.80
 -11   7  12  242.78   27.00
  11   7 -12  216.78   17.80
  -9  -7  12  217.98   16.60
  -9  -7  12  214.18   18.20
   9   7 -12  231.38   18.90
  -9   7  12  225.58   18.80
  -9   7  12  231.68   16.00
  -9   7  12  198.78   24.60
  -7  -7  12  140.39   15.00
  -7  -7  12  150.48   14.20
  -7   7  12  121.09   11.20
  -7   7  12   90.69   20.50
  -7   7  12  123.79   15.90
  20   0 -13    2.40    7.40
 -20   0  13   -2.90    6.70
 -18   0  13   10.50    6.40
  18   0 -13    1.90    5.90
 -18   0  13   -5.70    5.40
  16   0 -13    5.30    5.50
 -16   0  13   -1.20    4.10
  16   0 -13   -3.00   11.30
 -16   0  13    0.60    5.10
 -16   0  13   -1.30    5.90
  14   0 -13    2.30    8.10
 -14   0  13    2.30    5.30
 -14   0  13   -0.10    3.00
 -14   0  13   -0.30    4.40
 -14   0  13   -1.40    3.30
 -12   0  13   -2.50    2.40
 -12   0  13   -1.50    5.40
 -12   0  13   11.20    4.20
 -12   0  13   -2.50    2.60
 -10   0  13    0.00    1.80
 -10   0  13    1.00    2.60
 -10   0  13    2.00    5.10
 -10   0  13   -1.20    3.10
 -10   0  13    4.20    4.20
 -10   0  13    1.90    2.20
  -8   0  13    2.00    5.60
  -8   0  13    5.80    5.20
  -8   0  13    0.20    3.80
  -6   0  13   -4.30    7.30
  -6   0  13   -1.70    4.80
  -4   0  13    0.70    5.00
  -2   0  13    4.70    3.30
  -2   0  13   -0.20    2.80
  -2   0  13   -1.20    5.50
 -21  -1  13  551.54   30.30
  21  -1 -13  532.65   29.50
  21   1 -13  534.95   29.80
 -21   1  13  524.35   31.20
  19  -1 -13  400.96   22.90
 -19  -1  13  377.56   22.90
 -19   1  13  395.06   25.10
  19   1 -13  427.26   24.20
  17  -1 -13  270.77   17.10
 -17  -1  13  250.67   21.60
 -17  -1  13  283.97   17.70
 -17  -1  13  303.67   17.60
 -17   1  13  291.17   19.60
 -17   1  13  286.27   15.10
  17   1 -13  274.17   18.20
  17   1 -13  241.48   25.50
 -15  -1  13  343.17   17.80
 -15  -1  13  350.36   18.00
  15  -1 -13  319.67   23.90
 -15  -1  13  339.87   23.80
 -15  -1  13  325.87   16.90
  15  -1 -13  316.47   16.90
 -15   1  13  331.27   14.90
  15   1 -13  311.87   22.50
 -15   1  13  347.07   20.40
 -15   1  13  324.07   23.70
  15   1 -13  358.96   19.50
 -13  -1  13  419.96   19.30
 -13  -1  13  429.06   26.90
 -13  -1  13  438.96   18.50
 -13  -1  13  402.86   18.70
 -13   1  13  440.76   16.10
 -13   1  13  414.16   21.20
 -13   1  13  437.26   15.90
 -13   1  13  437.06   27.10
  13   1 -13  424.86   21.50
 -11  -1  13  628.34   21.80
 -11  -1  13  608.44   24.00
 -11  -1  13  597.14   32.40
 -11  -1  13  602.94   22.60
 -11  -1  13  613.04   23.70
 -11   1  13  590.94   22.10
 -11   1  13  611.24   22.10
 -11   1  13  627.04   32.60
 -11   1  13  617.54   25.60
  -9  -1  13  336.77   22.10
  -9  -1  13  331.67   17.30
  -9  -1  13  320.87   14.80
  -9  -1  13  312.77   14.20
  -9   1  13  361.96   22.70
  -9   1  13  330.57   15.40
  -9   1  13  329.37   16.80
  -9   1  13  337.97   16.30
  -7  -1  13  209.58   17.00
  -7  -1  13  189.28   10.40
  -7  -1  13  168.58    9.50
  -7  -1  13  188.18   15.00
  -7   1  13  201.98   16.30
  -7   1  13  189.18   14.30
  -7   1  13  205.08   13.40
  -5  -1  13  150.28    8.90
  -5  -1  13  161.18   14.80
  -5  -1  13  131.49    9.40
  -5   1  13  166.38   14.50
  -5   1  13  152.28   13.10
  -3  -1  13  161.28   10.00
  -3  -1  13  187.98   16.20
  -3  -1  13  145.99   11.10
  -3   1  13  175.98   15.40
  20  -2 -13  293.07   20.80
 -20  -2  13  287.77   20.10
  20   2 -13  327.17   22.50
 -20   2  13  312.77   23.90
 -18  -2  13  402.06   28.20
  18  -2 -13  433.56   22.10
 -18  -2  13  418.86   23.80
 -18  -2  13  420.96   22.40
 -18   2  13  410.16   26.00
 -18   2  13  415.56   19.10
  18   2 -13  397.96   24.30
 -16  -2  13  311.47   23.20
  16  -2 -13  282.67   16.10
 -16  -2  13  304.87   18.70
 -16  -2  13  295.87   16.60
  16   2 -13  318.87   19.50
 -16   2  13  292.37   13.60
  16   2 -13  315.07   24.30
 -16   2  13  304.27   20.80
 -14  -2  13  651.33   28.10
 -14  -2  13  638.44   27.20
 -14  -2  13  666.83   35.30
 -14  -2  13  656.83   25.00
 -14   2  13  650.33   21.30
 -14   2  13  667.73   35.10
 -14   2  13  607.24   30.40
  14   2 -13  603.94   29.30
 -14   2  13  615.74   21.40
 -12  -2  13  541.85   24.20
 -12  -2  13  567.74   31.40
 -12  -2  13  515.15   23.20
 -12   2  13  584.14   27.10
 -12   2  13  562.14   30.90
 -10  -2  13  255.17   19.40
 -10  -2  13  218.98   12.70
 -10  -2  13  231.48   13.80
 -10  -2  13  223.78   14.20
 -10   2  13  219.38   12.60
 -10   2  13  253.67   13.20
 -10   2  13  240.18   15.30
 -10   2  13  234.08   18.50
  -8  -2  13  445.96   22.60
  -8  -2  13  445.86   19.60
  -8  -2  13  513.25   27.60
  -8  -2  13  427.26   20.20
  -8   2  13  441.76   21.40
  -8   2  13  456.15   21.40
  -8   2  13  452.05   25.70
  -8   2  13  445.46   21.40
  -6  -2  13  353.86   18.10
  -6  -2  13  380.36   23.80
  -6  -2  13  384.66   17.20
  -6  -2  13  343.97   22.00
  -6   2  13  374.16   20.20
  -6   2  13  386.36   16.60
  -6   2  13  354.66   20.90
  -6   2  13  366.36   18.20
  -6   2  13  341.07   21.80
  -4  -2  13  193.48   14.40
  -4  -2  13  244.48   13.40
  -4  -2  13  209.58   17.70
  -4   2  13  246.58   17.30
  -4   2  13  236.78   14.10
  -4   2  13  228.28   17.10
  -2  -2  13  180.38   17.10
  -2  -2  13  195.78   12.70
  -2   2  13  185.88   16.00
  -2   2  13  177.88   13.90
  -2   2  13  177.88   16.90
  19  -3 -13   63.39   10.40
 -19  -3  13   67.39   10.20
 -19  -3  13   75.79   14.60
  19   3 -13   58.89   12.10
 -19   3  13   65.69   13.10
 -17  -3  13   16.90    9.00
  17  -3 -13   15.00    6.10
 -17  -3  13   25.40    6.50
 -17  -3  13   17.70    8.40
  17   3 -13   20.70    8.10
 -17   3  13   19.40    4.30
  17   3 -13   25.80   13.80
 -17   3  13   27.00    9.20
  15  -3 -13   46.00    5.90
 -15  -3  13   44.70    7.50
 -15  -3  13   47.10    9.80
 -15  -3  13   28.20    8.50
  15   3 -13   42.70   11.60
 -15   3  13   23.80    8.90
 -15   3  13   31.80    9.30
 -13  -3  13   -4.90    5.80
 -13  -3  13    3.50    4.10
 -13  -3  13    7.70    6.90
 -13   3  13    7.10    6.20
  13   3 -13   -6.70    5.60
 -13   3  13    3.30    6.30
 -11  -3  13    4.70    5.60
 -11  -3  13   -1.30    3.60
 -11  -3  13    2.90    5.20
 -11  -3  13    0.50    5.20
 -11   3  13    0.40    4.10
 -11   3  13   -2.50    6.30
 -11   3  13    0.90    5.40
 -11   3  13    3.30    4.10
  -9  -3  13   30.30    8.00
  -9  -3  13   26.30    7.30
  -9  -3  13   17.20    8.40
  -9  -3  13   34.20    5.90
  -9   3  13   24.30    6.00
  -9   3  13   29.30    8.00
  -9   3  13   27.60    7.80
  -7  -3  13   19.20    6.80
  -7  -3  13   24.10    7.50
  -7  -3  13   14.60    9.10
  -7  -3  13   17.00    4.90
  -7   3  13    9.70    5.90
  -7   3  13   17.00    7.50
  -7   3  13   29.80    6.80
  -5  -3  13   -9.20    7.40
  -5  -3  13    4.30    5.50
  -5  -3  13    1.90    4.20
  -5   3  13   -1.40    5.50
  -5   3  13    3.30    7.50
  -5   3  13    9.70    5.40
  -5   3  13   -6.70    9.50
  -3  -3  13   -1.50    5.70
  -3  -3  13   -1.70    4.60
  -3   3  13   -2.10    8.30
  -3   3  13    3.70    6.50
  -3   3  13    6.60    5.50
 -18  -4  13  317.77   25.00
 -18   4  13  333.37   26.50
  18   4 -13  341.17   23.60
 -16  -4  13  329.17   23.20
 -16  -4  13  359.36   20.60
 -16  -4  13  350.86   25.50
  16   4 -13  393.16   27.40
 -16   4  13  339.97   25.90
 -14  -4  13  323.77   23.60
 -14  -4  13  272.57   17.50
 -14  -4  13  315.07   21.00
 -14   4  13  301.87   23.40
 -14   4  13  302.67   22.40
 -12  -4  13  462.15   23.70
 -12  -4  13  518.75   26.70
 -12  -4  13  477.95   29.10
 -12  -4  13  523.55   21.60
 -12   4  13  482.85   21.70
 -12   4  13  535.05   29.50
 -12   4  13  516.35   30.30
 -10  -4  13  645.34   29.10
 -10  -4  13  599.14   30.00
 -10  -4  13  620.94   33.20
 -10  -4  13  622.44   27.90
 -10   4  13  657.63   32.60
 -10   4  13  660.23   28.00
 -10   4  13  599.04   33.10
  -8  -4  13  383.76   24.40
  -8  -4  13  399.16   25.20
  -8  -4  13  409.06   23.40
  -8  -4  13  385.26   20.30
  -8   4  13  392.06   26.30
  -8   4  13  391.36   23.10
  -8   4  13  422.16   21.80
  -6  -4  13  291.57   17.00
  -6  -4  13  253.47   20.00
  -6   4  13  300.87   19.50
  -6   4  13  285.17   22.40
  -6   4  13  261.57   18.20
  -4  -4  13  302.97   21.30
  -4  -4  13  275.87   17.10
  -4   4  13  257.17   17.80
  -4   4  13  281.87   20.30
  -4   4  13  265.47   23.60
 -17  -5  13  403.36   27.80
 -17  -5  13  377.76   22.70
 -17   5  13  353.76   29.20
 -17   5  13  386.96   15.20
 -15  -5  13  488.45   31.00
 -15  -5  13  527.25   26.50
 -15   5  13  518.35   31.00
 -15   5  13  513.85   33.90
 -13  -5  13  461.15   32.10
 -13  -5  13  509.25   25.10
 -13  -5  13  489.45   29.40
 -13   5  13  463.85   32.00
 -13   5  13  477.75   28.50
 -13   5  13  460.15   21.80
 -11  -5  13  281.17   21.00
 -11  -5  13  272.67   19.60
 -11  -5  13  266.87   17.40
 -11  -5  13  253.57   22.40
 -11   5  13  261.67   24.30
 -11   5  13  300.27   20.70
 -11   5  13  255.47   17.30
  -9  -5  13  318.07   18.80
  -9  -5  13  316.37   22.40
  -9  -5  13  278.47   22.60
  -9   5  13  347.07   20.40
  -9   5  13  308.57   26.50
  -9   5  13  311.97   20.30
  -7  -5  13  362.16   20.70
  -7  -5  13  396.06   24.90
  -7   5  13  349.77   22.40
  -7   5  13  403.46   22.10
  -7   5  13  347.47   28.00
  -5  -5  13  387.96   21.60
  -5  -5  13  368.06   25.00
  -5   5  13  376.56   23.90
  -5   5  13  343.97   29.40
  -5   5  13  374.16   20.80
 -14  -6  13   32.80    7.70
 -14  -6  13   33.80   10.00
 -14   6  13   36.70   10.50
 -14   6  13   20.90   12.50
 -14   6  13   45.30    8.30
 -12  -6  13   18.20    8.10
 -12  -6  13   18.10    6.90
 -12   6  13   18.10    7.80
 -12   6  13   20.30    8.60
 -12   6  13    8.40   11.60
 -10  -6  13   19.70    8.30
 -10  -6  13   27.20    7.70
 -10   6  13   21.20    8.00
 -10   6  13   28.70   14.20
 -10   6  13   26.80    9.20
  -8  -6  13   51.79    9.10
  -8  -6  13   54.49   11.00
  -8   6  13   75.69   11.00
  -8   6  13   51.39   16.00
  -8   6  13   66.49   11.50
 -20   0  14  550.04   29.50
  20   0 -14  538.75   29.20
 -18   0  14  209.28   20.80
 -18   0  14  233.98   17.20
  18   0 -14  195.68   16.50
  16   0 -14  455.95   30.20
 -16   0  14  484.95   30.60
 -16   0  14  499.85   24.20
 -16   0  14  490.65   21.00
 -16   0  14  457.45   20.70
 -14   0  14  585.44   33.90
 -14   0  14  633.94   25.90
 -14   0  14  626.54   23.20
 -14   0  14  564.94   22.80
 -12   0  14  634.24   34.20
 -12   0  14  601.94   22.80
 -12   0  14  601.44   21.00
 -12   0  14  594.04   21.20
 -10   0  14 1220.28   52.49
 -10   0  14 1174.98   43.10
 -10   0  14 1228.78   42.50
  -8   0  14  657.33   29.90
  -8   0  14  670.83   34.80
  -8   0  14  689.13   28.70
  -6   0  14  295.97   21.50
 -19  -1  14  141.89   17.90
  19  -1 -14  137.89   14.90
 -19  -1  14  121.19   13.30
 -19   1  14  133.19   15.40
  19   1 -14  129.09   15.10
  17  -1 -14  139.19   13.00
 -17  -1  14  162.78   13.00
 -17  -1  14  152.28   11.80
 -17  -1  14  127.09   16.60
 -17   1  14  140.59   14.40
 -17   1  14  146.99   17.60
 -17   1  14  145.59   10.20
  17   1 -14  142.39   19.70
  17   1 -14  154.58   14.70
 -15  -1  14  119.09   10.50
 -15  -1  14  126.19   15.60
 -15  -1  14  117.39    9.70
 -15  -1  14  108.99    9.90
 -15   1  14  118.29    7.50
 -15   1  14  118.99    7.50
 -15   1  14  112.49   15.10
  15   1 -14  115.19   14.50
 -15   1  14  128.59   12.80
 -13  -1  14  145.79   10.10
 -13  -1  14  146.29    8.50
 -13  -1  14  148.29   16.40
 -13  -1  14  165.58   10.90
 -13   1  14  173.18   17.60
 -13   1  14  156.78   12.50
 -11  -1  14   86.19    9.30
 -11  -1  14   72.19   12.70
 -11  -1  14   83.79    7.20
 -11  -1  14   87.49    7.70
 -11  -1  14   81.39    6.90
 -11   1  14   78.09    8.70
 -11   1  14   76.09    7.50
 -11   1  14   69.09    8.30
 -11   1  14   96.69   13.70
  -9  -1  14   27.40    8.30
  -9  -1  14   35.70    5.00
  -9  -1  14   25.40    4.10
  -9  -1  14   34.60    8.60
  -9   1  14   35.40    9.00
  -9   1  14   23.50    6.10
  -9   1  14   30.50    7.60
  -7  -1  14   58.69    5.70
  -7  -1  14   59.59   11.30
  -7  -1  14   70.09   13.90
  -7  -1  14   53.29    5.90
  -7   1  14   60.59    9.10
  -7   1  14   56.69   13.00
  -7   1  14   63.09   11.20
  -5  -1  14   81.49    6.80
  -5  -1  14   74.29    8.50
  -5  -1  14   70.39   11.80
  -5   1  14   69.69   10.40
  -5   1  14  104.69   13.30
 -18  -2  14   64.79   13.30
 -18  -2  14   97.39   11.00
  18   2 -14   86.79   12.90
 -18   2  14   76.19   13.30
 -18   2  14   92.09   16.00
 -16  -2  14   57.99   12.60
 -16  -2  14   64.99    8.60
 -16  -2  14   80.59    8.80
 -16   2  14   75.59   13.60
 -16   2  14   75.69    5.60
 -16   2  14   67.99   11.10
 -16   2  14   74.59    5.80
  16   2 -14   23.00   12.40
 -14  -2  14   87.79   10.00
 -14  -2  14   93.59   13.70
 -14  -2  14   85.59    9.00
 -14   2  14   68.29   10.90
 -14   2  14   79.19   13.90
 -12  -2  14  131.99   11.90
 -12  -2  14  162.18    7.90
 -12  -2  14  173.38   11.30
 -12  -2  14  166.68    8.70
 -12  -2  14  140.19   16.20
 -12   2  14  155.48    8.70
 -12   2  14  155.08   13.60
 -12   2  14  175.58   17.50
 -10  -2  14  100.69   12.90
 -10  -2  14   92.49    9.70
 -10  -2  14   79.99    8.00
 -10  -2  14   98.59   11.10
 -10   2  14   93.29    9.70
 -10   2  14   94.29   12.80
 -10   2  14  103.19   11.00
 -10   2  14   99.39   10.80
  -8  -2  14    4.00    6.00
  -8  -2  14    8.10    4.00
  -8  -2  14    3.80    5.00
  -8   2  14    1.90    5.40
  -8   2  14   11.70    6.10
  -8   2  14    6.50    6.60
  -6  -2  14   38.00    9.90
  -6  -2  14   32.50    5.60
  -6   2  14   34.90    8.20
  -6   2  14   29.40    6.00
  -6   2  14   33.10    8.40
 -17  -3  14  570.44   27.60
 -17  -3  14  581.34   35.00
 -17   3  14  573.84   20.60
 -17   3  14  550.14   32.40
 -17   3  14  581.74   20.30
 -17   3  14  597.24   35.30
 -15  -3  14  534.75   32.90
 -15  -3  14  588.04   26.40
 -15   3  14  538.05   30.60
 -15   3  14  572.74   33.60
 -13  -3  14  470.05   29.20
 -13  -3  14  414.76   21.30
 -13   3  14  429.36   27.50
 -13   3  14  464.95   26.30
 -11  -3  14  497.85   29.80
 -11  -3  14  471.95   22.70
 -11   3  14  515.95   22.50
 -11   3  14  508.25   29.40
 -11   3  14  477.55   26.50
  -9  -3  14  376.96   19.50
  -9  -3  14  384.36   25.70
  -9   3  14  409.66   23.30
  -9   3  14  423.66   25.30
  -9   3  14  449.36   21.90
  -7  -3  14  258.97   20.70
  -7  -3  14  251.27   15.40
  -7   3  14  311.77   19.40
  -7   3  14  247.28   18.10
  -7   3  14  293.87   20.10
 -16  -4  14  133.29   17.20
 -16  -4  14  167.38   14.00
 -16   4  14  152.68   18.70
 -16   4  14  185.48   19.10
 -14  -4  14  158.68   13.90
 -14  -4  14  187.18   19.10
 -14   4  14  214.08   20.40
 -14   4  14  187.98   18.80
 -12  -4  14  110.09   15.00
 -12  -4  14  124.69   11.40
 -12   4  14  110.99   11.30
 -12   4  14  102.19   15.70
 -12   4  14  106.39   14.70
 -10  -4  14  156.28   12.70
 -10  -4  14  144.69   16.40
 -10   4  14  147.39   17.80
 -10   4  14  149.99   13.80
 -10   4  14  145.39   16.00
  -8  -4  14  185.28   14.00
  -8  -4  14  195.78   18.00
  -8   4  14  171.28   18.90
  -8   4  14  177.68   15.70
  -8   4  14  201.58   16.80
 -13  -5  14   13.10    6.10
 -13  -5  14    6.60    7.80
 -13   5  14   16.90    8.40
 -13   5  14   22.60    7.40
 -13   5  14   23.60   11.20
 -11  -5  14   41.90   12.20
 -11  -5  14   34.70    7.90
 -11   5  14   55.79    9.90
 -11   5  14   49.70   10.70
 -11   5  14   24.90   12.70
 -16   0  15    1.60    3.80
 -16   0  15   -5.40    7.30
 -16   0  15    0.50    5.80
 -14   0  15    1.00    4.60
 -14   0  15    4.70    7.40
 -14   0  15    4.30    2.90
 -14   0  15   -3.10    3.00
 -12   0  15    3.30    7.20
 -10   0  15    4.80    6.70
 -10   0  15    5.30    5.50
 -17  -1  15  273.77   24.20
 -17  -1  15  255.47   15.60
 -17  -1  15  297.07   17.00
 -17   1  15  254.87   23.70
 -17   1  15  263.97   19.00
 -17   1  15  278.97   13.20
 -15  -1  15  253.67   14.50
 -15  -1  15  293.37   14.10
 -15  -1  15  269.67   23.40
 -15   1  15  271.97   17.40
 -15   1  15  314.37   24.20
 -13  -1  15  184.98   10.70
 -13  -1  15  181.08   19.10
 -13   1  15  192.68   19.70
 -13   1  15  211.18   13.20
 -11  -1  15  233.98   13.10
 -11  -1  15  251.17   11.30
 -11  -1  15  242.78   21.00
 -11  -1  15  243.58   12.00
 -11   1  15  256.57   13.90
 -11   1  15  242.48   21.10
  -9  -1  15  269.97   11.50
  -9  -1  15  266.57   21.70
  -9  -1  15  261.17   16.20
  -9   1  15  268.47   21.20
  -9   1  15  256.17   16.60
 -16  -2  15  313.57   27.80
 -16  -2  15  368.26   19.20
 -16   2  15  335.17   26.10
 -16   2  15  371.36   23.00
 -14  -2  15  227.98   13.90
 -14  -2  15  203.78   20.30
 -14   2  15  217.28   21.00
 -14   2  15  211.58   16.40
 -12  -2  15  320.77   24.50
 -12  -2  15  331.87   16.60
 -12   2  15  366.66   19.40
 -12   2  15  335.97   25.10
 -10  -2  15  305.77   14.40
 -10  -2  15  258.17   22.10
 -10   2  15  286.67   17.00
 -10   2  15  256.67   21.30
 -10   2  15  267.97   16.20
   0   0   0    0.00    0.00

_computing_structure_solution     'SHELXT 2014/5 (Sheldrick, 2014)'
;
_shelx_hkl_checksum              15759
loop_
_space_group_symop_operation_xyz
'x, y, z'
'-x, y, -z+1/2'
'x+1/2, y+1/2, z'
'-x+1/2, y+1/2, -z+1/2'
'-x, -y, -z'
'x, -y, z-1/2'
'-x+1/2, -y+1/2, -z'
'x+1/2, -y+1/2, z-1/2'
loop_
_atom_site_label
_atom_site_type_symbol
_atom_site_fract_x
_atom_site_fract_y
_atom_site_fract_z
_atom_site_U_iso_or_equiv
_atom_site_adp_type
_atom_site_occupancy
_atom_site_site_symmetry_order
_atom_site_calc_flag
_atom_site_refinement_flags_posn
_atom_site_refinement_flags_adp
_atom_site_refinement_flags_occupancy
_atom_site_disorder_assembly
_atom_site_disorder_group
Tm1 Tm 0.5000 -0.16001(2) 0.7500 0.01943(8) Uani 1 2 d S T P . .
N1 N 0.5000 0.5773(4) 0.7500 0.0174(6) Uani 1 2 d S T P . .
N2 N 0.58981(17) 0.7344(3) 0.6777(3) 0.0231(5) Uani 1 1 d . . . . .
O1 O 0.48385(19) 0.0609(2) 0.8269(3) 0.0327(5) Uani 1 1 d . . . . .
O2 O 0.3971(2) -0.2271(3) 0.5142(3) 0.0466(7) Uani 1 1 d . . . . .
O3 O 0.3383(2) -0.0794(3) 0.5828(3) 0.0502(7) Uani 1 1 d . . . . .
C1 C 0.54513(19) 0.5052(3) 0.7087(3) 0.0194(5) Uani 1 1 d . . . . .
C2 C 0.5000 0.1249(5) 0.7500 0.0268(9) Uani 1 2 d S T P . .
C3 C 0.5000 0.2847(4) 0.7500 0.0217(8) Uani 1 2 d S T P . .
C4 C 0.59587(19) 0.5928(3) 0.6691(3) 0.0199(5) Uani 1 1 d . . . . .
C5 C 0.5449(2) 0.3574(3) 0.7038(3) 0.0227(6) Uani 1 1 d . . . . .
C6 C 0.3351(3) -0.1566(3) 0.4950(4) 0.0327(8) Uani 1 1 d . . . . .
C7 C 0.6343(3) 0.8195(3) 0.6430(4) 0.0306(7) Uani 1 1 d . . . . .
C8 C 0.6478(2) 0.5334(3) 0.6288(3) 0.0274(6) Uani 1 1 d . . . . .
C9 C 0.6952(3) 0.6212(4) 0.5964(4) 0.0326(7) Uani 1 1 d . . . . .
C10 C 0.6877(3) 0.7672(4) 0.6021(4) 0.0337(7) Uani 1 1 d . . . . .
loop_
_atom_site_aniso_label
_atom_site_aniso_U_11
_atom_site_aniso_U_22
_atom_site_aniso_U_33
_atom_site_aniso_U_23
_atom_site_aniso_U_13
_atom_site_aniso_U_12
Tm1 0.02782(11) 0.00835(10) 0.02862(11) 0.000 0.02003(9) 0.000
N1 0.0230(16) 0.0101(14) 0.0225(15) 0.000 0.0151(13) 0.000
N2 0.0286(12) 0.0144(12) 0.0345(13) 0.0005(10) 0.0230(11) 0.0000(9)
O1 0.0579(15) 0.0120(10) 0.0462(13) -0.0013(9) 0.0405(13) -0.0004(10)
O2 0.0457(15) 0.0403(16) 0.0427(14) -0.0077(12) 0.0190(12) 0.0054(13)
O3 0.0466(16) 0.0515(18) 0.0538(16) 0.0019(14) 0.0297(14) 0.0125(14)
C1 0.0235(13) 0.0106(13) 0.0236(12) 0.0000(10) 0.0134(11) 0.0009(10)
C2 0.033(2) 0.0150(19) 0.034(2) 0.000 0.0204(19) 0.000
C3 0.0272(19) 0.0112(19) 0.0276(19) 0.000 0.0163(16) 0.000
C4 0.0226(13) 0.0137(13) 0.0237(13) 0.0002(10) 0.0135(11) -0.0007(10)
C5 0.0295(15) 0.0121(13) 0.0306(15) -0.0011(10) 0.0197(13) 0.0003(10)
C6 0.0359(19) 0.0282(19) 0.0308(16) 0.0005(12) 0.0173(15) 0.0024(12)
C7 0.0395(18) 0.0164(14) 0.049(2) 0.0024(13) 0.0335(17) -0.0037(13)
C8 0.0341(16) 0.0215(15) 0.0348(15) -0.0011(12) 0.0247(14) 0.0031(12)
C9 0.0380(18) 0.0298(16) 0.0435(18) 0.0027(15) 0.0312(16) 0.0037(15)
C10 0.0409(18) 0.0273(17) 0.0485(19) 0.0042(14) 0.0348(16) 0.0004(14)
loop_
_atom_type_symbol
_atom_type_description
_atom_type_scat_dispersion_real
_atom_type_scat_dispersion_imag
_atom_type_scat_source
C C 0.0033 0.0016 'International Tables Vol C Tables 4.2.6.8 and 6.1.1.4'
N N 0.0061 0.0033 'International Tables Vol C Tables 4.2.6.8 and 6.1.1.4'
O O 0.0106 0.0060 'International Tables Vol C Tables 4.2.6.8 and 6.1.1.4'
Tm Tm -0.3139 5.2483 'International Tables Vol C Tables 4.2.6.8 and 6.1.1.4'
loop_
_geom_angle_atom_site_label_1
_geom_angle_atom_site_label_2
_geom_angle_atom_site_label_3
_geom_angle
_geom_angle_site_symmetry_1
_geom_angle_site_symmetry_3
_geom_angle_publ_flag
O1 Tm1 O1 55.91(11) 2_656 . ?
O1 Tm1 O2 87.94(10) 2_656 . ?
O1 Tm1 O2 120.32(9) . . ?
O1 Tm1 O2 120.32(9) 2_656 2_656 ?
O1 Tm1 O2 87.94(10) . 2_656 ?
O2 Tm1 O2 149.23(14) . 2_656 ?
O1 Tm1 N2 138.80(8) 2_656 2_646 ?
O1 Tm1 N2 88.36(8) . 2_646 ?
O2 Tm1 N2 94.88(10) . 2_646 ?
O2 Tm1 N2 72.40(10) 2_656 2_646 ?
O1 Tm1 N2 88.36(8) 2_656 1_545 ?
O1 Tm1 N2 138.80(8) . 1_545 ?
O2 Tm1 N2 72.40(10) . 1_545 ?
O2 Tm1 N2 94.88(10) 2_656 1_545 ?
N2 Tm1 N2 131.63(12) 2_646 1_545 ?
O1 Tm1 N1 152.05(5) 2_656 1_545 ?
O1 Tm1 N1 152.05(5) . 1_545 ?
O2 Tm1 N1 74.61(7) . 1_545 ?
O2 Tm1 N1 74.61(7) 2_656 1_545 ?
N2 Tm1 N1 65.82(6) 2_646 1_545 ?
N2 Tm1 N1 65.82(6) 1_545 1_545 ?
O1 Tm1 O3 76.64(10) 2_656 . ?
O1 Tm1 O3 72.25(10) . . ?
O2 Tm1 O3 52.58(10) . . ?
O2 Tm1 O3 140.24(11) 2_656 . ?
N2 Tm1 O3 72.90(10) 2_646 . ?
N2 Tm1 O3 122.86(9) 1_545 . ?
N1 Tm1 O3 107.66(8) 1_545 . ?
O1 Tm1 O3 72.25(10) 2_656 2_656 ?
O1 Tm1 O3 76.64(10) . 2_656 ?
O2 Tm1 O3 140.24(11) . 2_656 ?
O2 Tm1 O3 52.57(10) 2_656 2_656 ?
N2 Tm1 O3 122.86(9) 2_646 2_656 ?
N2 Tm1 O3 72.90(10) 1_545 2_656 ?
N1 Tm1 O3 107.66(8) 1_545 2_656 ?
O3 Tm1 O3 144.68(16) . 2_656 ?
O1 Tm1 C2 27.95(5) 2_656 . ?
O1 Tm1 C2 27.95(5) . . ?
O2 Tm1 C2 105.39(7) . . ?
O2 Tm1 C2 105.39(7) 2_656 . ?
N2 Tm1 C2 114.18(6) 2_646 . ?
N2 Tm1 C2 114.18(6) 1_545 . ?
N1 Tm1 C2 180.0 1_545 . ?
O3 Tm1 C2 72.34(8) . . ?
O3 Tm1 C2 72.34(8) 2_656 . ?
O1 Tm1 C6 81.78(10) 2_656 . ?
O1 Tm1 C6 97.03(10) . . ?
O2 Tm1 C6 25.70(10) . . ?
O2 Tm1 C6 155.13(11) 2_656 . ?
N2 Tm1 C6 83.36(11) 2_646 . ?
N2 Tm1 C6 97.19(10) 1_545 . ?
N1 Tm1 C6 90.66(6) 1_545 . ?
O3 Tm1 C6 26.88(10) . . ?
O3 Tm1 C6 152.24(11) 2_656 . ?
C2 Tm1 C6 89.34(6) . . ?
O1 Tm1 C6 97.03(10) 2_656 2_656 ?
O1 Tm1 C6 81.78(10) . 2_656 ?
O2 Tm1 C6 155.12(11) . 2_656 ?
O2 Tm1 C6 25.70(10) 2_656 2_656 ?
N2 Tm1 C6 97.19(10) 2_646 2_656 ?
N2 Tm1 C6 83.36(11) 1_545 2_656 ?
N1 Tm1 C6 90.66(6) 1_545 2_656 ?
O3 Tm1 C6 152.24(11) . 2_656 ?
O3 Tm1 C6 26.88(10) 2_656 2_656 ?
C2 Tm1 C6 89.34(6) . 2_656 ?
C6 Tm1 C6 178.67(13) . 2_656 ?
C1 N1 C1 119.3(3) . 2_656 ?
C1 N1 Tm1 120.34(17) . 1_565 ?
C1 N1 Tm1 120.33(17) 2_656 1_565 ?
C4 N2 C7 118.5(3) . . ?
C4 N2 Tm1 122.07(18) . 1_565 ?
C7 N2 Tm1 119.4(2) . 1_565 ?
C2 O1 Tm1 90.7(2) . . ?
C6 O2 Tm1 94.6(2) . . ?
C6 O3 Tm1 87.7(2) . . ?
N1 C1 C5 122.1(3) . . ?
N1 C1 C4 116.0(2) . . ?
C5 C1 C4 121.9(3) . . ?
O1 C2 O1 122.8(4) 2_656 . ?
O1 C2 C3 118.6(2) 2_656 . ?
O1 C2 C3 118.6(2) . . ?
O1 C2 Tm1 61.4(2) 2_656 . ?
O1 C2 Tm1 61.4(2) . . ?
C3 C2 Tm1 180.0 . . ?
C5 C3 C5 120.7(4) . 2_656 ?
C5 C3 C2 119.63(19) . . ?
C5 C3 C2 119.63(19) 2_656 . ?
N2 C4 C8 121.7(3) . . ?
N2 C4 C1 115.8(2) . . ?
C8 C4 C1 122.5(3) . . ?
C3 C5 C1 117.8(3) . . ?
O2 C6 O3 125.0(4) . . ?
O2 C6 Tm1 59.7(2) . . ?
O3 C6 Tm1 65.4(2) . . ?
N2 C7 C10 122.8(3) . . ?
C4 C8 C9 119.6(3) . . ?
C10 C9 C8 119.1(3) . . ?
C7 C10 C9 118.3(3) . . ?
loop_
_geom_bond_atom_site_label_1
_geom_bond_atom_site_label_2
_geom_bond_distance
_geom_bond_site_symmetry_2
_geom_bond_publ_flag
Tm1 O1 2.360(2) 2_656 ?
Tm1 O1 2.360(2) . ?
Tm1 O2 2.386(3) . ?
Tm1 O2 2.386(3) 2_656 ?
Tm1 N2 2.431(2) 2_646 ?
Tm1 N2 2.431(2) 1_545 ?
Tm1 N1 2.479(3) 1_545 ?
Tm1 O3 2.508(3) . ?
Tm1 O3 2.508(3) 2_656 ?
Tm1 C2 2.688(5) . ?
Tm1 C6 2.756(4) . ?
Tm1 C6 2.756(4) 2_656 ?
N1 C1 1.346(3) . ?
N1 C1 1.346(3) 2_656 ?
N1 Tm1 2.479(3) 1_565 ?
N2 C4 1.349(4) . ?
N2 C7 1.353(4) . ?
N2 Tm1 2.431(2) 1_565 ?
O1 C2 1.260(3) . ?
O2 C6 1.199(5) . ?
O3 C6 1.247(5) . ?
C1 C5 1.396(4) . ?
C1 C4 1.491(4) . ?
C2 O1 1.260(3) 2_656 ?
C2 C3 1.508(6) . ?
C3 C5 1.389(4) . ?
C3 C5 1.389(4) 2_656 ?
C4 C8 1.386(4) . ?
C7 C10 1.389(5) . ?
C8 C9 1.390(5) . ?
C9 C10 1.389(5) . ?
