#------------------------------------------------------------------------------
#$Date: 2021-02-03 21:55:52 +0200 (Wed, 03 Feb 2021) $
#$Revision: 261398 $
#$URL: file:///home/coder/svn-repositories/cod/cif/4/51/84/4518453.cif $
#------------------------------------------------------------------------------
#
# This file is available in the Crystallography Open Database (COD),
# http://www.crystallography.net/
#
# All data on this site have been placed in the public domain by the
# contributors.
#
data_4518453
loop_
_publ_author_name
'Lu, Huangjie'
'Zheng, Zhaofa'
'Li, Zi-Jian'
'Bao, Hongliang'
'Guo, Xiaojing'
'Guo, Xiaofeng'
'Lin, Jian'
'Qian, Yuan'
'Wang, Jian-Qiang'
_publ_section_title
;
 Achieving UV and X-ray Dual Photochromism in a Metal-Organic Hybrid via
 Structural Modulation.
;
_journal_issue                   2
_journal_name_full               'ACS applied materials &amp; interfaces'
_journal_page_first              2745
_journal_page_last               2752
_journal_paper_doi               10.1021/acsami.0c20036
_journal_volume                  13
_journal_year                    2021
_chemical_formula_moiety         'C18 N3 O6 Tm'
_chemical_formula_sum            'C18 N3 O6 Tm'
_chemical_formula_weight         523.14
_chemical_melting_point          ?
_chemical_name_common
'Thulium 2,2':6',2''-terpyridine-4'-carboxyli'
_space_group_crystal_system      monoclinic
_space_group_IT_number           15
_space_group_name_Hall           '-C 2yc'
_space_group_name_H-M_alt        'C 1 2/c 1'
_audit_creation_method           SHELXL-2014
_cell_angle_alpha                90
_cell_angle_beta                 125.1660(10)
_cell_angle_gamma                90
_cell_formula_units_Z            4
_cell_length_a                   17.9182(8)
_cell_length_b                   9.4384(4)
_cell_length_c                   11.8800(5)
_cell_measurement_reflns_used    9911
_cell_measurement_temperature    293(2)
_cell_measurement_theta_max      55.084
_cell_measurement_theta_min      5.134
_cell_volume                     1642.44(12)
_computing_cell_refinement       'Bruker SAINT'
_computing_data_collection       'Bruker APEX2'
_computing_data_reduction        'Bruker SAINT'
_computing_molecular_graphics    'Bruker SHELXTL'
_computing_publication_material  'Bruker SHELXTL'
_computing_structure_refinement  'SHELXL-2014 (Sheldrick, 2014)'
_computing_structure_solution    'SHELXS-97 (Sheldrick 2008)'
_diffrn_ambient_temperature      293(2)
_diffrn_measured_fraction_theta_full 0.995
_diffrn_measured_fraction_theta_max 0.993
_diffrn_measurement_device_type  'Bruker APEX-II CCD'
_diffrn_measurement_method       '0.5 wide w/ exposures'
_diffrn_radiation_type           MoK\a
_diffrn_radiation_wavelength     0.71073
_diffrn_reflns_av_R_equivalents  0.0333
_diffrn_reflns_av_unetI/netI     0.0175
_diffrn_reflns_Laue_measured_fraction_full 0.995
_diffrn_reflns_Laue_measured_fraction_max 0.993
_diffrn_reflns_limit_h_max       22
_diffrn_reflns_limit_h_min       -23
_diffrn_reflns_limit_k_max       12
_diffrn_reflns_limit_k_min       -12
_diffrn_reflns_limit_l_max       15
_diffrn_reflns_limit_l_min       -12
_diffrn_reflns_number            15287
_diffrn_reflns_point_group_measured_fraction_full 0.995
_diffrn_reflns_point_group_measured_fraction_max 0.993
_diffrn_reflns_theta_full        25.242
_diffrn_reflns_theta_max         27.542
_diffrn_reflns_theta_min         2.567
_exptl_absorpt_coefficient_mu    5.446
_exptl_absorpt_correction_T_max  0.580
_exptl_absorpt_correction_T_min  0.417
_exptl_absorpt_correction_type   multi-scan
_exptl_absorpt_process_details   SHELTXPREP
_exptl_crystal_colour            colorless
_exptl_crystal_density_diffrn    2.116
_exptl_crystal_description       block
_exptl_crystal_F_000             984
_exptl_crystal_size_max          0.18
_exptl_crystal_size_mid          0.14
_exptl_crystal_size_min          0.10
_refine_diff_density_max         0.851
_refine_diff_density_min         -0.630
_refine_diff_density_rms         0.109
_refine_ls_extinction_method     none
_refine_ls_goodness_of_fit_ref   1.096
_refine_ls_hydrogen_treatment    undef
_refine_ls_matrix_type           full
_refine_ls_number_parameters     129
_refine_ls_number_reflns         1886
_refine_ls_number_restraints     0
_refine_ls_restrained_S_all      1.096
_refine_ls_R_factor_all          0.0190
_refine_ls_R_factor_gt           0.0184
_refine_ls_shift/su_max          0.000
_refine_ls_shift/su_mean         0.000
_refine_ls_structure_factor_coef Fsqd
_refine_ls_weighting_details
'w=1/[\s^2^(Fo^2^)+(0.0341P)^2^+4.1873P] where P=(Fo^2^+2Fc^2^)/3'
_refine_ls_weighting_scheme      calc
_refine_ls_wR_factor_gt          0.0545
_refine_ls_wR_factor_ref         0.0549
_reflns_Friedel_coverage         0.000
_reflns_number_gt                1851
_reflns_number_total             1886
_reflns_threshold_expression     'I > 2\s(I)'
_cod_data_source_file            am0c20036_si_002.cif
_cod_data_source_block           TmTPC-2afterXray
_cod_depositor_comments
;
The following automatic conversions were performed:

data item '_chemical_melting_point' value 'N/a' was changed to '?' --
the value is undefined or not given.

Automatic conversion script
Id: cif_fix_values 7556 2019-12-06 15:28:31Z antanas 
;
_cod_original_sg_symbol_H-M      'C 2/c'
_cod_database_code               4518453
_shelx_space_group_comment
;
The symmetry employed for this shelxl refinement is uniquely defined
by the following loop, which should always be used as a source of
symmetry information in preference to the above space-group names.
They are only intended as comments.
;
_shelxl_version_number           2014-3
_shelx_res_file
;
TITL SAVE_a.res in C2/c
REM Old TITL SAVE in C2/c

REM SHELXT solution in C2/c
REM R1 0.089,  Rweak 0.008,  Alpha 0.034,  Orientation as input
REM Formula found by SHELXT:  C20 N2 O5 Tm

CELL  0.71073  17.9182   9.4384  11.8800   90.000  125.166   90.000
ZERR   4.000   0.0008   0.0004   0.0005    0.000    0.001    0.000
LATT  7
SYMM -X, Y, 1/2-Z
SFAC C N O TM
UNIT 72 12 24 4
L.S. 10
BOND $H
LIST 6
acta
FMAP 2
PLAN 20
WGHT    0.034100    4.187300
FVAR       0.27581
TM1   4    0.500000   -0.160020    0.750000    10.50000    0.02792    0.00908 =
         0.02852    0.00000    0.01984    0.00000
N1    2    0.500000    0.577217    0.750000    10.50000    0.02330    0.01099 =
         0.02288    0.00000    0.01495    0.00000
N2    2    0.589777    0.734309    0.677675    11.00000    0.02925    0.01408 =
         0.03600    0.00014    0.02421   -0.00052
O1    3    0.483777    0.060815    0.826780    11.00000    0.05780    0.01312 =
         0.04733   -0.00106    0.04077   -0.00115
O2    3    0.397135   -0.227236    0.514498    11.00000    0.04449    0.04186 =
         0.04255   -0.00839    0.01776    0.00440
O3    3    0.338261   -0.079509    0.582657    11.00000    0.04829    0.05340 =
         0.05498    0.00114    0.03151    0.01283
C1    1    0.545232    0.505106    0.708893    11.00000    0.02232    0.01370 =
         0.02349   -0.00065    0.01300   -0.00008
C2    1    0.500000    0.124672    0.750000    10.50000    0.03003    0.01622 =
         0.03273    0.00000    0.01781    0.00000
C3    1    0.500000    0.284449    0.750000    10.50000    0.02908    0.01121 =
         0.02507    0.00000    0.01552    0.00000
C4    1    0.595865    0.593025    0.669178    11.00000    0.02354    0.01486 =
         0.02388    0.00072    0.01450   -0.00012
C5    1    0.544727    0.357729    0.703793    11.00000    0.02839    0.01398 =
         0.02988   -0.00115    0.01879   -0.00016
C6    1    0.334902   -0.156510    0.494719    11.00000    0.03762    0.02833 =
         0.03186    0.00043    0.01807    0.00160
C7    1    0.634270    0.819504    0.643009    11.00000    0.04000    0.01730 =
         0.04848    0.00288    0.03277   -0.00327
C8    1    0.647782    0.533121    0.628908    11.00000    0.03427    0.02193 =
         0.03558   -0.00076    0.02475    0.00352
C9    1    0.694824    0.621305    0.596236    11.00000    0.03839    0.03137 =
         0.04369    0.00256    0.03160    0.00485
C10   1    0.687352    0.766945    0.602199    11.00000    0.04320    0.02906 =
         0.04855    0.00286    0.03567   -0.00195

HKLF 4

REM  SAVE_a.res in C2/c
REM R1 =  0.0184 for    1851 Fo > 4sig(Fo)  and  0.0190 for all    1886 data
REM    129 parameters refined using      0 restraints

END

WGHT      0.0260      4.0248

REM Highest difference peak  0.851,  deepest hole -0.630,  1-sigma level  0.109
Q1    1   0.5716  0.3043  0.6630  11.00000  0.05    0.85
Q2    1   0.6484  0.4371  0.6222  11.00000  0.05    0.79
Q3    1   0.7171  0.8320  0.5809  11.00000  0.05    0.76
Q4    1   0.6230  0.9134  0.6410  11.00000  0.05    0.74
Q5    1   0.2767 -0.1531  0.4092  11.00000  0.05    0.71
Q6    1   0.7293  0.5754  0.5688  11.00000  0.05    0.71
Q7    1   0.5000  0.2118  0.7500  10.50000  0.05    0.53
Q8    1   0.5000  0.6497  0.7500  10.50000  0.05    0.51
Q9    1   0.5000 -0.2376  0.7500  10.50000  0.05    0.43
Q10   1   0.4372  0.0585  0.7477  11.00000  0.05    0.41
Q11   1   0.5310  0.3214  0.7339  11.00000  0.05    0.40
Q12   1   0.5000 -0.0752  0.7500  10.50000  0.05    0.40
Q13   1   0.6126  0.7743  0.6440  11.00000  0.05    0.39
Q14   1   0.5664  0.5458  0.6992  11.00000  0.05    0.36
Q15   1   0.5494  0.4235  0.7113  11.00000  0.05    0.35
Q16   1   0.3823 -0.1560  0.5391  11.00000  0.05    0.30
Q17   1   0.6776  0.6958  0.5833  11.00000  0.05    0.29
Q18   1   0.6025  0.6584  0.6793  11.00000  0.05    0.29
Q19   1   0.6138  0.5622  0.6261  11.00000  0.05    0.26
Q20   1   0.6790  0.5604  0.6401  11.00000  0.05    0.24
;
_shelx_res_checksum              87682
_shelx_hkl_file
;
  -4   0   0 2230.08   80.69
  -4   0   0 2270.47   81.09
   4   0   0 2129.39   80.49
   4   0   0 2300.47   79.79
   4   0   0 2189.38   80.99
   6   0   0 6928.91  247.58
   8   0   0 2732.33  102.89
   8   0   0 2802.12  101.59
  -8   0   0 2882.31  103.99
   8   0   0 2811.92  104.09
  -8   0   0 2847.71  103.49
  -8   0   0 2650.14  100.99
 -10   0   0 2575.84   97.59
  10   0   0 2615.34   94.59
 -10   0   0 2708.53   97.69
  10   0   0 2462.15   97.79
 -10   0   0 2427.86   94.09
  10   0   0 2592.04   94.89
  12   0   0 1701.43   73.19
 -12   0   0 1763.32   68.89
  12   0   0 1864.11   69.99
 -12   0   0 1813.22   72.89
 -12   0   0 1902.41   73.29
  12   0   0 1842.32   69.29
 -14   0   0  644.74   33.00
  14   0   0  693.23   34.30
  14   0   0  645.54   29.10
 -14   0   0  615.94   28.40
  16   0   0  368.46   24.30
 -16   0   0  320.97   24.00
 -16   0   0  358.96   19.10
  18   0   0  346.57   26.10
 -18   0   0  331.47   19.20
  -1  -1   0  814.72   29.70
  -1  -1   0  825.62   30.00
   1  -1   0  810.72   29.60
   1  -1   0  825.22   29.30
   1  -1   0  803.12   28.90
   1   1   0  809.22   29.70
  -1   1   0  843.52   29.60
  -1   1   0  709.63   29.10
  -1   1   0  795.42   29.00
  -1   1   0  828.42   29.30
   1   1   0  782.32   29.90
   3  -1   0  915.11   33.00
  -3  -1   0  964.20   33.40
   3  -1   0  882.91   34.10
  -3  -1   0  780.42   33.80
   3  -1   0  903.11   33.90
  -3  -1   0  911.41   32.90
   3  -1   0  950.80   33.10
  -3   1   0  896.61   33.10
   3   1   0  897.11   34.10
   3   1   0  878.61   33.80
  -3   1   0  882.81   32.90
  -3   1   0  914.21   33.70
   3   1   0  897.61   33.00
  -5  -1   0 1878.61   69.69
   5  -1   0 1922.01   70.49
  -5  -1   0 1890.01   70.49
  -5  -1   0 1893.11   68.69
   5  -1   0 1893.61   68.79
   5  -1   0 1967.30   68.89
   5   1   0 1878.01   70.59
  -5   1   0 1887.61   70.09
  -5   1   0 1844.82   70.19
  -5   1   0 1878.11   68.79
   5   1   0 1921.71   68.89
  -7  -1   0 1980.90   75.79
   7  -1   0 1943.31   75.69
   7  -1   0 1969.00   75.49
  -7  -1   0 1992.70   73.29
   7  -1   0 1971.50   73.39
  -7  -1   0 2129.69   75.29
   7  -1   0 2045.80   73.69
  -7   1   0 2020.60   75.39
   7   1   0 1926.31   75.79
   7   1   0 1982.00   73.59
  -7   1   0 1969.30   73.39
  -7   1   0 2108.39   75.69
   9  -1   0  689.13   28.40
   9  -1   0  645.54   30.70
   9  -1   0  697.53   28.30
   9  -1   0  682.23   30.50
  -9  -1   0  673.03   27.90
  -9  -1   0  724.83   31.20
  -9  -1   0  775.32   31.10
   9   1   0  681.53   28.50
   9   1   0  668.83   31.00
  -9   1   0  650.53   27.90
  -9   1   0  690.43   30.60
  -9   1   0  709.43   30.70
 -11  -1   0  599.64   25.50
  11  -1   0  566.44   25.50
  11  -1   0  619.44   26.30
 -11  -1   0  643.84   28.90
  11  -1   0  556.34   27.80
  11  -1   0  594.04   29.10
 -11  -1   0  583.04   28.80
 -11   1   0  586.84   28.80
  11   1   0  574.64   26.00
  11   1   0  576.44   29.00
 -11   1   0  601.24   25.60
 -11   1   0  610.04   28.60
  13  -1   0  447.16   25.70
 -13  -1   0  439.66   25.10
 -13  -1   0  474.55   21.60
 -13  -1   0  449.46   25.40
  13  -1   0  451.35   21.80
  13   1   0  449.95   25.60
 -13   1   0  521.35   25.80
 -13   1   0  435.56   21.30
 -15  -1   0  160.88   16.30
 -15  -1   0  157.78   10.90
  15  -1   0  148.99   15.00
  15  -1   0  153.58   12.30
 -15   1   0  145.29   10.80
  15   1   0  189.08   16.50
  15   1   0  169.28   12.50
 -15   1   0  178.38   15.80
  17  -1   0  147.49   16.90
 -17  -1   0  142.79   11.10
  17   1   0  106.29   14.60
 -17   1   0  162.68   11.80
   0  -2   0 1445.86   52.69
   0  -2   0 1449.65   51.79
   0  -2   0 1374.26   51.89
   0  -2   0 1448.46   51.89
   0   2   0 1347.97   52.39
   0   2   0 1520.15   51.59
   2  -2   0  306.07   12.60
   2  -2   0  305.57   12.90
  -2  -2   0  297.07   13.40
  -2  -2   0  295.47   13.80
   2  -2   0  302.27   13.30
  -2   2   0  321.97   12.80
   2   2   0  307.67   13.90
   2   2   0  296.47   13.30
  -2   2   0  304.87   13.00
  -2   2   0  294.27   12.50
  -4  -2   0   55.99    4.70
  -4  -2   0   49.10    3.40
   4  -2   0   52.19    3.50
   4  -2   0   59.39    4.50
   4  -2   0   54.39    4.60
   4  -2   0   52.79    3.80
  -4   2   0   61.89    3.90
  -4   2   0   54.79    4.50
   4   2   0   52.59    3.70
  -4   2   0   51.89    4.10
   4   2   0   61.69    4.80
   4   2   0   59.79    4.80
  -4   2   0   59.39    3.70
   6  -2   0   36.90    4.30
  -6  -2   0   35.50    4.90
   6  -2   0   34.60    4.30
  -6  -2   0   34.30    3.60
   6  -2   0   36.80    3.30
  -6  -2   0   28.60    2.80
   6   2   0   33.30    4.20
  -6   2   0   37.30    4.00
   6   2   0   41.60    3.60
  -6   2   0   34.50    3.30
   6   2   0   31.90    4.40
  -6   2   0   38.90    4.40
  -6   2   0   36.60    3.30
   8  -2   0  327.37   17.20
  -8  -2   0  310.77   14.70
   8  -2   0  337.77   15.20
   8  -2   0  305.27   17.10
  -8  -2   0  356.06   16.80
  -8  -2   0  330.87   17.60
   8  -2   0  329.97   15.20
   8   2   0  339.97   17.70
   8   2   0  313.17   16.60
  -8   2   0  325.27   17.10
  -8   2   0  313.17   14.90
  -8   2   0  335.27   16.70
   8   2   0  333.17   15.40
  10  -2   0  951.30   42.10
 -10  -2   0 1007.30   42.90
 -10  -2   0 1087.39   42.20
  10  -2   0  974.00   42.60
  10  -2   0  990.40   39.40
  10  -2   0  981.80   39.20
 -10  -2   0  983.40   38.90
  10   2   0  899.71   42.20
 -10   2   0  971.10   39.00
 -10   2   0  979.00   42.00
 -10   2   0  915.11   41.00
  10   2   0  992.90   39.70
  10   2   0 1021.30   41.80
  12  -2   0  286.77   14.90
 -12  -2   0  312.97   18.90
  12  -2   0  293.47   18.50
  12  -2   0  284.97   15.40
 -12  -2   0  282.07   17.40
 -12  -2   0  242.68   13.90
  12  -2   0  249.88   17.10
 -12   2   0  283.87   18.00
 -12   2   0  260.47   16.80
  12   2   0  275.67   15.40
  12   2   0  262.27   18.00
  12   2   0  265.27   16.70
 -12   2   0  276.37   14.60
  14  -2   0   53.49    8.90
 -14  -2   0   73.49    7.20
  14  -2   0   85.89    8.50
 -14  -2   0   71.59   10.90
  14  -2   0   72.39   10.50
  14   2   0   69.19   11.20
 -14   2   0   96.79   11.50
  14   2   0   77.79   10.60
 -14   2   0   78.29    7.50
 -16  -2   0  110.79    9.50
  16  -2   0   86.29   12.60
  16   2   0   76.69   11.90
 -16   2   0  118.39    9.70
 -16   2   0  108.29   13.30
  16   2   0   99.59   14.20
 -18  -2   0   31.50    6.60
  18  -2   0   22.40   10.20
  18   2   0   33.80   10.90
  18   2   0   33.10    9.50
 -18   2   0   33.90    6.80
  -1  -3   0 5249.27  184.28
   1  -3   0 5318.37  182.68
  -1  -3   0 5272.37  183.08
   1   3   0 4452.05  182.98
  -1   3   0 5315.47  181.88
  -3  -3   0 1431.86   54.99
   3  -3   0 1444.56   52.09
   3  -3   0 1370.36   53.19
  -3  -3   0 1440.06   54.39
   3  -3   0 1465.15   52.89
   3  -3   0 1449.06   54.29
   3   3   0 1437.06   52.49
  -3   3   0 1390.76   52.69
   3   3   0 1377.46   53.99
  -3   3   0 1398.26   52.09
   3   3   0 1353.26   54.69
  -3   3   0 1398.96   52.79
  -3   3   0 1491.05   53.49
  -5  -3   0 2759.92   99.69
  -5  -3   0 2771.82   99.89
   5  -3   0 2716.23   97.39
   5  -3   0 2462.55   99.19
   5  -3   0 2715.83   98.79
   5  -3   0 2682.33   96.79
  -5   3   0 2767.52   98.99
  -5   3   0 2606.14   97.39
   5   3   0 2785.32   97.29
   5   3   0 2635.54   99.19
  -5   3   0 2749.32   98.09
  -5   3   0 2645.64   96.89
   5   3   0 2530.65   99.49
   7  -3   0 3475.05  132.89
   7  -3   0 3661.63  129.59
  -7  -3   0 3616.74  130.59
   7  -3   0 3482.95  131.89
  -7  -3   0 3578.34  129.29
   7  -3   0 3616.34  129.89
  -7  -3   0 3926.11  133.59
   7   3   0 3529.15  132.59
  -7   3   0 3516.25  129.49
   7   3   0 3614.24  129.99
  -7   3   0 3528.45  129.99
   7   3   0 3385.66  131.99
  -7   3   0 3620.34  131.09
  -7   3   0 3702.03  132.19
   9  -3   0 1426.66   59.29
  -9  -3   0 1486.35   59.29
   9  -3   0 1440.26   58.69
  -9  -3   0 1508.95   57.39
   9  -3   0 1438.16   55.69
  -9  -3   0 1367.76   54.89
   9  -3   0 1500.95   55.79
   9   3   0 1471.05   59.19
  -9   3   0 1430.76   55.39
   9   3   0 1482.65   56.09
  -9   3   0 1445.06   57.49
   9   3   0 1409.16   58.19
  -9   3   0 1465.45   58.39
  11  -3   0  888.81   41.50
  11  -3   0  949.31   38.20
 -11  -3   0  964.40   42.40
 -11  -3   0  875.41   37.30
 -11  -3   0 1008.80   41.00
  11  -3   0  810.82   40.90
  11  -3   0  950.70   38.30
 -11   3   0  935.51   41.30
  11   3   0  985.70   39.00
  11   3   0  969.30   42.40
 -11   3   0  901.11   40.20
 -11   3   0  910.31   37.80
  11   3   0  894.21   40.80
  13  -3   0  895.31   44.00
 -13  -3   0  977.10   45.10
  13  -3   0  915.11   44.10
  13  -3   0  982.70   39.90
 -13  -3   0  950.00   39.10
 -13  -3   0  993.50   43.50
 -13   3   0  917.91   39.30
 -13   3   0  979.10   42.90
  13   3   0  911.51   44.10
  13   3   0  927.91   43.00
  15  -3   0  480.25   29.20
 -15  -3   0  528.25   24.40
  15  -3   0  494.95   29.00
  15   3   0  499.15   28.10
 -15   3   0  475.85   28.20
 -15   3   0  500.65   24.50
  15   3   0  496.45   29.50
  17  -3   0  350.16   26.10
 -17  -3   0  357.46   19.70
  17   3   0  353.16   24.20
 -17   3   0  347.07   19.80
  17   3   0  349.96   25.70
   0  -4   0 1339.07   49.90
   0  -4   0 1333.77   50.29
   0  -4   0 1350.46   51.79
   0   4   0 1364.06   49.00
   0   4   0 1248.28   50.69
   2  -4   0  900.01   35.30
   2  -4   0  922.81   35.40
  -2  -4   0  910.61   36.20
  -2  -4   0  909.51   37.50
   2  -4   0  889.21   35.70
  -2  -4   0  871.01   33.50
  -2   4   0  837.52   34.80
   2   4   0  799.82   35.20
  -2   4   0  916.91   34.00
   2   4   0  830.32   36.10
  -2   4   0  926.61   34.50
  -2   4   0  899.61   34.30
   4  -4   0 2099.69   74.69
   4  -4   0 2009.00   77.59
  -4  -4   0 2066.39   78.59
   4  -4   0 2033.40   75.59
  -4  -4   0 2039.70   73.99
  -4  -4   0 2055.29   77.79
   4  -4   0 2041.00   76.49
  -4   4   0 1997.50   75.49
   4   4   0 1972.60   78.09
  -4   4   0 2110.09   75.69
   4   4   0 1969.70   74.99
   4   4   0 1982.30   77.19
  -4   4   0 2009.50   74.69
  -4   4   0 2145.89   76.29
   6  -4   0 1899.21   68.99
  -6  -4   0 1930.31   72.79
   6  -4   0 1790.12   71.19
   6  -4   0 1905.71   69.89
  -6  -4   0 1927.91   72.89
   6  -4   0 1787.82   72.39
  -6   4   0 1852.71   69.09
   6   4   0 1998.90   69.89
  -6   4   0 1780.32   69.69
   6   4   0 1701.03   72.09
  -6   4   0 1907.21   71.29
  -6   4   0 1878.21   70.19
   6   4   0 1819.42   71.99
   8  -4   0  725.43   30.00
  -8  -4   0  732.83   30.40
  -8  -4   0  704.63   33.00
   8  -4   0  730.33   29.40
   8  -4   0  655.93   32.70
   8   4   0  726.33   30.00
  -8   4   0  701.43   29.30
   8   4   0  723.03   32.80
  -8   4   0  703.83   30.00
   8   4   0  712.03   32.50
  -8   4   0  684.83   30.60
  -8   4   0  714.83   32.00
  10  -4   0  515.55   23.00
  10  -4   0  483.55   26.70
 -10  -4   0  516.75   27.20
  10  -4   0  494.45   26.20
  10  -4   0  534.85   23.50
 -10  -4   0  514.35   24.50
 -10   4   0  480.95   23.20
  10   4   0  513.85   26.20
  10   4   0  525.85   24.00
 -10   4   0  473.75   25.60
 -10   4   0  518.75   24.80
 -10   4   0  491.75   22.70
  10   4   0  514.45   26.60
 -12  -4   0  395.16   24.90
  12  -4   0  348.07   23.40
 -12  -4   0  470.05   23.70
 -12  -4   0  435.36   20.40
  12  -4   0  423.16   24.70
  12  -4   0  473.75   21.80
  12   4   0  401.06   24.50
 -12   4   0  410.26   20.50
 -12   4   0  450.05   23.30
  12   4   0  431.16   24.20
  14  -4   0  290.17   21.00
  14  -4   0  271.67   20.40
 -14  -4   0  291.77   16.00
 -14   4   0  253.17   15.80
  14   4   0  308.67   20.30
 -14   4   0  276.47   19.30
  14   4   0  308.67   21.50
  16  -4   0  207.48   18.50
  16  -4   0  163.18   18.30
 -16  -4   0  199.78   13.20
  16   4   0  167.68   17.60
 -16   4   0  179.28   13.10
 -16   4   0  193.28   19.90
  16   4   0  166.18   16.80
  18   4   0  123.39   17.20
  -1  -5   0  241.78   14.40
  -1  -5   0  241.78   12.20
   1  -5   0  224.68   12.30
   1  -5   0  249.78   13.40
  -1  -5   0  212.78   11.20
   1  -5   0  252.57   12.20
  -1  -5   0  250.87   13.10
   1  -5   0  199.58   11.90
   1   5   0  207.38   12.60
   1   5   0  231.08   10.60
  -1   5   0  214.18   12.30
  -1   5   0  235.18   11.40
  -1   5   0  231.98   11.10
  -3  -5   0   22.80    4.30
   3  -5   0   14.00    3.20
   3  -5   0   14.80    3.00
   3  -5   0   16.00    3.70
  -3  -5   0   18.60    2.80
  -3  -5   0   15.00    4.10
  -3   5   0   19.90    3.60
  -3   5   0   32.00    4.10
   3   5   0   28.50    5.00
   3   5   0   26.00    4.50
  -3   5   0   23.10    3.20
   5  -5   0   80.89    6.70
   5  -5   0   70.79    5.50
  -5  -5   0   63.09    4.70
   5  -5   0   82.19    7.20
  -5  -5   0   83.99    8.70
   5  -5   0   59.39    7.00
  -5  -5   0   76.09    8.20
   5   5   0   80.09    6.30
  -5   5   0   70.39    6.00
  -5   5   0   77.29    5.70
   5   5   0   79.59    7.90
  -5   5   0   77.19    6.80
  -5   5   0   67.49    6.00
   5   5   0   69.69    7.20
  -7  -5   0   75.29    9.00
   7  -5   0   65.99    7.20
   7  -5   0   75.19    6.10
  -7  -5   0   76.39    9.20
   7  -5   0   65.69    6.30
   7  -5   0   66.09    8.00
   7   5   0   71.59    8.00
  -7   5   0   70.99    5.90
  -7   5   0   78.39    7.00
  -7   5   0   78.49    7.60
  -7   5   0   75.39    6.50
   7   5   0   80.69    6.80
   7   5   0   74.69    8.40
   9  -5   0  347.47   17.10
  -9  -5   0  348.27   17.90
  -9  -5   0  323.87   21.10
   9  -5   0  346.57   20.10
   9  -5   0  323.57   20.60
   9  -5   0  389.76   18.30
  -9   5   0  333.87   17.00
   9   5   0  336.97   20.20
  -9   5   0  328.97   17.60
  -9   5   0  351.56   18.50
  -9   5   0  375.66   20.00
   9   5   0  332.97   20.30
   9   5   0  350.86   18.10
 -11  -5   0  199.18   16.50
  11  -5   0  213.88   16.10
  11  -5   0  200.58   16.20
  11  -5   0  192.28   13.10
 -11  -5   0  195.38   13.90
 -11   5   0  206.68   14.40
 -11   5   0  201.68   13.10
 -11   5   0  202.28   12.30
  11   5   0  199.08   15.50
  11   5   0  226.98   16.40
  13  -5   0   11.00    6.10
  13  -5   0   18.60    6.70
 -13  -5   0   16.00    6.70
  13   5   0   20.60    6.40
  13   5   0   24.20    7.20
 -13   5   0   12.50    3.90
 -13   5   0   33.40    7.20
  15  -5   0   41.70    9.80
  15  -5   0   47.90   10.50
 -15   5   0   51.39    7.40
  15   5   0   62.79   12.10
  15   5   0   49.50   10.00
 -15   5   0   47.10   10.20
  17  -5   0   12.80    9.20
  17  -5   0   28.80   12.40
  17   5   0   38.70   11.60
  17   5   0    3.00    8.50
 -17   5   0   19.10    5.50
   0  -6   0 1179.98   46.20
   0  -6   0 1167.88   46.20
   0  -6   0 1197.18   48.60
   0  -6   0 1069.99   44.90
   0   6   0 1064.79   46.30
   0   6   0 1193.68   43.60
   0   6   0 1140.29   44.90
  -2  -6   0 2022.50   77.59
  -2  -6   0 1924.51   73.49
   2  -6   0 1948.71   72.99
   2  -6   0 1848.32   74.19
   2  -6   0 2012.30   75.29
  -2  -6   0 1963.90   72.09
   2  -6   0 1968.10   74.59
  -2  -6   0 2035.40   75.39
  -2   6   0 1818.62   73.89
  -2   6   0 2036.20   72.29
  -2   6   0 1854.91   72.29
  -2   6   0 1938.01   72.39
   2   6   0 1792.02   74.79
  -4  -6   0 2429.36   90.99
  -4  -6   0 2487.95   89.49
   4  -6   0 2312.07   87.29
  -4  -6   0 2212.88   83.99
   4  -6   0 2281.17   87.69
   4  -6   0 2117.39   87.99
  -4   6   0 2369.56   85.69
  -4   6   0 2231.38   84.99
  -4   6   0 2365.76   85.99
   4   6   0 2189.78   88.39
  -4   6   0 2259.87   86.59
   4   6   0 2290.27   87.79
  -6  -6   0 1762.02   68.79
   6  -6   0 1944.81   70.29
  -6  -6   0 1962.50   76.29
   6  -6   0 1875.01   73.59
   6  -6   0 1872.11   71.99
  -6  -6   0 1884.21   74.99
   6  -6   0 1696.13   73.99
  -6   6   0 1830.42   70.29
   6   6   0 1922.21   71.29
  -6   6   0 1857.21   71.89
   6   6   0 1812.92   74.29
  -6   6   0 1908.41   72.29
   6   6   0 1850.31   73.69
  -6   6   0 1896.41   71.29
  -8  -6   0 1143.49   49.90
  -8  -6   0 1066.99   43.00
  -8  -6   0 1157.88   49.80
   8  -6   0 1142.89   48.30
   8  -6   0 1014.90   49.00
   8  -6   0 1115.19   45.90
   8  -6   0 1100.19   44.30
   8   6   0 1082.69   48.30
  -8   6   0 1030.10   45.30
  -8   6   0 1115.09   45.80
   8   6   0 1185.58   46.00
  -8   6   0 1151.68   47.10
   8   6   0 1098.99   48.90
  -8   6   0 1159.88   44.80
  10  -6   0  255.67   18.00
 -10  -6   0  279.57   19.80
  10  -6   0  220.98   17.70
 -10  -6   0  285.17   15.70
 -10   6   0  237.78   15.10
  10   6   0  214.28   17.10
  10   6   0  269.17   18.30
 -10   6   0  256.57   16.00
 -10   6   0  260.07   14.50
  12  -6   0  257.07   20.30
  12  -6   0  279.77   20.60
 -12  -6   0  268.17   17.50
  12   6   0  278.97   19.70
  12   6   0  298.27   20.50
 -12   6   0  277.87   18.10
 -12   6   0  258.57   15.50
 -12   6   0  256.97   16.40
  14  -6   0  486.35   31.10
  14  -6   0  502.05   30.60
  14   6   0  488.05   29.10
  14   6   0  468.85   30.10
 -14   6   0  490.75   24.90
 -14   6   0  513.25   28.20
  16  -6   0  337.37   27.00
  16  -6   0  312.57   27.70
  16   6   0  344.87   25.50
  16   6   0  413.46   27.90
 -16   6   0  342.17   20.50
  -1  -7   0  689.23   33.30
  -1  -7   0  611.34   29.60
   1  -7   0  703.83   32.80
   1  -7   0  634.74   29.80
   1  -7   0  695.83   30.90
  -1  -7   0  648.84   28.70
  -1  -7   0  706.83   31.30
  -1   7   0  672.43   28.80
   1   7   0  660.93   30.90
  -1   7   0  632.54   30.40
  -1   7   0  679.23   27.60
   1   7   0  702.83   27.10
  -3  -7   0 1130.89   42.80
  -3  -7   0 1118.79   49.00
   3  -7   0 1005.60   45.40
  -3  -7   0 1129.49   47.00
  -3  -7   0 1131.89   44.70
   3  -7   0 1100.29   46.20
   3  -7   0 1123.19   46.60
  -3   7   0 1072.39   43.30
  -3   7   0 1048.70   43.20
  -3   7   0 1015.10   45.00
  -3   7   0 1118.29   43.30
   3   7   0 1013.90   46.00
  -5  -7   0  700.63   34.50
   5  -7   0  724.13   33.60
   5  -7   0  645.44   33.30
   5  -7   0  702.23   33.00
  -5  -7   0  714.93   29.10
  -5  -7   0  683.03   35.50
   5   7   0  731.03   34.00
  -5   7   0  756.72   31.50
  -5   7   0  696.23   30.40
  -5   7   0  719.23   30.90
   5   7   0  788.42   31.60
   5   7   0  734.43   33.30
  -5   7   0  703.03   32.10
  -7  -7   0  908.51   42.80
  -7  -7   0  923.21   43.60
   7  -7   0  813.12   41.40
   7  -7   0  938.71   37.50
  -7  -7   0  880.01   35.80
   7  -7   0  895.01   41.30
   7   7   0  930.51   41.20
  -7   7   0  914.61   37.80
  -7   7   0  901.41   39.30
  -7   7   0  888.61   38.30
  -7   7   0  877.21   39.10
   7   7   0  994.70   39.30
   7   7   0  911.61   41.50
   9  -7   0  971.90   44.60
  -9  -7   0  977.50   48.80
  -9  -7   0  939.11   38.00
   9  -7   0  859.31   44.90
  -9  -7   0 1083.79   40.30
  -9   7   0  958.20   40.20
   9   7   0  960.70   44.30
  -9   7   0  999.10   41.90
  -9   7   0  978.00   41.50
   9   7   0  820.32   43.10
 -11  -7   0  838.92   34.20
  11  -7   0  763.12   41.80
 -11  -7   0  884.31   36.90
  11  -7   0  783.22   40.70
  11   7   0  848.52   41.20
 -11   7   0  800.12   37.30
 -11   7   0  781.82   35.70
  11   7   0  858.21   40.90
 -11   7   0  813.52   37.60
  13  -7   0  596.74   35.40
  13  -7   0  555.14   35.20
 -13  -7   0  653.63   31.70
  13   7   0  605.24   34.70
 -13   7   0  627.34   32.10
  13   7   0  615.34   34.00
 -13   7   0  632.34   31.10
 -13   7   0  604.04   29.30
  15  -7   0  240.98   23.70
  15  -7   0  240.18   23.60
  15   7   0  267.07   23.20
  15   7   0  254.47   22.10
 -15   7   0  249.78   16.80
   0  -8   0   51.79    7.20
   0  -8   0   41.50    7.90
   0  -8   0   53.29    7.60
   0  -8   0   63.79    8.80
   0   8   0   44.30    4.80
   0   8   0   35.90    6.70
   0   8   0   42.20    6.20
   2  -8   0  100.99    9.90
  -2  -8   0   75.19    8.10
  -2  -8   0   67.09   10.70
  -2  -8   0   75.19    7.10
   2  -8   0   92.39    9.20
  -2  -8   0   89.49   10.70
   2  -8   0   61.09    8.00
  -2   8   0   88.59    8.50
   2   8   0   87.49    9.10
  -2   8   0   74.99    7.10
  -2   8   0   70.59    6.60
  -4  -8   0   57.09    5.90
   4  -8   0   55.49    9.00
  -4  -8   0   78.89   13.60
  -4  -8   0   63.69    7.10
   4  -8   0   40.10    7.50
  -4  -8   0   71.59   10.00
  -4   8   0   53.39    6.60
  -4   8   0   55.19    6.70
   4   8   0   63.69    8.10
  -4   8   0   53.99    7.90
  -4   8   0   51.59    6.10
  -6  -8   0  198.28   11.10
   6  -8   0  182.98   15.00
   6  -8   0  176.38   14.90
  -6  -8   0  203.88   17.00
   6   8   0  188.58   14.00
  -6   8   0  200.18   13.00
   6   8   0  193.18   15.00
  -6   8   0  206.28   12.60
  -6   8   0  199.48   13.90
  -6   8   0  206.78   13.60
   8  -8   0  235.68   18.10
   8  -8   0  204.28   17.60
  -8  -8   0  240.28   12.70
  -8   8   0  265.27   15.80
  -8   8   0  226.38   14.10
   8   8   0  250.67   17.40
  -8   8   0  234.88   15.80
   8   8   0  221.18   16.80
 -10  -8   0   18.30    5.50
  10  -8   0   17.20    7.70
  10  -8   0    7.60    6.20
 -10  -8   0   20.00    4.00
  10   8   0   13.10    6.30
 -10   8   0   12.70    4.30
 -10   8   0   13.70    4.90
  10   8   0   14.80    6.00
 -10   8   0   10.30    5.30
 -12  -8   0   68.09    9.90
 -12  -8   0   54.79    6.70
  12  -8   0   33.60   10.10
  12  -8   0   52.89   12.30
 -12   8   0   51.69    9.90
  12   8   0   47.80   10.00
 -12   8   0   62.89    8.40
  12   8   0   47.70   10.30
 -12   8   0   47.70    8.60
  14  -8   0   49.00   12.90
 -14  -8   0   61.79    8.00
  14  -8   0   55.39   13.30
 -14   8   0   72.09    9.70
  14   8   0   75.89   12.70
  14   8   0   60.49   11.30
   1  -9   0 1974.10   78.49
  -1  -9   0 1901.11   77.29
  -1  -9   0 1966.40   74.69
   1  -9   0 1946.81   75.79
  -1   9   0 1940.91   72.49
  -1   9   0 1920.31   74.99
   1   9   0 1835.52   77.59
   1   9   0 1967.60   75.39
  -1   9   0 1871.81   77.49
  -3  -9   0 1318.77   54.69
  -3  -9   0 1293.57   51.59
   3  -9   0 1274.17   54.99
   3  -9   0 1317.57   56.99
   3   9   0 1292.57   55.89
  -3   9   0 1314.77   55.79
  -3   9   0 1268.17   52.79
  -3   9   0 1328.07   51.69
   5  -9   0 1039.30   49.00
  -5  -9   0 1136.89   44.20
  -5  -9   0 1137.59   47.50
   5  -9   0 1089.19   50.39
  -5   9   0 1111.19   45.90
  -5   9   0 1088.39   46.20
  -5   9   0 1091.79   45.90
   5   9   0 1112.79   49.40
  -5   9   0 1146.89   49.20
  -7  -9   0  897.01   36.60
   7  -9   0  887.91   44.10
   7  -9   0  844.72   43.20
   7   9   0  921.21   42.70
  -7   9   0  904.11   39.20
  -7   9   0  912.11   41.60
   7   9   0  904.71   42.00
  -7   9   0  921.61   39.50
   9  -9   0  610.04   35.60
   9  -9   0  576.04   35.00
  -9  -9   0  612.94   27.60
  -9  -9   0  682.13   29.00
  -9   9   0  667.23   30.90
   9   9   0  661.93   34.30
   9   9   0  664.83   34.40
  -9   9   0  688.83   33.30
  -9   9   0  644.04   31.30
 -11  -9   0  452.75   21.80
  11  -9   0  407.76   29.50
 -11  -9   0  494.35   24.40
  11  -9   0  459.95   31.10
 -11   9   0  446.16   24.40
 -11   9   0  453.75   26.20
 -11   9   0  456.15   26.50
  11   9   0  526.95   29.80
  11   9   0  477.55   28.10
   0 -10   0  983.20   46.00
   0 -10   0 1011.00   42.60
   0  10   0  932.11   42.50
   0  10   0 1004.00   45.80
   0  10   0  984.80   39.50
  -2 -10   0  750.92   37.50
   2 -10   0  779.42   36.40
  -2 -10   0  782.22   34.20
   2 -10   0  786.52   39.30
  -2  10   0  812.12   38.70
   2  10   0  804.82   38.50
  -2  10   0  751.02   32.90
  -2  10   0  747.63   35.20
   2  10   0  811.62   35.90
  -4 -10   0  725.83   35.00
  -4 -10   0  726.23   31.30
   4 -10   0  715.73   35.40
   4 -10   0  707.83   37.80
  -4  10   0  693.33   31.90
  -4  10   0  702.83   33.30
   4  10   0  760.12   36.50
  -4  10   0  748.13   36.50
   6 -10   0  701.13   39.30
  -6 -10   0  761.82   35.40
  -6 -10   0  726.33   31.50
   6 -10   0  754.72   37.70
  -6  10   0  765.42   37.70
  -6  10   0  721.03   33.90
  -6  10   0  720.13   34.40
   6  10   0  810.82   38.00
   8 -10   0  438.66   28.50
   8 -10   0  407.66   29.40
  -8 -10   0  437.16   24.50
  -8 -10   0  454.55   21.50
  -8  10   0  474.65   27.30
  -8  10   0  457.35   24.50
  -8  10   0  436.86   24.50
   8  10   0  489.25   27.20
   8  10   0  495.65   27.60
  10 -10   0  297.87   24.60
 -10 -10   0  310.97   16.80
  10 -10   0  371.66   27.70
 -10  10   0  316.17   20.00
  10  10   0  352.66   23.20
  10  10   0  316.97   22.90
 -10  10   0  334.27   22.40
   1 -11   0   -1.10    6.10
  -1 -11   0    2.30    4.80
   1 -11   0    3.60    5.10
  -1 -11   0   -0.10    5.90
  -1  11   0    7.70    4.70
   1  11   0    2.50    4.80
  -1  11   0    1.60    4.40
  -1  11   0    2.40    4.40
   1  11   0   -0.70    5.20
  -3 -11   0   14.70    6.70
  -3 -11   0    9.80    5.00
   3 -11   0    9.70    8.50
   3 -11   0   -3.20    5.00
  -3  11   0    2.90    5.70
   3  11   0    9.10    5.40
  -3  11   0   15.30    5.40
   3  11   0    9.90    5.00
  -3  11   0    5.50    5.10
   5 -11   0   -5.10    5.80
  -5 -11   0   -7.00    5.00
   5 -11   0    0.40    7.60
  -5 -11   0    4.20    4.40
  -5  11   0    1.00    5.80
   5  11   0   -2.90    4.90
  -5  11   0   10.20    5.30
  -7 -11   0    5.20    6.00
   7 -11   0   -1.80    8.80
   7 -11   0   17.90    8.50
  -7 -11   0    5.20    4.90
  -7  11   0    2.70    5.70
  -7  11   0   14.70    6.90
   7  11   0    2.70    5.70
   0 -12   0  789.72   35.20
   0 -12   0  671.73   40.30
   0  12   0  794.82   37.30
   0  12   0  776.12   39.90
   2 -12   0  659.33   32.30
  -2 -12   0  674.03   30.20
  -2 -12   0  639.34   36.30
   2 -12   0  605.24   37.90
  -2  12   0  637.64   33.00
   2  12   0  668.73   33.30
   2  12   0  661.33   35.80
  18   0  -1    0.90    6.40
 -18   0   1    3.10    3.50
 -16   0   1  -12.10    6.10
  16   0  -1   -3.90    4.80
  16   0  -1    0.20    4.00
 -16   0   1    0.60    2.60
 -14   0   1   -1.20    1.90
  14   0  -1   -0.70    3.00
 -14   0   1   11.10    5.40
  14   0  -1    5.40    4.10
  12   0  -1    5.70    2.70
  12   0  -1    5.00    3.40
  12   0  -1    2.00    2.20
 -12   0   1    2.00    3.10
 -12   0   1    0.00    1.40
 -12   0   1    0.90    3.60
  10   0  -1    0.30    1.70
 -10   0   1    1.00    2.50
 -10   0   1    1.70    1.40
  10   0  -1    0.80    1.50
 -10   0   1    0.30    2.30
  10   0  -1    1.70    2.00
   8   0  -1    7.10    1.90
   8   0  -1    6.80    1.60
  -8   0   1   18.00    3.60
   8   0  -1    5.60    2.30
  -8   0   1    6.60    2.30
  -8   0   1    4.00    1.50
  -6   0   1    6.60    1.70
   6   0  -1    8.50    1.60
   6   0  -1    5.80    1.90
  -6   0   1   11.10    1.80
  -6   0   1    3.90    1.50
  -4   0   1    4.60    1.20
   4   0  -1    4.60    1.20
  -4   0   1    6.00    1.10
   4   0  -1    8.20    0.90
  -2   0   1    9.90    0.80
  -2   0   1   10.60    0.90
   2   0  -1    8.80    0.80
   0   0  -1    7.90    0.60
   0   0   1    6.50    0.50
   0   0  -1    6.50    0.70
   0   0   1    4.90    0.60
   0   0  -1    4.40    0.80
  -2   0  -1    6.00    1.40
   2   0   1    2.60    0.70
   2   0   1    4.40    1.10
  -2   0  -1    4.70    0.90
   2   0   1    5.20    1.10
  -2   0  -1    3.00    0.90
  -4   0  -1    3.50    1.00
   4   0   1    5.10    1.50
  -4   0  -1    9.60    2.20
  -4   0  -1    7.80    1.90
   4   0   1    6.50    1.70
   4   0   1    5.50    1.30
   6   0   1    8.40    2.00
  -6   0  -1    5.20    1.60
  -6   0  -1    6.20    2.20
   6   0   1    5.30    2.30
   6   0   1   14.30    3.00
  -6   0  -1    3.90    2.10
  -8   0  -1    5.20    1.80
   8   0   1    3.10    2.40
   8   0   1    3.60    2.10
  -8   0  -1    3.60    2.70
   8   0   1    3.20    2.20
  -8   0  -1    1.30    2.20
  10   0   1    1.70    2.90
 -10   0  -1    5.40    3.80
  10   0   1    1.20    2.40
  10   0   1    2.70    2.50
 -10   0  -1    3.30    3.70
 -10   0  -1    4.10    1.90
  10   0   1    1.00    2.40
 -12   0  -1   -0.50    2.00
 -12   0  -1    4.40    4.40
  12   0   1   -0.90    3.40
 -12   0  -1    0.80    5.10
  12   0   1   -1.40    3.80
 -14   0  -1   -4.50    6.30
  14   0   1    5.00    4.90
  14   0   1    1.10    4.80
 -14   0  -1   -0.40    2.40
 -16   0  -1    2.00    3.50
  16   0   1   -6.80    5.90
 -18   0  -1    1.70    4.10
  18   0   1   -0.20    9.10
 -19  -1   1  205.58   14.10
  19  -1  -1  213.88   21.10
  19   1  -1  210.98   21.50
  19   1  -1  204.98   17.90
 -19   1   1  199.48   14.20
  17  -1  -1   79.49   10.00
 -17  -1   1   97.59    8.70
 -17  -1   1   76.39   13.30
  17  -1  -1   71.29   11.80
  17   1  -1   75.19   12.20
 -17   1   1   94.99   12.40
  17   1  -1  114.29   10.90
 -17   1   1   97.69    8.70
  17   1  -1   81.59   10.70
 -15  -1   1  475.45   27.50
  15  -1  -1  492.45   23.10
  15  -1  -1  483.55   27.90
 -15  -1   1  490.55   23.20
  15   1  -1  507.25   23.30
  15   1  -1  493.55   28.00
 -15   1   1  481.35   23.20
 -15   1   1  492.15   27.20
  13  -1  -1 1083.59   42.70
 -13  -1   1 1085.49   47.10
 -13  -1   1 1039.20   42.80
  13  -1  -1 1008.40   46.90
 -13  -1   1 1137.99   47.30
  13  -1  -1 1072.89   44.00
  13   1  -1 1015.60   43.60
  13   1  -1 1074.59   47.60
  13   1  -1 1117.49   42.90
 -13   1   1 1083.29   46.60
 -13   1   1 1087.39   46.90
 -13   1   1 1062.29   43.10
 -11  -1   1 1392.96   55.69
 -11  -1   1 1573.94   59.39
 -11  -1   1 1507.35   59.59
  11  -1  -1 1502.25   56.79
  11  -1  -1 1386.56   59.19
  11  -1  -1 1494.25   55.69
 -11   1   1 1511.85   59.29
  11   1  -1 1426.56   59.69
 -11   1   1 1431.76   56.09
  11   1  -1 1446.96   56.59
 -11   1   1 1487.65   58.89
  -9  -1   1 2572.44   91.49
  -9  -1   1 2492.35   91.99
   9  -1  -1 2469.35   91.89
   9  -1  -1 2451.35   89.39
  -9  -1   1 2323.47   88.69
   9  -1  -1 2245.98   90.89
   9  -1  -1 2482.45   88.59
  -9   1   1 2314.27   88.89
   9   1  -1 2433.86   92.19
   9   1  -1 2534.25   89.49
  -9   1   1 2415.76   91.29
  -9   1   1 2475.85   91.29
   7  -1  -1 1606.84   57.39
  -7  -1   1 1595.74   59.29
   7  -1  -1 1624.54   59.89
  -7  -1   1 1552.24   59.79
  -7  -1   1 1570.64   57.59
   7  -1  -1 1466.65   59.19
  -7   1   1 1523.35   57.69
   7   1  -1 1548.15   59.89
  -7   1   1 1585.94   59.49
   7   1  -1 1572.74   57.89
  -7   1   1 1570.44   59.19
   5  -1  -1 1126.59   43.70
   5  -1  -1 1121.89   43.70
  -5  -1   1 1029.00   43.80
   5  -1  -1 1204.98   42.80
   5  -1  -1 1215.68   42.30
   5   1  -1 1145.29   42.90
   5   1  -1 1145.29   44.10
   5   1  -1 1183.28   42.60
  -5   1   1 1168.38   43.60
  -5   1   1 1160.68   43.70
  -5   1   1 1205.38   42.30
  -5   1   1 1187.48   42.80
   3  -1  -1  859.11   31.00
   3  -1  -1  813.92   31.40
  -3  -1   1  851.41   32.00
   3  -1  -1  856.01   31.60
   3  -1  -1  889.71   31.20
  -3  -1   1  865.91   31.30
  -3  -1   1  863.51   30.80
   3   1  -1  843.02   30.80
  -3   1   1  762.42   31.40
   3   1  -1  892.41   32.10
  -3   1   1  892.71   31.40
  -3   1   1  859.61   30.90
   3   1  -1  799.62   31.30
  -3  -1  -1  123.79    6.10
   3  -1   1  102.89    6.20
   3  -1   1   99.49    5.20
  -3  -1  -1  107.49    6.40
  -3  -1  -1  101.09    5.30
   3  -1   1  109.79    6.70
  -3   1  -1  111.29    5.40
  -3   1  -1  114.09    6.30
  -3   1  -1  108.99    6.60
   3   1   1  107.69    5.60
   3   1   1  111.29    5.50
   3   1   1  103.49    6.40
   5  -1   1 1314.77   47.60
   5  -1   1 1293.57   47.00
  -5  -1  -1 1285.57   49.00
  -5  -1  -1 1164.78   46.70
  -5  -1  -1 1314.67   48.30
   5  -1   1 1213.58   48.90
   5  -1   1 1282.17   49.00
   5   1   1 1234.08   49.10
   5   1   1 1225.18   47.60
  -5   1  -1 1231.18   48.90
   5   1   1 1274.77   47.10
  -5   1  -1 1276.77   48.60
  -5   1  -1 1316.07   47.00
   7  -1   1 1414.46   55.29
   7  -1   1 1387.16   52.49
  -7  -1  -1 1416.36   55.09
  -7  -1  -1 1344.77   52.09
   7  -1   1 1445.86   52.99
  -7  -1  -1 1526.45   54.79
   7  -1   1 1359.86   54.79
   7   1   1 1335.97   53.19
  -7   1  -1 1462.15   54.79
   7   1   1 1297.27   54.89
  -7   1  -1 1356.06   52.19
   7   1   1 1399.06   52.69
  -7   1  -1 1350.46   54.69
  -9  -1  -1 1027.00   43.40
   9  -1   1 1004.90   40.70
  -9  -1  -1 1141.29   43.50
   9  -1   1 1011.80   40.50
   9  -1   1  997.00   42.90
  -9  -1  -1 1000.70   40.00
   9  -1   1  986.50   43.40
  -9   1  -1 1054.69   43.10
   9   1   1 1013.00   40.70
  -9   1  -1 1057.39   43.50
  -9   1  -1  988.80   40.00
   9   1   1  972.00   43.40
 -11  -1  -1 1403.36   55.39
  11  -1   1 1308.97   51.89
 -11  -1  -1 1258.07   50.79
  11  -1   1 1315.07   54.69
  11  -1   1 1283.37   55.39
  11  -1   1 1292.97   51.69
 -11  -1  -1 1286.97   54.89
 -11   1  -1 1319.07   55.19
  11   1   1 1279.57   51.79
 -11   1  -1 1344.17   54.79
 -11   1  -1 1294.77   51.09
  11   1   1 1291.87   55.59
  13  -1   1  380.36   22.40
 -13  -1  -1  394.16   23.80
 -13  -1  -1  389.96   19.20
  13  -1   1  357.66   23.40
  13  -1   1  397.26   20.50
  13   1   1  404.66   24.00
 -13   1  -1  372.36   19.20
 -13   1  -1  426.16   23.70
  15  -1   1  291.97   22.10
 -15  -1  -1  284.57   16.60
  15   1   1  330.87   22.70
 -15   1  -1  281.47   16.50
  17  -1   1  205.78   20.90
 -17  -1  -1  236.78   15.10
 -17   1  -1  221.88   15.00
  17   1   1  213.58   20.80
  18  -2  -1  247.98   21.70
 -18  -2   1  218.78   14.50
 -18   2   1  245.38   15.60
 -18   2   1  246.78   22.50
  18   2  -1  250.07   21.30
  18   2  -1  229.78   18.20
 -16  -2   1  413.76   21.10
  16  -2  -1  469.05   22.10
  16  -2  -1  413.36   26.40
 -16  -2   1  399.46   26.60
 -16   2   1  428.46   21.60
 -16   2   1  414.26   25.60
  16   2  -1  445.86   24.40
  16   2  -1  423.26   21.90
  16   2  -1  423.36   26.70
  14  -2  -1  957.80   39.00
  14  -2  -1  931.31   43.80
 -14  -2   1  920.61   38.80
 -14  -2   1  966.10   44.10
 -14   2   1  947.31   39.40
 -14   2   1  969.10   42.80
  14   2  -1  938.51   41.60
  14   2  -1  943.61   44.20
 -12  -2   1  949.60   39.30
  12  -2  -1  850.71   39.40
 -12  -2   1  869.61   39.70
 -12  -2   1  844.42   35.30
  12  -2  -1  904.41   35.60
  12  -2  -1  819.82   38.70
  12  -2  -1  905.41   36.50
 -12   2   1  939.51   39.70
  12   2  -1  894.31   36.50
  12   2  -1  847.92   39.60
  12   2  -1  836.52   37.40
 -12   2   1  824.22   35.60
 -12   2   1  868.91   38.20
 -10  -2   1  295.97   13.60
  10  -2  -1  271.67   15.90
  10  -2  -1  279.77   14.00
  10  -2  -1  249.18   15.60
  10  -2  -1  298.77   13.70
 -10  -2   1  291.17   16.50
 -10  -2   1  298.07   15.80
  10   2  -1  263.27   14.80
  10   2  -1  265.47   16.20
 -10   2   1  272.17   15.20
 -10   2   1  261.27   13.50
 -10   2   1  274.47   15.70
  10   2  -1  287.17   14.10
   8  -2  -1 1767.62   68.09
   8  -2  -1 1817.02   65.69
  -8  -2   1 1765.42   65.49
  -8  -2   1 1887.41   67.59
  -8  -2   1 1761.72   68.59
   8  -2  -1 1761.32   66.09
   8  -2  -1 1724.13   68.19
   8   2  -1 1717.73   67.09
   8   2  -1 1805.62   68.79
  -8   2   1 1739.13   65.89
  -8   2   1 1838.12   68.09
  -8   2   1 1753.62   67.29
   8   2  -1 1822.72   66.09
  -8   2   1 1744.23   65.69
   6  -2  -1 2857.51  102.49
   6  -2  -1 2835.82  104.19
  -6  -2   1 2819.82  102.29
   6  -2  -1 2809.52  102.79
  -6  -2   1 2824.52  104.89
   6   2  -1 2946.91  102.69
   6   2  -1 2831.12  103.79
  -6   2   1 2865.51  102.79
  -6   2   1 2860.51  103.69
  -6   2   1 2840.12  102.49
   6   2  -1 2903.01  104.89
  -6   2   1 2828.42  104.09
  -4  -2   1  817.02   31.50
  -4  -2   1  796.62   29.90
  -4  -2   1  830.92   32.10
   4  -2  -1  800.02   30.40
   4  -2  -1  784.72   30.90
   4  -2  -1  839.92   30.40
   4  -2  -1  829.32   31.40
  -4   2   1  789.82   30.60
   4   2  -1  773.92   31.40
  -4   2   1  784.52   30.20
   4   2  -1  802.82   30.00
  -4   2   1  785.12   30.90
   4   2  -1  837.12   32.00
   0  -2   1 2352.76   83.79
   0  -2  -1 2500.25   82.19
   0  -2  -1 2257.77   85.39
   0  -2  -1 2353.06   83.99
   0  -2   1 2410.46   84.29
   0   2  -1 2364.76   83.89
   0   2  -1 2405.96   83.49
   0   2  -1 2257.67   82.69
   0   2   1 2204.18   83.69
   0   2   1 2169.18   85.09
  -2  -2  -1  601.74   24.80
  -2  -2  -1  607.04   24.10
   2  -2   1  592.34   22.40
   2  -2   1  584.04   24.50
   2  -2   1  578.74   23.00
  -2  -2  -1  592.24   22.30
   2   2   1  561.74   24.50
   2   2   1  632.14   23.20
  -2   2  -1  611.34   24.20
   2   2   1  570.14   23.80
  -2   2  -1  609.94   23.30
  -2   2  -1  584.84   22.40
  -2   2  -1  599.34   23.50
  -4  -2  -1 3068.69  109.29
  -4  -2  -1 3020.50  107.39
   4  -2   1 3072.09  107.59
  -4  -2  -1 2611.84  106.69
   4  -2   1 3014.20  106.89
   4  -2   1 2955.10  108.69
  -4   2  -1 3149.78  109.59
   4   2   1 2970.30  109.49
   4   2   1 2950.60  108.99
  -4   2  -1 2966.10  108.19
  -4   2  -1 2990.80  107.69
  -4   2  -1 2939.11  106.79
   4   2   1 3046.20  107.29
  -6  -2  -1 2063.79   71.89
   6  -2   1 1857.81   73.19
   6  -2   1 1957.80   70.39
   6  -2   1 1902.81   72.79
  -6  -2  -1 1804.92   69.99
  -6  -2  -1 1922.51   72.89
   6  -2   1 1940.31   70.89
  -6   2  -1 1872.81   70.19
   6   2   1 1937.71   70.69
   6   2   1 1908.01   72.99
  -6   2  -1 1859.51   71.89
  -6   2  -1 1929.61   72.99
   6   2   1 1883.71   72.99
  -8  -2  -1 1149.89   43.40
   8  -2   1 1020.30   44.00
   8  -2   1 1101.49   41.40
  -8  -2  -1  987.50   40.70
   8  -2   1 1041.70   44.30
  -8  -2  -1 1069.19   44.40
   8  -2   1 1072.99   41.70
  -8   2  -1 1016.60   40.90
   8   2   1 1049.49   44.40
   8   2   1 1033.10   41.50
  -8   2  -1 1006.30   43.80
  -8   2  -1 1075.39   43.40
   8   2   1 1085.59   44.30
  10  -2   1  702.43   29.90
 -10  -2  -1  700.23   29.50
 -10  -2  -1  798.52   33.20
 -10  -2  -1  712.33   33.50
  10  -2   1  731.93   33.50
  10  -2   1  652.63   32.90
  10  -2   1  672.13   30.00
 -10   2  -1  695.03   32.20
  10   2   1  709.03   33.50
  10   2   1  702.93   30.40
 -10   2  -1  681.53   29.40
 -10   2  -1  710.23   33.10
 -12  -2  -1  347.17   20.90
  12  -2   1  337.97   20.60
 -12  -2  -1  345.67   21.30
 -12  -2  -1  319.97   16.70
  12  -2   1  335.27   17.90
  12  -2   1  309.07   20.50
  12   2   1  330.97   21.00
 -12   2  -1  334.47   20.30
  12   2   1  339.77   20.50
 -12   2  -1  331.87   17.00
  14  -2   1  225.68   17.10
  14  -2   1  206.08   17.80
 -14  -2  -1  226.78   13.60
  14   2   1  249.08   18.10
 -14   2  -1  244.78   18.70
 -14   2  -1  215.28   13.60
  14   2   1  204.98   17.90
  16  -2   1  303.17   24.20
 -16  -2  -1  296.87   17.60
  16   2   1  311.47   22.40
  16   2   1  353.36   24.80
 -16   2  -1  320.17   18.20
 -19  -3   1   31.00    6.30
  19  -3  -1   30.30   12.30
  19   3  -1   31.20   10.80
  19   3  -1   40.50   10.60
 -19   3   1   25.40    6.20
  17  -3  -1   29.80    8.70
 -17  -3   1   24.70    5.20
  17   3  -1   20.10    7.50
 -17   3   1   19.50    8.40
 -17   3   1   14.80    5.00
  17   3  -1   30.80    9.00
 -15  -3   1   35.60    9.00
  15  -3  -1   19.40    6.80
 -15  -3   1   24.40    4.60
  15  -3  -1   30.80    6.00
  15   3  -1   21.00    6.80
 -15   3   1   12.40    5.90
 -15   3   1   25.90    5.40
  15   3  -1   19.70    7.40
 -13  -3   1   95.09   11.80
  13  -3  -1   75.39    7.30
  13  -3  -1   77.49   10.50
  13  -3  -1   90.29    9.70
 -13  -3   1   74.79    9.60
 -13  -3   1   72.29    6.30
 -13   3   1   75.19    9.20
  13   3  -1   70.39    8.70
 -13   3   1   73.89    7.00
  13   3  -1   88.09   11.20
  11  -3  -1    2.40    3.00
 -11  -3   1    2.40    1.80
 -11  -3   1    2.20    3.60
  11  -3  -1   10.10    2.80
 -11  -3   1   -0.10    3.80
  11  -3  -1    5.80    2.90
  11  -3  -1    3.80    2.80
 -11   3   1   -1.90    1.60
  11   3  -1    4.00    2.90
  11   3  -1    2.60    2.90
 -11   3   1    4.30    3.50
  11   3  -1    0.90    3.40
 -11   3   1   -1.40    2.60
   9  -3  -1   92.59    6.70
   9  -3  -1  102.39    6.80
  -9  -3   1   97.59    7.70
   9  -3  -1   93.39    8.20
  -9  -3   1   97.69    9.20
   9  -3  -1   83.99    8.10
  -9  -3   1   99.79    6.30
   9   3  -1   96.29    7.00
  -9   3   1  103.79    8.40
  -9   3   1   85.29    7.40
   9   3  -1   98.39    8.10
  -9   3   1   84.19    6.40
   9   3  -1   90.09    8.50
  -9   3   1   86.39    6.50
   7  -3  -1  858.81   33.20
  -7  -3   1  889.71   36.30
   7  -3  -1  881.01   33.30
   7  -3  -1  817.22   34.80
  -7  -3   1  824.62   32.50
   7  -3  -1  844.22   35.60
   7   3  -1  801.92   34.80
  -7   3   1  831.92   34.70
   7   3  -1  842.42   35.70
  -7   3   1  850.21   34.10
  -7   3   1  850.41   33.10
   7   3  -1  881.21   33.30
  -7   3   1  806.12   33.10
   5  -3  -1   11.90    2.30
   5  -3  -1   17.90    3.10
  -5  -3   1   30.10    4.20
   5  -3  -1   17.50    2.50
   5  -3  -1   12.70    2.90
  -5  -3   1   15.30    3.30
   5   3  -1   13.00    2.80
  -5   3   1   13.00    2.60
   5   3  -1   19.30    2.60
   5   3  -1   11.30    2.80
  -5   3   1   12.00    2.20
  -5   3   1    9.80    1.90
  -5   3   1   14.70    2.50
   3  -3  -1  113.29    6.60
  -3  -3   1  131.89    7.90
  -3  -3   1  116.89    6.30
   3  -3  -1  118.59    6.80
   3  -3  -1  120.79    6.20
   3  -3  -1  122.69    7.10
  -3  -3   1  115.49    7.60
  -3   3   1  126.99    6.60
   3   3  -1  105.49    6.90
  -3   3   1  106.49    6.50
  -3   3   1  122.59    6.30
  -3   3   1  111.09    6.10
   3   3  -1  105.49    7.10
  -1  -3   1   32.80    3.10
   1  -3  -1   32.40    3.90
  -1  -3   1   25.30    2.70
   1  -3  -1   23.40    2.30
  -1  -3   1   28.30    2.90
   1  -3  -1   31.00    2.80
  -1  -3   1   30.20    2.90
   1   3  -1   26.30    2.70
   1   3  -1   24.40    2.50
  -1   3   1   23.50    3.10
  -1   3   1   26.30    2.10
   1  -3   1    5.40    1.60
   1  -3   1    7.10    1.70
  -1  -3  -1    7.80    1.90
   1  -3   1    3.90    1.70
  -1  -3  -1    7.00    1.10
  -1  -3  -1   11.30    2.80
   1  -3   1    7.80    1.40
  -1   3  -1    5.20    1.10
   1   3   1    4.20    1.50
   1   3   1    7.40    2.30
  -1   3  -1    4.70    1.30
  -1   3  -1    7.90    1.90
  -1   3  -1    5.70    1.50
  -3  -3  -1   18.80    3.30
   3  -3   1   12.60    2.00
   3  -3   1   12.40    2.30
  -3  -3  -1   15.90    3.30
   3  -3   1   18.10    2.70
   3  -3   1    6.10    2.10
  -3   3  -1    9.90    2.50
  -3   3  -1   11.00    1.90
   3   3   1   15.60    2.90
  -3   3  -1    9.10    2.00
  -3   3  -1   12.80    2.40
   3   3   1    7.00    2.50
   3   3   1   11.40    2.10
  -5  -3  -1  136.39    7.60
   5  -3   1  119.79    9.10
   5  -3   1  120.39    8.60
   5  -3   1  128.69    7.70
   5  -3   1  117.29    6.90
  -5  -3  -1  135.49    9.30
  -5   3  -1  122.89    8.10
   5   3   1  123.19    8.80
   5   3   1  128.89    7.60
  -5   3  -1  139.39    8.00
   5   3   1  123.99    9.20
  -5   3  -1  128.29    8.90
  -5   3  -1  130.19    7.10
   7  -3   1    7.30    2.80
  -7  -3  -1   15.10    3.40
   7  -3   1   19.40    4.30
   7  -3   1   12.30    3.00
  -7  -3  -1   22.10    4.90
  -7  -3  -1   16.30    2.90
   7  -3   1   18.70    3.10
  -7   3  -1   13.50    3.00
   7   3   1   13.00    3.90
   7   3   1   14.40    4.10
   7   3   1   16.80    3.20
  -7   3  -1   13.90    3.90
  -7   3  -1    9.80    2.90
  -7   3  -1   13.30    2.70
  -9  -3  -1   11.00    2.70
  -9  -3  -1    9.50    3.70
   9  -3   1    6.10    2.80
   9  -3   1    9.40    3.80
   9  -3   1    3.20    2.90
   9  -3   1    2.40    2.20
  -9  -3  -1    3.40    3.60
  -9   3  -1    1.20    3.60
   9   3   1    0.00    3.00
  -9   3  -1    6.20    2.40
   9   3   1    6.10    3.00
   9   3   1    5.00    3.30
  -9   3  -1    1.30    2.70
  11  -3   1   82.89    9.90
  11  -3   1   92.69    8.20
 -11  -3  -1   84.79    7.00
  11  -3   1   74.39    9.40
  11  -3   1   91.69    8.30
 -11  -3  -1   76.49   10.00
 -11  -3  -1   87.19   10.00
 -11   3  -1   88.59    9.90
 -11   3  -1   87.89    7.20
  11   3   1   84.19    9.90
  11   3   1   94.99   10.30
  13  -3   1   28.80    7.40
 -13  -3  -1   29.80    5.10
  13  -3   1   21.60    7.10
 -13   3  -1   21.20    6.80
 -13   3  -1   26.70    4.90
  13   3   1   30.10    8.00
  13   3   1   24.90    6.70
 -15  -3  -1   -0.60    2.90
  15  -3   1    6.70    6.60
  15  -3   1    5.00    5.70
 -15   3  -1    9.10    4.10
  15   3   1   -4.00    5.30
  15   3   1   -5.10    6.00
 -17  -3  -1   -0.70    4.20
  17  -3   1    6.50    9.60
 -17   3  -1    1.90    4.10
  17   3   1   -4.30    7.80
  17   3   1  -14.80    7.80
 -18  -4   1  178.48   13.30
  18  -4  -1  183.48   20.20
 -18   4   1  173.18   13.80
  18   4  -1  209.08   18.40
  18   4  -1  204.68   20.70
  16  -4  -1  284.67   22.10
 -16  -4   1  285.97   16.40
  16   4  -1  272.87   21.90
  16   4  -1  284.17   20.00
 -16   4   1  282.37   17.00
 -16   4   1  313.47   21.70
  14  -4  -1  619.24   27.10
  14  -4  -1  570.84   31.20
 -14  -4   1  585.64   32.10
  14  -4  -1  531.15   30.60
 -14  -4   1  572.24   25.90
 -14   4   1  584.84   29.30
  14   4  -1  526.15   28.90
 -14   4   1  562.34   26.50
  14   4  -1  553.64   31.10
  12  -4  -1  835.22   34.50
 -12  -4   1  872.61   36.90
  12  -4  -1  749.42   38.10
 -12  -4   1  813.82   38.80
 -12  -4   1  758.42   33.40
  12  -4  -1  843.82   38.40
  12   4  -1  827.62   38.70
 -12   4   1  774.92   34.10
 -12   4   1  832.62   36.40
  12   4  -1  873.91   38.10
  12   4  -1  737.03   36.50
 -10  -4   1  964.30   40.60
 -10  -4   1 1039.30   45.90
  10  -4  -1 1075.29   41.80
  10  -4  -1 1102.89   42.00
  10  -4  -1  978.80   45.00
 -10  -4   1 1062.69   43.10
  10  -4  -1 1019.10   44.60
 -10   4   1  974.20   41.30
  10   4  -1 1033.20   44.40
  10   4  -1 1108.69   42.50
  10   4  -1 1029.50   45.20
 -10   4   1 1086.09   43.20
 -10   4   1 1038.10   41.80
 -10   4   1 1042.50   44.10
   8  -4  -1 1351.26   55.29
  -8  -4   1 1395.26   56.09
   8  -4  -1 1421.96   52.59
   8  -4  -1 1394.96   52.09
   8  -4  -1 1361.96   54.39
  -8   4   1 1370.86   52.29
   8   4  -1 1278.97   54.39
   8   4  -1 1322.47   54.99
   8   4  -1 1381.56   52.29
  -8   4   1 1286.37   51.89
  -8   4   1 1367.16   53.99
  -8   4   1 1350.26   53.09
   6  -4  -1 2454.45   87.19
   6  -4  -1 2196.48   89.39
  -6  -4   1 2368.36   90.09
   6  -4  -1 2387.86   87.79
  -6  -4   1 2453.15   90.69
   6  -4  -1 2406.46   88.89
   6   4  -1 2545.65   87.49
  -6   4   1 2386.96   87.79
  -6   4   1 2483.85   88.79
  -6   4   1 2297.17   87.09
   6   4  -1 2324.47   89.79
   6   4  -1 2258.97   89.69
  -6   4   1 2348.47   87.49
  -4  -4   1 3922.91  132.69
  -4  -4   1 3612.24  128.89
   4  -4  -1 3703.83  130.29
  -4  -4   1 3719.03  131.89
   4  -4  -1 3401.76  130.39
   4  -4  -1 3726.63  128.99
   4  -4  -1 3706.43  130.49
   4   4  -1 3202.78  130.59
  -4   4   1 3679.73  129.59
  -4   4   1 3654.33  129.09
  -4   4   1 3181.08  128.79
   4   4  -1 3480.95  131.09
   4   4  -1 3828.22  129.09
  -4   4   1 3395.86  129.59
   2  -4  -1 3233.88  117.09
  -2  -4   1 3327.37  118.19
  -2  -4   1 3238.58  118.49
   2  -4  -1 3375.96  118.99
   2  -4  -1 3103.09  116.69
  -2  -4   1 3212.68  116.69
  -2  -4   1 3255.17  117.09
  -2   4   1 3312.17  116.19
  -2   4   1 3064.49  117.59
  -2   4   1 3234.28  115.79
   2   4  -1 3116.39  117.49
   2   4  -1 3372.96  116.19
  -2   4   1 3166.58  116.49
   0  -4   1 5918.51  213.28
   0  -4   1 5783.32  212.78
   0  -4   1 5966.50  212.98
   0  -4  -1 6062.59  212.28
   0  -4  -1 5924.51  215.68
   0  -4  -1 6223.78  213.38
   0  -4  -1 5968.30  211.08
   0   4  -1 6073.99  212.18
   0   4   1 6489.15  210.48
   0   4   1 5162.48  213.88
   2  -4   1 4858.81  177.58
   2  -4   1 4955.60  175.38
   2  -4   1 4786.42  178.58
  -2  -4  -1 5174.08  180.58
   2  -4   1 4983.80  176.78
  -2  -4  -1 5207.98  178.58
  -2  -4  -1 4943.41  174.48
  -2   4  -1 5107.09  177.28
  -2   4  -1 5026.30  176.58
   2   4   1 4807.32  177.78
  -2   4  -1 4809.92  175.38
   2   4   1 4511.05  179.28
  -4  -4  -1 2029.70   75.99
   4  -4   1 2010.90   73.59
  -4  -4  -1 2006.50   76.99
   4  -4   1 1792.12   75.79
   4  -4   1 2041.90   75.19
   4  -4   1 2087.09   72.49
   4   4   1 1873.81   76.49
  -4   4  -1 2108.89   74.19
   4   4   1 2014.70   73.49
  -4   4  -1 1914.71   72.39
   4   4   1 1896.91   75.09
  -4   4  -1 1880.71   73.59
  -4   4  -1 2012.60   74.99
   6  -4   1 1931.01   79.09
  -6  -4  -1 2218.98   77.09
   6  -4   1 2047.80   76.29
  -6  -4  -1 2218.18   80.99
   6  -4   1 1967.70   80.59
   6  -4   1 2161.38   77.69
  -6   4  -1 1980.00   76.29
   6   4   1 1982.30   79.49
  -6   4  -1 2083.79   78.19
   6   4   1 2033.00   80.79
  -6   4  -1 2065.49   77.79
   6   4   1 2076.49   77.49
  -6   4  -1 2126.89   79.49
  -8  -4  -1 2194.58   78.09
   8  -4   1 2070.29   77.49
  -8  -4  -1 2036.60   81.09
   8  -4   1 2031.00   80.39
   8  -4   1 1867.81   80.99
   8  -4   1 2111.29   76.69
  -8   4  -1 2049.20   79.99
   8   4   1 2006.90   80.89
  -8   4  -1 2027.40   76.49
   8   4   1 2027.50   80.59
   8   4   1 2147.79   77.89
  -8   4  -1 2052.89   78.69
  -8   4  -1 1995.20   77.79
  10  -4   1 1000.60   40.60
  10  -4   1  989.40   39.80
  10  -4   1  966.30   44.00
 -10  -4  -1 1022.20   41.90
  10  -4   1  895.71   43.90
 -10  -4  -1  991.90   44.60
  10   4   1  902.31   43.40
  10   4   1  960.40   43.80
 -10   4  -1 1000.30   42.20
 -10   4  -1  952.80   39.40
 -12  -4  -1  416.46   36.30
  12  -4   1  404.56   24.90
  12  -4   1  394.76   24.70
 -12  -4  -1  433.06   23.40
 -12   4  -1  402.76   20.20
 -12   4  -1  370.46   22.70
  12   4   1  387.96   24.50
  12   4   1  430.86   24.90
  14  -4   1  372.56   24.60
  14  -4   1  341.87   24.40
 -14   4  -1  384.86   19.70
  14   4   1  326.27   23.90
 -14   4  -1  328.37   23.20
  14   4   1  345.77   23.70
  16  -4   1  277.67   24.00
  16  -4   1  304.37   23.40
  16   4   1  235.08   22.60
 -16   4  -1  277.57   17.10
  16   4   1  273.77   22.10
  17  -5  -1  329.07   26.10
  17   5  -1  331.07   25.20
 -17   5   1  329.37   24.90
 -17   5   1  339.17   19.60
  17   5  -1  317.87   23.00
  15  -5  -1  569.24   34.00
  15  -5  -1  597.14   34.30
  15   5  -1  595.44   32.30
 -15   5   1  636.94   32.30
  15   5  -1  630.74   34.60
 -15   5   1  632.34   29.20
  13  -5  -1  770.22   34.40
 -13  -5   1  758.52   39.10
  13  -5  -1  718.93   37.40
  13  -5  -1  708.23   37.90
 -13  -5   1  856.51   36.40
 -13   5   1  685.23   32.70
  13   5  -1  787.62   37.00
  13   5  -1  723.43   37.70
 -13   5   1  779.12   35.50
  11  -5  -1  720.03   36.50
  11  -5  -1  753.22   31.70
  11  -5  -1  699.13   35.20
 -11  -5   1  741.13   36.40
 -11  -5   1  768.62   32.80
  11  -5  -1  688.83   34.30
 -11   5   1  727.63   32.50
  11   5  -1  718.83   35.00
  11   5  -1  724.03   32.00
  11   5  -1  650.13   33.40
 -11   5   1  696.53   31.20
 -11   5   1  710.83   31.00
 -11   5   1  689.03   33.70
   9  -5  -1 1761.22   64.99
   9  -5  -1 1586.64   68.79
  -9  -5   1 1774.42   70.29
   9  -5  -1 1630.84   67.69
   9  -5  -1 1748.13   65.79
  -9   5   1 1796.12   67.79
  -9   5   1 1677.93   65.09
   9   5  -1 1668.83   68.69
   9   5  -1 1679.03   68.29
   9   5  -1 1766.22   65.69
  -9   5   1 1661.63   65.39
  -9   5   1 1663.23   65.89
  -7  -5   1 2849.11  107.59
   7  -5  -1 2854.11  104.29
   7  -5  -1 2620.84  106.29
  -7  -5   1 2792.32  107.09
   7  -5  -1 2882.81  103.19
   7  -5  -1 2760.82  105.49
  -7  -5   1 2781.12  102.59
  -7   5   1 2968.20  104.19
  -7   5   1 2726.93  103.29
   7   5  -1 2637.34  105.99
   7   5  -1 2768.92  106.59
   7   5  -1 2996.50  103.89
  -7   5   1 2766.42  103.89
  -7   5   1 2949.00  105.09
  -5  -5   1 3029.30  108.19
   5  -5  -1 2634.64  106.19
  -5  -5   1 3003.10  108.59
  -5  -5   1 3034.00  103.99
   5  -5  -1 2799.22  105.79
   5  -5  -1 2952.30  104.19
   5  -5  -1 2861.21  106.09
  -5   5   1 2761.62  104.29
  -5   5   1 2784.72  105.19
   5   5  -1 3036.40  104.59
  -5   5   1 2775.52  104.79
  -5   5   1 2896.31  104.59
   5   5  -1 2733.93  106.69
   5   5  -1 2667.23  106.49
   3  -5  -1 3075.49  110.29
   3  -5  -1 2879.71  109.99
  -3  -5   1 3145.99  111.69
  -3  -5   1 3002.50  108.89
   3  -5  -1 2993.30  111.29
  -3  -5   1 3141.09  112.59
  -3   5   1 2832.42  110.09
  -3   5   1 3176.28  108.69
   3   5  -1 2833.12  110.29
   3   5  -1 2759.22  110.39
  -3   5   1 2915.21  108.89
  -3   5   1 3159.28  108.79
   1  -5  -1 2225.78   79.49
   1  -5  -1 2057.99   75.79
   1  -5  -1 2041.50   75.69
   1  -5  -1 1961.80   74.79
  -1  -5   1 2028.00   76.89
  -1  -5   1 2097.09   76.29
  -1  -5   1 2047.70   76.09
  -1  -5   1 1928.41   75.59
   1   5  -1 1831.72   75.89
  -1   5   1 1932.61   76.79
  -1   5   1 2113.39   73.59
   1   5  -1 2053.79   74.49
  -1  -5  -1 1467.25   53.49
   1  -5   1 1476.25   56.09
  -1  -5  -1 1480.95   59.49
   1  -5   1 1432.06   56.79
  -1  -5  -1 1496.05   55.19
  -1  -5  -1 1510.85   56.99
   1  -5   1 1425.36   56.29
  -1   5  -1 1390.86   54.09
  -1   5  -1 1469.25   54.89
  -1   5  -1 1420.26   55.79
   1   5   1 1401.66   55.89
  -1   5  -1 1553.84   55.29
   1   5   1 1329.27   57.39
  -3  -5  -1 3151.48  111.99
   3  -5   1 3099.29  107.99
  -3  -5  -1 3020.30  106.79
   3  -5   1 3017.30  109.59
   3  -5   1 2868.21  111.79
  -3  -5  -1 2949.51  113.49
   3  -5   1 2942.61  110.69
  -3   5  -1 3138.29  109.39
  -3   5  -1 2768.02  107.79
   3   5   1 2871.21  112.69
  -3   5  -1 3031.70  109.89
  -3   5  -1 2858.71  109.49
   3   5   1 3019.00  110.99
   5  -5   1 2618.14   96.39
   5  -5   1 2646.84   94.69
  -5  -5  -1 2687.03   99.49
   5  -5   1 2549.15   98.09
  -5  -5  -1 2693.43  100.59
   5  -5   1 2487.05   99.59
   5   5   1 2493.35   99.79
  -5   5  -1 2518.15   96.39
  -5   5  -1 2511.95   94.79
   5   5   1 2701.03   96.29
   5   5   1 2503.35   98.19
  -5   5  -1 2576.24   96.39
  -5   5  -1 2667.73   97.69
   7  -5   1 1369.06   60.99
   7  -5   1 1518.95   56.29
   7  -5   1 1427.76   59.79
   7  -5   1 1534.65   57.79
  -7  -5  -1 1609.04   56.99
  -7  -5  -1 1480.55   61.29
  -7   5  -1 1382.76   56.09
   7   5   1 1405.06   59.79
   7   5   1 1567.14   57.99
   7   5   1 1449.06   61.39
  -7   5  -1 1425.36   57.69
  -7   5  -1 1458.55   59.29
  -7   5  -1 1462.25   57.99
  -9  -5  -1 1551.14   63.89
   9  -5   1 1455.45   57.79
  -9  -5  -1 1606.24   59.49
   9  -5   1 1519.95   59.29
   9  -5   1 1404.46   61.99
   9  -5   1 1365.66   63.19
   9   5   1 1488.85   62.49
  -9   5  -1 1460.55   59.49
   9   5   1 1681.83   69.39
   9   5   1 1423.96   62.89
  -9   5  -1 1461.85   61.39
  -9   5  -1 1569.94   60.49
  -9   5  -1 1466.25   57.89
  11  -5   1  979.20   46.60
 -11  -5  -1 1084.79   44.10
  11  -5   1  928.01   47.00
  11   5   1 1027.00   46.70
 -11   5  -1  950.80   41.30
 -11   5  -1 1058.59   44.80
  11   5   1  984.60   46.80
  13  -5   1  441.86   28.40
 -13  -5  -1  500.25   27.00
  13  -5   1  416.36   27.50
  13   5   1  401.26   27.00
 -13   5  -1  474.25   26.80
  13   5   1  487.05   28.40
 -13   5  -1  433.56   22.50
  15  -5   1  392.76   28.40
  15  -5   1  383.96   27.50
  15   5   1  424.96   27.70
 -15   5  -1  368.36   21.20
  15   5   1  442.96   28.80
  16  -6  -1   -1.20    8.00
  16  -6  -1    7.00    8.10
  16   6  -1    8.30    6.80
  16   6  -1   10.10    7.50
 -16   6   1   11.40    5.00
 -16   6   1    1.00    9.30
  14  -6  -1   -2.60    5.60
  14  -6  -1    1.00    6.60
  14   6  -1    1.80    5.30
 -14   6   1    2.30    3.50
 -14   6   1    7.50    5.80
  14   6  -1   -0.70    5.20
 -12  -6   1   30.10    8.80
  12  -6  -1   45.00    8.90
  12  -6  -1   60.69    9.80
 -12  -6   1   56.29    8.20
 -12   6   1   49.70    6.90
 -12   6   1   54.69    6.80
  12   6  -1   50.59    9.00
  12   6  -1   69.69   10.90
 -12   6   1   43.30    7.50
  10  -6  -1    5.30    4.20
  10  -6  -1    3.20    3.70
  10  -6  -1    8.20    4.70
 -10  -6   1   -2.50    5.70
 -10   6   1    6.00    2.90
  10   6  -1    1.50    3.80
 -10   6   1    1.80    3.50
 -10   6   1    5.20    2.50
 -10   6   1   -0.80    4.30
  10   6  -1   -1.00    3.50
  10   6  -1    1.70    3.80
  -8  -6   1   71.69    5.80
  -8  -6   1   58.09    8.80
  -8  -6   1   60.89    9.50
   8  -6  -1   74.49    6.70
   8  -6  -1   68.99    8.60
   8  -6  -1   73.09    8.40
   8  -6  -1   77.89    8.00
  -8   6   1   60.29    6.10
  -8   6   1   65.79    6.80
   8   6  -1   80.99    7.40
   8   6  -1   72.89    8.10
  -8   6   1   72.49    7.70
   8   6  -1   70.79    8.70
  -8   6   1   69.59    6.80
  -6  -6   1  164.68    9.50
  -6  -6   1  166.38   13.20
   6  -6  -1  152.78   11.80
   6  -6  -1  176.38   10.30
  -6  -6   1  168.18   13.30
   6  -6  -1  165.18   11.70
   6  -6  -1  165.68   11.70
   6   6  -1  179.28   10.60
   6   6  -1  162.58   11.90
  -6   6   1  169.88   10.90
  -6   6   1  185.58   11.10
   6   6  -1  164.38   11.90
  -6   6   1  163.38   10.30
  -6   6   1  168.88   10.20
   4  -6  -1   12.20    3.30
   4  -6  -1   22.60    4.90
  -4  -6   1   20.60    5.10
   4  -6  -1   17.50    4.10
  -4  -6   1   22.60    3.60
  -4  -6   1   22.30    5.40
  -4   6   1   23.00    3.90
  -4   6   1   13.50    2.70
  -4   6   1   11.60    3.20
  -4   6   1   14.20    3.10
   4   6  -1   27.00    4.50
  -2  -6   1  331.27   18.20
   2  -6  -1  329.57   18.50
  -2  -6   1  306.17   16.20
  -2  -6   1  309.87   15.60
   2  -6  -1  308.47   16.30
  -2  -6   1  308.87   17.00
   2  -6  -1  301.67   15.60
   2  -6  -1  321.57   15.90
  -2   6   1  307.47   15.50
   2   6  -1  330.17   14.60
  -2   6   1  324.37   14.20
   2   6  -1  302.87   16.60
  -2   6   1  296.97   16.50
   0  -6   1  211.28   13.50
   0  -6   1  279.57   15.20
   0  -6  -1  226.68   12.10
   0  -6  -1  309.97   17.80
   0  -6  -1  252.97   13.70
   0  -6   1  243.68   14.10
   0  -6  -1  235.18   14.10
   0  -6   1  250.97   13.70
   0   6  -1  258.07   12.60
   0   6  -1  243.68   12.50
   0   6   1  265.47   11.20
   0   6   1  241.48   14.90
   0   6  -1  236.88   13.80
   2  -6   1  465.75   22.80
  -2  -6  -1  494.25   25.80
   2  -6   1  479.05   22.60
  -2  -6  -1  456.95   23.20
  -2  -6  -1  481.35   19.60
   2  -6   1  457.05   23.50
  -2   6  -1  466.35   21.30
  -2   6  -1  494.55   21.20
  -2   6  -1  452.15   22.00
   2   6   1  470.15   24.00
   2   6   1  485.35   22.60
  -2   6  -1  441.26   20.30
  -4  -6  -1  422.36   24.10
   4  -6   1  395.86   22.40
  -4  -6  -1  429.36   23.00
  -4  -6  -1  406.86   17.60
   4  -6   1  407.26   21.60
   4  -6   1  427.96   20.60
   4   6   1  410.86   23.00
  -4   6  -1  449.66   20.90
  -4   6  -1  413.96   19.00
  -4   6  -1  435.96   20.10
   4   6   1  439.56   21.90
   4   6   1  451.75   20.20
  -4   6  -1  424.16   20.80
  -6  -6  -1   15.30    5.60
   6  -6   1   16.40    5.40
  -6  -6  -1   16.60    2.80
   6  -6   1   23.60    5.20
   6  -6   1   25.60    4.10
   6  -6   1   20.90    4.70
  -6  -6  -1   18.40    6.50
  -6  -6  -1   27.00    4.10
   6   6   1   17.70    5.00
   6   6   1   13.00    4.80
  -6   6  -1   17.80    4.00
  -6   6  -1   14.90    4.40
   6   6   1   20.60    4.20
  -6   6  -1   34.70    5.60
  -6   6  -1   18.50    3.50
   8  -6   1   62.89    9.80
   8  -6   1   54.39    7.90
   8  -6   1   54.89    6.40
   8  -6   1   54.59    8.30
  -8  -6  -1   96.89   12.50
  -8  -6  -1   56.79    6.70
  -8   6  -1   47.30    5.70
  -8   6  -1   43.50    6.20
   8   6   1   56.39    8.20
  -8   6  -1   58.09    6.90
  -8   6  -1   57.79    8.50
   8   6   1   70.29   10.50
  10  -6   1   17.00    6.10
  10  -6   1   14.70    5.90
 -10  -6  -1   27.20    6.00
  10   6   1   24.80    6.90
 -10   6  -1   22.60    6.40
  10   6   1   30.60    6.90
 -10   6  -1   23.40    5.40
 -10   6  -1   30.00    5.20
  12  -6   1    7.70    6.70
 -12  -6  -1    9.30    6.30
  12  -6   1    8.80    6.30
 -12   6  -1   12.50    4.30
 -12   6  -1   17.80    6.90
  12   6   1    5.30    6.10
  12   6   1    7.40    5.40
  14  -6   1   38.90   10.90
  14  -6   1   28.20    9.90
  14   6   1   27.70    8.70
  14   6   1   28.00    9.70
 -14   6  -1   32.50    6.70
  15  -7  -1  271.77   23.80
  15  -7  -1  269.07   23.80
  15   7  -1  332.67   24.40
 -15   7   1  310.47   22.40
 -15   7   1  278.17   17.90
  15   7  -1  313.97   22.00
 -13  -7   1  535.75   26.60
  13  -7  -1  452.15   29.80
  13  -7  -1  495.85   29.90
 -13   7   1  478.65   24.60
  13   7  -1  479.35   27.60
  13   7  -1  491.05   29.50
 -13   7   1  467.05   25.20
 -13   7   1  476.85   26.00
 -11  -7   1  218.88   14.00
  11  -7  -1  162.68   15.80
  11  -7  -1  173.38   16.00
 -11  -7   1  180.18   11.40
 -11   7   1  185.28   13.90
  11   7  -1  189.58   16.20
 -11   7   1  210.58   13.70
 -11   7   1  180.38   12.50
  11   7  -1  184.38   14.80
  -9  -7   1  223.08   12.40
   9  -7  -1  199.58   15.90
   9  -7  -1  204.28   16.20
  -9  -7   1  246.38   19.00
  -9  -7   1  254.37   18.80
   9   7  -1  221.88   16.30
  -9   7   1  221.38   13.50
  -9   7   1  225.08   14.40
  -9   7   1  234.08   15.40
   9   7  -1  235.08   16.00
  -9   7   1  254.87   14.90
   7  -7  -1 1477.85   59.19
  -7  -7   1 1379.16   54.89
  -7  -7   1 1452.85   61.29
   7  -7  -1 1305.47   59.39
  -7  -7   1 1516.85   61.99
   7  -7  -1 1415.96   59.49
  -7   7   1 1444.16   56.59
  -7   7   1 1464.95   57.29
   7   7  -1 1372.76   59.09
  -7   7   1 1351.36   56.19
   7   7  -1 1475.05   59.59
   7   7  -1 1564.84   57.19
  -7   7   1 1429.66   57.69
   5  -7  -1 1253.07   49.70
  -5  -7   1 1101.49   44.90
  -5  -7   1 1193.98   51.19
   5  -7  -1 1154.58   48.50
   5  -7  -1 1032.50   47.60
  -5  -7   1 1227.68   50.09
   5   7  -1 1140.29   48.20
   5   7  -1 1136.89   48.30
   5   7  -1 1203.28   45.80
  -5   7   1 1131.59   45.50
  -5   7   1 1115.89   47.40
  -5   7   1 1127.09   45.50
  -5   7   1 1086.19   45.70
  -3  -7   1  767.42   33.70
   3  -7  -1  815.32   36.80
   3  -7  -1  776.22   34.50
  -3  -7   1  792.22   35.30
   3  -7  -1  789.32   33.10
   3  -7  -1  728.13   33.30
  -3  -7   1  760.22   32.40
  -3  -7   1  822.52   37.20
  -3   7   1  734.93   34.10
   3   7  -1  710.23   33.90
  -3   7   1  761.02   32.60
  -3   7   1  785.22   31.20
   1  -7  -1  851.01   36.40
  -1  -7   1  806.32   36.40
  -1  -7   1  894.81   38.90
   1  -7  -1  859.11   36.50
   1  -7  -1  785.12   34.40
  -1  -7   1  867.81   36.20
   1  -7  -1  900.91   40.20
  -1  -7   1  872.81   36.90
   1   7  -1  825.82   34.50
   1   7  -1  834.02   36.80
  -1   7   1  763.62   36.50
   1   7  -1  859.71   33.90
  -1   7   1  840.12   32.70
  -1   7   1  818.52   35.20
  -1  -7  -1  728.63   31.90
   1  -7   1  681.73   31.30
   1  -7   1  688.13   31.50
  -1  -7  -1  711.43   34.70
   1  -7   1  640.14   30.90
  -1  -7  -1  670.73   27.70
   1  -7   1  674.53   29.90
  -1  -7  -1  669.13   29.80
  -1   7  -1  646.04   30.50
  -1   7  -1  676.13   28.60
  -1   7  -1  675.93   28.50
   1   7   1  629.14   31.40
  -3  -7  -1  967.30   37.10
  -3  -7  -1 1010.60   42.80
   3  -7   1  966.60   42.00
  -3  -7  -1 1011.80   45.20
   3  -7   1  891.91   42.00
   3  -7   1 1002.90   41.60
   3   7   1  954.40   42.60
  -3   7  -1  941.71   40.70
  -3   7  -1  945.01   39.10
  -3   7  -1  926.41   39.30
   3   7   1  931.91   40.90
  -3   7  -1  919.11   38.40
  -5  -7  -1  625.24   31.50
   5  -7   1  577.44   31.20
   5  -7   1  650.43   29.40
  -5  -7  -1  600.84   24.80
   5  -7   1  586.34   30.10
  -5  -7  -1  631.94   33.30
  -5   7  -1  619.84   28.80
   5   7   1  637.24   28.00
  -5   7  -1  584.44   26.60
   5   7   1  647.64   31.50
  -5   7  -1  598.34   27.60
  -5   7  -1  635.94   28.60
   5   7   1  589.24   29.50
  -7  -7  -1  832.72   31.60
  -7  -7  -1  743.33   37.90
  -7  -7  -1  741.73   42.00
   7  -7   1  666.33   36.60
  -7  -7  -1  738.13   29.90
   7  -7   1  781.42   32.00
   7  -7   1  733.43   36.20
  -7   7  -1  732.63   34.00
   7   7   1  758.02   35.90
   7   7   1  762.02   37.40
  -7   7  -1  738.73   34.70
  -7   7  -1  783.82   32.40
  -7   7  -1  713.93   33.10
  -9  -7  -1  549.15   24.00
   9  -7   1  559.24   30.90
  -9  -7  -1  606.14   26.40
   9  -7   1  575.74   32.60
  -9   7  -1  563.64   28.00
   9   7   1  520.45   30.70
   9   7   1  595.24   30.90
  -9   7  -1  550.94   26.10
  -9   7  -1  589.34   28.50
  11  -7   1   73.09   11.90
 -11  -7  -1   96.49   11.20
  11  -7   1   75.79   12.80
 -11   7  -1   83.09    9.80
  11   7   1  100.09   13.30
 -11   7  -1  106.69   12.50
  11   7   1   88.19   12.30
 -11   7  -1   78.99    8.30
  13  -7   1  151.78   17.90
  13  -7   1  165.08   18.50
 -13  -7  -1  177.88   16.90
 -13   7  -1  181.88   13.10
  13   7   1  143.19   17.60
  13   7   1  145.59   17.60
  14  -8  -1  337.47   26.70
  14  -8  -1  296.97   24.70
 -14  -8   1  327.27   17.70
  14   8  -1  336.27   25.00
 -14   8   1  307.87   20.30
  14   8  -1  359.26   22.90
 -14   8   1  323.47   19.70
 -12  -8   1  497.55   24.00
  12  -8  -1  480.45   30.70
  12  -8  -1  542.85   31.60
 -12  -8   1  572.24   27.10
 -12   8   1  528.55   27.50
 -12   8   1  511.45   27.20
  12   8  -1  527.45   28.90
 -12   8   1  494.95   25.90
  12   8  -1  512.15   30.20
  10  -8  -1  926.71   48.10
 -10  -8   1 1006.50   41.80
  10  -8  -1 1047.80   48.70
 -10   8   1 1024.60   43.90
  10   8  -1 1071.29   47.00
 -10   8   1 1062.39   44.50
  10   8  -1 1099.29   48.30
 -10   8   1 1040.00   45.40
   8  -8  -1 1351.76   63.99
  -8  -8   1 1539.65   58.99
  -8  -8   1 1526.95   66.59
   8  -8  -1 1523.65   64.79
  -8   8   1 1533.75   62.59
   8   8  -1 1547.95   64.19
  -8   8   1 1561.14   60.99
  -8   8   1 1574.94   60.89
  -8   8   1 1562.04   61.69
   8   8  -1 1538.95   63.79
  -6  -8   1  984.70   41.10
  -6  -8   1 1031.90   45.40
  -6  -8   1  925.41   45.80
   6  -8  -1  867.41   42.40
  -6  -8   1  973.60   39.20
   6  -8  -1  972.50   43.70
   6   8  -1  859.61   42.00
  -6   8   1  955.30   40.50
  -6   8   1  981.30   42.40
   6   8  -1  984.00   42.90
  -6   8   1  970.30   40.10
  -6   8   1  978.00   40.30
   6   8  -1 1021.50   40.60
  -4  -8   1 1011.10   43.00
  -4  -8   1 1033.90   45.40
  -4  -8   1 1040.70   47.00
   4  -8  -1  917.71   42.60
   4  -8  -1 1019.20   44.50
  -4  -8   1  993.40   41.00
  -4   8   1 1006.90   41.80
  -4   8   1  986.60   43.70
   4   8  -1 1035.50   44.30
  -4   8   1  989.30   40.20
  -2  -8   1 1896.21   73.79
  -2  -8   1 1831.92   74.29
  -2  -8   1 1816.42   71.89
   2  -8  -1 1740.93   71.29
  -2  -8   1 1810.42   76.29
   2  -8  -1 1886.01   73.09
   2  -8  -1 1880.41   73.99
   2   8  -1 1761.12   73.69
   2   8  -1 1929.71   69.79
  -2   8   1 1876.01   71.99
  -2   8   1 1885.51   74.29
  -2   8   1 1889.01   69.19
   0  -8  -1 2054.79   83.29
   0  -8  -1 1881.11   70.99
   0  -8   1 1925.71   74.09
   0  -8  -1 1892.61   73.79
   0  -8   1 1770.82   73.19
   0  -8   1 1800.92   76.19
   0  -8  -1 1886.51   74.49
   0  -8   1 1905.11   74.99
   0   8  -1 1924.21   70.69
   0   8   1 1812.42   74.49
   0   8  -1 1699.83   73.69
   0   8   1 1901.81   68.79
   0   8  -1 1806.22   71.39
   0   8   1 1886.31   72.79
   2  -8   1 2043.50   83.09
  -2  -8  -1 2129.19   78.19
   2  -8   1 2129.49   81.49
  -2  -8  -1 2097.19   83.59
  -2  -8  -1 2262.97   81.79
   2  -8   1 2088.19   83.59
   2   8   1 2087.69   83.79
  -2   8  -1 2014.70   79.49
  -2   8  -1 2077.09   79.69
  -2   8  -1 2087.39   82.49
  -4  -8  -1 1752.42   64.09
  -4  -8  -1 1761.32   67.39
   4  -8   1 1715.63   70.79
   4  -8   1 1590.54   70.59
  -4   8  -1 1756.92   66.99
  -4   8  -1 1724.03   67.29
   4   8   1 1720.33   69.19
  -4   8  -1 1678.83   66.29
   4   8   1 1694.73   70.79
  -4   8  -1 1756.72   69.39
   6  -8   1  540.05   31.80
   6  -8   1  585.34   32.00
  -6  -8  -1  610.04   25.60
   6   8   1  689.13   33.40
  -6   8  -1  655.33   29.40
  -6   8  -1  643.84   28.40
   6   8   1  632.54   31.30
  -6   8  -1  646.84   30.80
   8  -8   1  549.25   31.30
  -8  -8  -1  555.44   24.00
   8  -8   1  518.75   31.50
  -8  -8  -1  612.54   25.70
   8   8   1  581.64   30.60
  -8   8  -1  574.74   28.00
  -8   8  -1  577.74   26.90
  -8   8  -1  566.74   29.00
   8   8   1  574.94   31.10
 -10  -8  -1  892.31   36.20
  10  -8   1  756.72   42.90
  10  -8   1  787.22   42.20
 -10  -8  -1  832.02   33.80
 -10   8  -1  838.82   39.10
  10   8   1  846.92   42.40
 -10   8  -1  830.12   38.60
 -10   8  -1  818.62   36.60
  10   8   1  804.62   41.20
  12  -8   1  551.24   35.40
 -12  -8  -1  565.54   25.20
 -12  -8  -1  577.44   28.90
  12  -8   1  577.84   35.30
  12   8   1  545.45   33.80
 -12   8  -1  608.54   31.00
 -12   8  -1  532.35   27.70
  12   8   1  575.14   34.10
  13  -9  -1   73.39   13.70
  13  -9  -1   75.99   14.20
 -13  -9   1   56.49    7.90
 -13   9   1   47.10    8.30
  13   9  -1   92.09   14.10
 -13   9   1   59.89    9.60
  13   9  -1   75.29   11.70
  11  -9  -1  127.49   16.20
 -11  -9   1  110.79    9.50
 -11  -9   1  126.79   12.40
  11  -9  -1  115.59   15.00
  11   9  -1  151.58   14.00
 -11   9   1  131.99   11.40
  11   9  -1  132.09   14.60
 -11   9   1   86.49   10.50
 -11   9   1  117.89   12.30
  -9  -9   1  111.29    8.80
   9  -9  -1  102.29   12.80
   9  -9  -1  140.19   14.80
  -9   9   1  114.99   10.50
   9   9  -1  113.09   11.80
   9   9  -1  106.89   12.40
  -9   9   1  130.89   11.60
  -9   9   1  115.99   11.70
  -7  -9   1   60.29    6.90
   7  -9  -1   53.49    9.60
  -7  -9   1   62.59    8.50
   7  -9  -1   52.69    9.30
  -7   9   1   49.00    8.40
  -7   9   1   66.29    8.40
  -7   9   1   60.39    8.40
   7   9  -1   39.90    7.20
   7   9  -1   39.00    7.30
  -7   9   1   49.20    7.10
   5  -9  -1  175.38   15.90
  -5  -9   1  216.08   14.60
   5  -9  -1  217.38   15.30
  -5  -9   1  214.78   13.00
  -5   9   1  195.78   13.50
  -5   9   1  219.28   13.10
  -5   9   1  216.68   15.50
   5   9  -1  213.78   15.60
   3  -9  -1  165.98   12.50
  -3  -9   1  176.88   21.70
  -3  -9   1  180.38   14.00
   3  -9  -1  154.88   14.00
  -3  -9   1  191.98   12.60
  -3   9   1  189.88   12.60
   3   9  -1  177.78   14.10
  -3   9   1  190.58   11.00
  -3   9   1  155.08   13.40
  -1  -9   1   88.29   10.60
   1  -9  -1  104.89   10.80
  -1  -9   1  107.99   13.00
   1  -9  -1   96.29    8.80
  -1  -9   1   97.69    9.60
   1   9  -1  106.29   10.50
  -1   9   1   73.89    9.10
   1   9  -1  110.29    8.00
   1   9  -1   96.19    8.70
  -1   9   1   95.89    6.90
  -1   9   1   97.89    9.10
   1  -9   1  189.68   15.20
  -1  -9  -1  172.98   10.90
   1  -9   1  180.78   13.80
  -1  -9  -1  186.98   13.80
  -1   9  -1  170.28   13.80
   1   9   1  170.68   13.80
  -1   9  -1  172.78   11.80
  -1   9  -1  159.98   11.20
  -3  -9  -1   75.19    8.70
  -3  -9  -1   82.09    6.80
   3  -9   1   68.79   10.00
   3  -9   1   65.59    9.90
  -3   9  -1   80.99    9.60
  -3   9  -1   83.99    8.70
   3   9   1   99.79   10.50
  -3   9  -1   67.79    7.40
   5  -9   1  111.89   12.60
  -5  -9  -1  139.29   10.80
  -5  -9  -1  117.49    8.00
   5  -9   1  124.39   13.20
  -5   9  -1  121.89   11.70
   5   9   1  119.09   12.70
   5   9   1  101.99   10.60
  -5   9  -1  110.79   10.30
  -5   9  -1  129.79   10.00
   7  -9   1  127.89   15.20
  -7  -9  -1  153.08    9.80
   7  -9   1  102.39   13.80
  -7  -9  -1  143.79    8.90
  -7   9  -1  158.08   13.60
  -7   9  -1  126.69   12.10
   7   9   1  147.19   13.50
  -7   9  -1  136.59   10.90
   7   9   1  158.98   14.40
   9  -9   1   57.19   12.50
   9  -9   1   61.19   11.80
  -9  -9  -1   63.59    6.60
  -9  -9  -1   75.89    8.90
  -9   9  -1   52.59    8.90
   9   9   1   72.49   11.50
   9   9   1   57.79    9.80
  -9   9  -1   70.29   10.30
  -9   9  -1   59.09    8.20
  11  -9   1   39.70   11.40
 -11  -9  -1   43.30    6.20
  11  -9   1   47.90   11.40
  11   9   1   65.29   11.90
  11   9   1   74.79   12.10
 -11   9  -1   64.39   10.00
 -11   9  -1   57.59    8.80
 -10 -10   1  118.39   10.10
  10 -10  -1   98.69   14.60
  10 -10  -1  129.19   17.50
  10  10  -1  141.39   13.90
  10  10  -1  128.19   14.20
 -10  10   1  114.39   13.20
 -10  10   1  112.69   11.50
  -8 -10   1  348.37   18.70
  -8 -10   1  361.36   21.20
   8 -10  -1  317.97   22.60
   8 -10  -1  350.16   25.60
  -8  10   1  365.86   20.80
   8  10  -1  381.26   22.70
  -8  10   1  389.76   23.50
  -8  10   1  357.66   20.90
   6 -10  -1  401.66   25.80
   6 -10  -1  382.26   23.00
  -6 -10   1  391.46   22.60
  -6 -10   1  389.86   19.90
  -6  10   1  412.06   24.00
   6  10  -1  397.76   23.40
  -6  10   1  373.16   20.40
  -6  10   1  357.86   21.30
   4 -10  -1  131.79   14.80
  -4 -10   1  152.08   13.30
  -4 -10   1  138.49   11.10
   4 -10  -1  140.89   12.10
   4  10  -1  142.59   13.30
  -4  10   1  143.59   11.80
  -4  10   1  121.79    9.90
  -4  10   1  148.89   13.50
  -2 -10   1  189.78   13.70
   2 -10  -1  174.68   16.10
  -2 -10   1  210.78   16.40
   2 -10  -1  173.78   13.00
   2  10  -1  202.78   15.70
  -2  10   1  184.88   11.20
  -2  10   1  208.48   15.90
   2  10  -1  176.58   13.10
  -2  10   1  215.58   14.40
   0 -10  -1  447.16   26.20
   0 -10  -1  490.95   22.70
   0 -10   1  457.45   27.50
   0 -10   1  474.45   25.10
   0  10  -1  467.55   22.30
   0  10   1  491.15   27.00
   0  10   1  468.95   24.70
   0  10  -1  454.45   26.50
   0  10  -1  463.75   23.90
  -2 -10  -1  375.16   17.80
   2 -10   1  365.56   21.90
  -2 -10  -1  359.46   21.80
   2 -10   1  336.17   23.60
   2  10   1  370.96   22.60
  -2  10  -1  364.56   22.60
  -2  10  -1  324.17   18.70
  -2  10  -1  389.46   20.30
   4 -10   1  189.28   16.50
  -4 -10  -1  194.08   11.30
  -4 -10  -1  211.18   15.40
   4 -10   1  201.88   18.40
  -4  10  -1  189.88   16.00
  -4  10  -1  196.88   13.80
   4  10   1  201.68   16.50
  -6 -10  -1  150.18   13.30
  -6 -10  -1  172.28   10.30
   6 -10   1  181.38   17.00
  -6 -10  -1  166.28   10.10
   6 -10   1  174.38   18.00
  -6  10  -1  143.39   12.40
   6  10   1  196.98   16.60
  -6  10  -1  158.58   14.20
  -6  10  -1  177.68   15.00
  -8 -10  -1  149.09    9.70
   8 -10   1  140.49   18.30
   8 -10   1  136.19   17.00
  -8  10  -1  145.89   13.90
   8  10   1  155.28   14.90
  -8  10  -1  130.99   12.00
   8  10   1  143.89   15.50
  -8  10  -1  118.09   16.60
  10 -10   1  108.29   17.10
  10 -10   1  157.68   20.20
 -10 -10  -1  132.69    9.80
  10  10   1  160.78   16.60
 -10  10  -1  123.99   12.60
  10  10   1  138.89   16.30
 -10  10  -1  137.49   14.70
  -9 -11   1  856.21   37.10
   9 -11  -1  834.62   47.60
  -9 -11   1  852.61   41.30
   9 -11  -1  835.52   43.30
  -9  11   1  850.21   40.60
  -9  11   1  833.62   43.10
   9  11  -1  984.50   43.80
   7 -11  -1  893.71   49.60
   7 -11  -1  978.10   46.30
  -7 -11   1  983.80   41.70
  -7 -11   1 1031.60   46.30
  -7  11   1  932.81   44.50
  -7  11   1 1059.29   48.30
   7  11  -1 1065.59   47.70
   5 -11  -1  667.83   39.00
  -5 -11   1  727.93   36.50
   5 -11  -1  740.63   35.00
  -5 -11   1  696.53   32.00
  -5  11   1  693.43   34.20
  -5  11   1  667.83   31.60
   5  11  -1  708.63   36.50
  -5  11   1  761.62   37.70
  -3 -11   1  966.10   47.20
  -3 -11   1  989.80   43.30
   3 -11  -1  899.71   48.20
   3 -11  -1 1050.59   43.70
  -3  11   1  985.20   44.70
  -3  11   1 1014.90   47.80
  -3  11   1  970.30   40.70
   3  11  -1 1061.79   44.70
   3  11  -1 1076.89   47.90
  -1 -11   1 1163.18   49.40
  -1 -11   1 1105.19   53.19
   1 -11  -1 1072.09   52.69
   1 -11  -1 1140.19   46.90
  -1  11   1 1173.08   50.19
   1  11  -1 1143.79   52.59
   1  11  -1 1114.29   49.00
  -1  11   1 1212.18   53.19
   1 -11   1  735.53   35.30
  -1 -11  -1  741.03   31.10
   1 -11   1  711.03   38.90
  -1 -11  -1  676.93   36.80
   1  11   1  750.72   35.10
  -1  11  -1  737.43   37.70
  -1  11  -1  643.64   33.30
   1  11   1  752.52   37.40
   3 -11   1  848.32   45.20
   3 -11   1  855.51   41.70
  -3 -11  -1  889.01   34.80
  -3 -11  -1  810.12   40.90
   3  11   1  874.01   42.40
  -3  11  -1  848.92   39.10
  -3  11  -1  886.91   43.00
  -5 -11  -1  860.11   33.30
   5 -11   1  807.22   44.70
   5 -11   1  826.52   42.00
  -5 -11  -1  775.02   39.30
  -5  11  -1  813.32   38.20
   5  11   1  900.81   42.40
  -5  11  -1  839.32   42.30
  -7 -11  -1  502.95   28.00
   7 -11   1  529.05   32.00
  -7 -11  -1  494.15   21.60
   7 -11   1  485.85   33.90
   7  11   1  561.64   31.30
  -7  11  -1  497.45   30.40
  -7  11  -1  513.25   27.00
  -4 -12   1  175.78   14.90
   4 -12  -1  208.78   23.00
  -4 -12   1  202.08   19.50
   4 -12  -1  214.98   15.90
   4  12  -1  211.88   18.40
  -4  12   1  193.18   18.60
   4  12  -1  219.58   16.10
  -4  12   1  206.78   16.90
   2 -12  -1  223.58   15.00
  -2 -12   1  170.68   19.80
   2 -12  -1  201.28   21.40
  -2 -12   1  217.18   15.90
  -2  12   1  215.88   18.10
   2  12  -1  218.88   18.00
   2  12  -1  198.28   16.00
  -2  12   1  217.98   17.20
   0 -12  -1  190.98   13.20
   0 -12  -1  204.88   20.30
   0 -12   1  199.78   16.30
   0 -12   1  198.28   20.30
   0  12  -1  219.38   18.90
   0  12   1  210.38   16.70
   0  12  -1  196.88   15.60
   0  12   1  205.48   17.50
   2 -12   1   93.19   15.50
  -2 -12  -1  103.29   13.80
   2 -12   1  127.99   14.10
  -2 -12  -1  119.39    9.40
  -2  12  -1  128.69   12.80
   2  12   1  103.69   13.00
  -2  12  -1  112.89   14.70
   2  12   1  133.89   14.20
 -20   0   2  682.13   33.00
  20   0  -2  742.03   41.20
 -18   0   2  570.54   27.20
  18   0  -2  577.64   26.80
  18   0  -2  561.94   33.10
 -18   0   2  595.54   32.90
  16   0  -2  599.34   25.90
 -16   0   2  540.95   26.30
  16   0  -2  596.24   31.90
 -16   0   2  609.14   31.30
 -14   0   2 1759.42   69.39
 -14   0   2 1578.74   64.49
  14   0  -2 1687.83   63.69
  14   0  -2 1659.13   69.39
  14   0  -2 1723.23   68.09
 -14   0   2 1747.63   69.09
  12   0  -2 1094.29   41.70
  12   0  -2 1092.19   43.40
 -12   0   2 1074.59   42.80
 -12   0   2 1144.19   46.10
  12   0  -2 1001.10   45.80
 -12   0   2 1129.69   46.00
 -10   0   2 1997.50   74.69
 -10   0   2 2018.20   77.19
  10   0  -2 1962.90   77.49
  10   0  -2 2018.50   75.09
  10   0  -2 2102.19   73.69
 -10   0   2 2047.70   77.19
   8   0  -2 4601.44  158.88
  -8   0   2 4580.54  160.58
   8   0  -2 4654.83  160.98
  -8   0   2 3935.71  159.98
  -6   0   2 2499.85   89.89
   6   0  -2 2427.06   89.89
  -6   0   2 2515.05   88.69
   6   0  -2 2383.46   88.69
   6   0  -2 2528.25   87.49
  -4   0  -2 8138.59  295.47
  -4   0  -2 8460.65  295.27
   6   0   2 3204.78  114.09
  -6   0  -2 3299.07  116.89
   6   0   2 2972.80  116.29
  -6   0  -2 2968.10  113.39
  -6   0  -2 3276.77  116.49
   6   0   2 3164.58  115.79
  -8   0  -2 2136.39   79.49
   8   0   2 2004.90   78.49
   8   0   2 2049.09   76.59
  -8   0  -2 2014.20   75.99
   8   0   2 1949.20   79.49
  -8   0  -2 2146.99   79.99
  10   0   2 1405.56   60.39
  10   0   2 1461.65   57.59
 -10   0  -2 1419.66   56.09
  10   0   2 1440.06   58.99
  10   0   2 1443.66   56.79
 -10   0  -2 1443.06   59.69
 -10   0  -2 1562.84   61.09
  12   0   2  879.01   39.50
  12   0   2  885.51   41.90
  12   0   2  889.51   38.20
 -12   0  -2  801.92   35.90
 -12   0  -2  893.11   41.00
  14   0   2  540.65   31.50
 -14   0  -2  537.65   25.50
 -16   0  -2  381.66   21.30
  16   0   2  415.56   28.70
 -19  -1   2   -1.30   12.50
 -19  -1   2    5.60    3.60
  19  -1  -2    0.60    6.20
  19  -1  -2   -6.20    7.50
 -19   1   2   18.40   10.30
 -19   1   2    8.80    4.20
  19   1  -2   12.70    8.00
  19   1  -2    3.90    6.00
  19   1  -2    5.90    6.40
  17  -1  -2   37.80    8.50
  17  -1  -2   48.80    6.80
 -17  -1   2   53.59    6.40
 -17  -1   2   44.90    9.90
  17   1  -2   58.59   10.70
  17   1  -2   59.59    7.50
 -17   1   2   44.30    6.40
 -17   1   2   46.00    9.90
  17   1  -2   45.10    7.80
 -15  -1   2  455.65   21.40
  15  -1  -2  454.45   20.80
  15  -1  -2  430.76   25.50
 -15  -1   2  479.95   26.20
 -15   1   2  441.56   21.70
  15   1  -2  461.55   20.80
 -15   1   2  462.65   25.40
  15   1  -2  452.25   25.80
 -13  -1   2  378.96   21.50
  13  -1  -2  388.76   19.20
  13  -1  -2  384.06   17.60
 -13  -1   2  404.26   21.80
  13  -1  -2  347.87   21.20
 -13  -1   2  394.96   18.30
 -13   1   2  417.76   21.30
  13   1  -2  411.36   19.40
 -13   1   2  378.16   18.40
  13   1  -2  396.86   17.60
  13   1  -2  401.06   22.10
 -13   1   2  386.56   21.40
  11  -1  -2  304.97   14.90
  11  -1  -2  296.27   13.50
 -11  -1   2  309.67   16.60
 -11  -1   2  262.57   13.70
  11  -1  -2  298.97   16.80
 -11  -1   2  274.47   16.50
  11   1  -2  289.47   16.90
 -11   1   2  304.17   14.50
  11   1  -2  318.27   14.90
 -11   1   2  318.07   16.80
 -11   1   2  303.07   16.40
  -9  -1   2 1155.28   43.70
   9  -1  -2 1169.68   44.20
  -9  -1   2 1185.78   45.80
  -9  -1   2 1147.19   46.10
   9  -1  -2 1152.98   42.90
   9  -1  -2 1130.79   45.90
  -9   1   2 1142.39   43.90
   9   1  -2 1187.48   44.10
   9   1  -2 1095.59   46.10
  -9   1   2 1146.49   45.80
  -9   1   2 1178.18   45.70
  -7  -1   2 1777.72   62.49
   7  -1  -2 1738.33   61.79
   7  -1  -2 1711.23   62.89
  -7  -1   2 1830.52   64.69
   7  -1  -2 1675.43   63.99
  -7   1   2 1686.93   61.79
  -7   1   2 1737.93   63.79
  -7   1   2 1655.83   62.69
   7   1  -2 1706.23   64.49
   7   1  -2 1663.73   62.19
   7   1  -2 1719.63   62.69
  -7   1   2 1662.93   63.89
   5  -1  -2  777.12   29.30
  -5  -1   2  806.32   29.40
   5  -1  -2  820.02   29.90
  -5  -1   2  808.32   31.00
   5   1  -2  804.72   29.60
  -5   1   2  807.82   29.10
  -5   1   2  813.92   30.20
  -5   1   2  796.12   30.50
   5   1  -2  743.53   29.20
   3  -1  -2 2863.61   98.89
   3  -1  -2 2441.76   97.39
  -3  -1   2 2892.41   98.69
  -3   1   2 2893.11   97.49
  -3   1   2 2692.83   98.59
   1  -1  -2 1850.61   65.59
  -1  -1   2 1906.31   66.89
  -1  -1   2 1819.42   64.79
  -1  -1   2 1694.43   65.89
   1  -1  -2 1950.50   65.39
  -1  -1   2 1789.02   65.99
   1   1  -2 1928.01   66.19
   1   1  -2 1874.21   65.89
  -1   1   2 1833.92   65.59
   1   1  -2 1814.22   64.79
  -1   1   2 1775.42   67.09
  -1   1   2 1879.51   65.39
   1  -1   2  113.69    5.90
   1  -1   2  100.89    6.20
   1  -1   2  114.69    5.70
  -1  -1  -2  111.79    5.50
   1  -1   2   85.69    4.60
  -1  -1  -2  107.49    5.70
  -1   1  -2  116.19    5.80
   1   1   2   97.39    5.60
  -1   1  -2  101.19    4.70
   1   1   2  107.99    5.20
  -1   1  -2  114.39    6.40
   1   1   2   94.39    5.10
  -3  -1  -2  719.93   29.10
   3  -1   2  773.52   29.00
   3  -1   2  727.33   31.10
   3  -1   2  767.32   30.00
  -3  -1  -2  778.12   30.80
  -3  -1  -2  821.72   30.60
   3  -1   2  747.23   30.70
   3   1   2  782.42   30.90
   3   1   2  761.22   29.80
  -3   1  -2  824.72   31.70
  -3   1  -2  778.82   30.50
  -3   1  -2  756.52   28.90
   3   1   2  766.02   29.30
  -5  -1  -2 1458.55   55.29
   5  -1   2 1479.85   54.09
   5  -1   2 1390.76   55.49
   5  -1   2 1413.46   55.39
  -5  -1  -2 1351.36   52.89
   5  -1   2 1477.85   53.09
  -5  -1  -2 1469.45   55.09
   5   1   2 1298.97   53.69
  -5   1  -2 1380.06   52.69
   5   1   2 1415.46   53.19
   5   1   2 1444.56   55.59
  -5   1  -2 1494.45   56.19
  -5   1  -2 1457.25   54.99
  -7  -1  -2  475.35   22.40
   7  -1   2  482.35   20.30
   7  -1   2  454.05   22.40
   7  -1   2  469.05   21.00
  -7  -1  -2  445.26   19.80
   7  -1   2  426.66   22.40
  -7  -1  -2  487.55   22.70
  -7   1  -2  488.35   22.40
  -7   1  -2  466.85   19.90
   7   1   2  443.86   20.20
   7   1   2  450.65   21.10
  -7   1  -2  480.35   23.10
   7   1   2  452.75   22.80
   9  -1   2  788.82   32.70
   9  -1   2  771.02   35.40
  -9  -1  -2  760.02   32.10
  -9  -1  -2  861.21   36.10
   9  -1   2  773.82   33.30
  -9  -1  -2  809.82   35.90
   9  -1   2  776.12   36.00
  -9   1  -2  775.12   32.10
  -9   1  -2  813.32   35.50
   9   1   2  753.42   35.80
   9   1   2  763.22   33.80
  -9   1  -2  825.72   36.30
   9   1   2  769.32   32.90
 -11  -1  -2  439.36   20.90
  11  -1   2  431.16   25.00
 -11  -1  -2  459.55   25.20
 -11  -1  -2  479.15   25.60
  11  -1   2  435.06   22.10
  11  -1   2  448.56   24.20
 -11   1  -2  428.56   20.70
  11   1   2  429.06   24.80
 -11   1  -2  477.75   24.90
 -13  -1  -2  169.88   11.40
  13  -1   2  162.18   14.10
  13  -1   2  156.88   15.30
  13   1   2  177.78   15.60
 -13   1  -2  168.68   11.30
  15  -1   2  168.38   17.40
 -15  -1  -2  178.58   12.50
 -15   1  -2  160.28   12.20
  15   1   2  186.88   18.30
  17  -1   2   94.89   15.70
 -17  -1  -2   81.09    9.60
  17   1   2  113.29   16.70
 -17   1  -2   87.19    9.90
  17   1   2  102.09   14.90
  20  -2  -2   59.19   13.10
 -20  -2   2   40.40    7.10
  20   2  -2   57.59   10.90
  20   2  -2   43.60   12.10
 -20   2   2   43.80    7.70
 -18  -2   2   22.20    4.70
  18  -2  -2   44.30    9.90
  18  -2  -2   30.70    6.80
 -18  -2   2   39.90   11.10
  18   2  -2   29.00    8.60
  18   2  -2   28.00    6.50
 -18   2   2   19.20    8.80
 -18   2   2   28.50    6.00
  18   2  -2   22.00    7.00
 -16  -2   2  136.69   14.70
 -16  -2   2  109.19    8.80
  16  -2  -2  138.29    9.90
  16  -2  -2  121.49   13.60
  16   2  -2  125.09    9.60
 -16   2   2  112.69    9.30
  16   2  -2  123.99   13.30
  16   2  -2  124.69   11.30
 -16   2   2  132.39   13.10
  14  -2  -2  383.36   22.80
  14  -2  -2  397.86   18.70
 -14  -2   2  449.86   23.40
 -14  -2   2  395.66   19.10
 -14  -2   2  391.16   23.40
 -14   2   2  417.46   22.30
  14   2  -2  368.06   20.40
 -14   2   2  427.06   20.00
  14   2  -2  401.76   23.40
 -12  -2   2  327.77   16.30
  12  -2  -2  343.17   19.50
 -12  -2   2  324.77   19.50
 -12  -2   2  399.26   19.90
  12  -2  -2  363.86   16.20
  12  -2  -2  368.66   17.60
 -12   2   2  341.27   18.60
 -12   2   2  342.77   16.90
  12   2  -2  370.46   17.50
  12   2  -2  350.56   17.70
 -12   2   2  349.77   19.30
  12   2  -2  334.97   19.80
  10  -2  -2  741.23   29.90
 -10  -2   2  759.82   31.60
 -10  -2   2  723.53   29.10
  10  -2  -2  707.73   31.80
  10  -2  -2  720.03   28.70
 -10  -2   2  768.72   32.60
 -10   2   2  757.32   31.70
  10   2  -2  686.33   32.00
 -10   2   2  715.33   29.60
 -10   2   2  728.13   31.00
  10   2  -2  727.83   29.70
  10   2  -2  696.83   29.90
   8  -2  -2  980.50   38.40
  -8  -2   2  952.10   36.20
   8  -2  -2  864.61   38.10
  -8  -2   2 1009.50   39.40
   8  -2  -2  948.51   36.10
  -8   2   2  952.10   37.70
   8   2  -2  968.00   39.10
  -8   2   2  953.00   38.30
  -8   2   2  950.10   36.10
   8   2  -2  961.10   36.60
  -8   2   2  964.20   36.90
   8   2  -2  953.00   37.20
   6  -2  -2  673.73   25.40
  -6  -2   2  627.14   24.50
  -6  -2   2  657.53   27.10
   6  -2  -2  647.44   26.20
  -6  -2   2  644.84   25.40
   6  -2  -2  616.04   25.80
   6  -2  -2  648.94   25.00
  -6   2   2  666.83   24.80
   6   2  -2  648.84   24.80
  -6   2   2  642.14   26.00
  -6   2   2  675.83   25.70
  -6   2   2  676.13   25.40
   6   2  -2  609.04   26.70
   6   2  -2  603.04   25.50
  -4  -2   2 1485.35   52.89
  -4  -2   2 1524.05   55.29
   4  -2  -2 1501.55   53.79
  -4  -2   2 1588.34   54.19
   4  -2  -2 1513.35   54.79
  -4   2   2 1463.65   53.39
   4   2  -2 1496.65   52.99
   4   2  -2 1436.16   53.39
   4   2  -2 1351.96   54.79
  -4   2   2 1451.15   53.69
  -4   2   2 1464.05   53.69
  -4   2   2 1380.76   53.69
  -2  -2   2  121.29    6.70
   2  -2  -2  122.79    5.70
  -2  -2   2  125.79    6.00
   2  -2  -2  123.39    7.70
  -2  -2   2  125.59    6.40
   2  -2  -2  126.79    5.80
   2   2  -2  135.59    6.70
  -2   2   2  126.19    5.30
   2   2  -2  127.09    6.00
  -2   2   2  125.39    7.50
   0  -2   2   60.59    3.10
   0  -2   2   61.59    4.00
   0  -2  -2   67.79    4.30
   0  -2   2   66.99    4.30
   0  -2   2   62.79    4.80
   0  -2  -2   59.79    5.10
   0   2  -2   62.69    3.10
   0   2  -2   66.19    4.10
   0   2   2   73.79    5.50
   0   2   2   68.39    4.20
   0   2  -2   64.89    4.10
   0   2  -2   65.89    4.70
   2  -2   2  611.44   23.70
  -2  -2  -2  706.63   24.50
   2  -2   2  624.44   25.50
   2  -2   2  631.44   24.90
  -2  -2  -2  635.94   25.60
   2   2   2  617.34   25.50
   2   2   2  622.14   23.60
  -2   2  -2  622.14   23.70
  -2   2  -2  617.04   25.10
   2   2   2  622.24   24.60
  -2   2  -2  625.74   26.20
  -2   2  -2  615.74   25.00
   2   2   2  601.64   26.60
  -4  -2  -2  242.18   11.40
  -4  -2  -2  261.27   12.30
   4  -2   2  259.27   12.30
   4  -2   2  203.48   12.50
  -4  -2  -2  266.07   13.40
   4  -2   2  253.87   11.30
   4  -2   2  256.67   14.00
   4   2   2  252.27   14.00
   4   2   2  230.28   11.70
  -4   2  -2  252.47   12.70
  -4   2  -2  269.77   11.40
   4   2   2  259.17   13.40
   4   2   2  244.68   11.30
  -4   2  -2  273.27   13.90
  -6  -2  -2  407.96   18.50
   6  -2   2  346.17   18.80
   6  -2   2  378.46   16.70
  -6  -2  -2  337.57   16.30
   6  -2   2  370.86   19.50
   6  -2   2  388.96   17.60
  -6  -2  -2  373.86   19.10
  -6   2  -2  377.16   16.50
  -6   2  -2  386.36   18.50
   6   2   2  374.16   19.20
   6   2   2  377.76   17.20
  -6   2  -2  407.36   19.80
  -8  -2  -2  128.59    8.40
  -8  -2  -2  154.28   11.70
   8  -2   2  148.69    9.60
  -8  -2  -2  163.08   11.20
   8  -2   2  136.79   11.00
   8  -2   2  138.59   11.20
   8  -2   2  140.99    9.00
   8   2   2  128.79   10.90
  -8   2  -2  170.48   11.30
  -8   2  -2  135.39    8.50
   8   2   2  146.49    9.50
  -8   2  -2  143.39   11.40
 -10  -2  -2   66.29    8.90
 -10  -2  -2   80.09   10.40
  10  -2   2   67.09    7.40
 -10  -2  -2   68.59    6.20
  10  -2   2   74.49    8.80
  10  -2   2   77.49    9.20
  10  -2   2   86.09    7.50
  10   2   2   79.59    9.10
 -10   2  -2   71.89    9.00
  10   2   2   72.19    7.50
 -10   2  -2   74.99    9.90
 -10   2  -2   65.59    6.10
 -12  -2  -2  243.48   20.50
 -12  -2  -2  198.88   12.30
  12  -2   2  223.88   16.30
  12  -2   2  223.48   17.20
  12   2   2  189.48   15.60
  12   2   2  185.88   16.00
 -12   2  -2  182.18   15.60
 -12   2  -2  220.88   12.80
  14  -2   2  126.89   14.00
  14  -2   2  161.98   16.20
 -14  -2  -2  141.79   10.80
 -14   2  -2  139.39   10.70
  14   2   2  151.98   16.00
  14   2   2  131.79   14.90
  16  -2   2   61.89   12.70
 -16  -2  -2   52.59    7.50
  16   2   2   48.90   11.70
 -16   2  -2   69.89    8.80
  16   2   2   42.20   10.80
  19  -3  -2  320.87   25.70
 -19  -3   2  290.47   17.80
  19   3  -2  296.67   24.80
 -19   3   2  379.46   36.40
  19   3  -2  303.17   21.50
  19   3  -2  338.67   20.30
 -19   3   2  299.37   18.50
  17  -3  -2  481.65   29.50
 -17  -3   2  467.55   23.50
 -17  -3   2  515.35   31.40
  17  -3  -2  519.75   24.60
 -17   3   2  509.05   28.20
  17   3  -2  499.45   30.00
  17   3  -2  508.25   26.90
 -17   3   2  468.25   24.30
 -15  -3   2  946.81   40.80
  15  -3  -2  968.80   46.00
 -15  -3   2 1031.60   47.40
  15  -3  -2 1040.00   41.30
 -15   3   2  973.10   41.60
 -15   3   2 1022.60   44.70
  15   3  -2  943.51   46.20
  15   3  -2 1062.99   43.90
  13  -3  -2 1599.84   62.39
 -13  -3   2 1605.54   61.19
 -13  -3   2 1488.65   62.29
  13  -3  -2 1503.55   57.19
 -13  -3   2 1449.76   56.99
  13  -3  -2 1461.45   58.49
 -13   3   2 1527.05   61.39
  13   3  -2 1511.55   58.59
  13   3  -2 1423.46   59.09
 -13   3   2 1526.65   60.19
 -13   3   2 1306.17   57.29
  13   3  -2 1402.26   61.79
  11  -3  -2 1526.05   64.79
 -11  -3   2 1546.75   61.19
  11  -3  -2 1659.73   62.49
  11  -3  -2 1692.23   61.59
 -11  -3   2 1675.53   66.09
 -11  -3   2 1776.62   64.59
  11  -3  -2 1591.14   64.89
  11   3  -2 1534.35   63.19
  11   3  -2 1575.44   65.39
 -11   3   2 1631.84   64.49
 -11   3   2 1604.34   61.49
 -11   3   2 1552.54   61.89
 -11   3   2 1719.53   63.99
  11   3  -2 1720.43   62.59
   9  -3  -2 1419.16   52.79
   9  -3  -2 1285.47   54.99
  -9  -3   2 1362.66   52.09
   9  -3  -2 1353.36   54.79
  -9  -3   2 1468.95   56.49
   9  -3  -2 1429.46   53.19
   9   3  -2 1443.06   52.99
  -9   3   2 1422.76   53.99
  -9   3   2 1485.75   54.89
   9   3  -2 1355.16   55.69
  -9   3   2 1404.56   52.49
  -9   3   2 1395.86   53.09
   9   3  -2 1269.57   53.89
   7  -3  -2 2915.41  110.89
  -7  -3   2 3044.30  108.89
   7  -3  -2 3099.89  109.89
  -7  -3   2 3150.78  112.89
   7  -3  -2 2955.10  111.39
   7  -3  -2 3009.30  109.79
  -7  -3   2 3207.98  111.19
  -7   3   2 3030.70  110.19
   7   3  -2 3145.39  109.49
   7   3  -2 2755.62  110.69
  -7   3   2 2986.00  110.79
  -7   3   2 2964.40  109.89
  -7   3   2 3194.08  109.59
   7   3  -2 3006.70  112.29
   5  -3  -2 5555.44  198.98
   5  -3  -2 5741.73  198.98
  -5  -3   2 5544.65  199.78
  -5  -3   2 5608.14  200.68
   5  -3  -2 5637.34  199.38
  -5   3   2 5634.94  198.58
   5   3  -2 5053.79  198.58
  -5   3   2 5861.61  198.38
   5   3  -2 5544.25  200.38
  -3  -3   2 4408.26  158.58
  -3  -3   2 4540.25  158.28
   3  -3  -2 4363.46  157.18
   3  -3  -2 4426.26  160.48
  -3  -3   2 4492.95  159.38
  -3   3   2 4545.35  157.18
  -3   3   2 4472.55  157.28
   3   3  -2 4730.63  158.48
   3   3  -2 4132.49  158.58
  -3   3   2 4171.48  159.08
  -1  -3   2 1869.51   67.79
  -1  -3   2 1866.41   66.49
   1  -3  -2 1777.52   69.39
   1  -3  -2 1847.72   66.89
  -1  -3   2 1822.42   66.89
   1   3  -2 1968.50   67.29
   1   3  -2 1774.52   66.49
  -1   3   2 1689.63   68.79
   1   3  -2 1856.91   66.39
   1   3  -2 1782.72   65.09
  -1   3   2 1715.93   66.29
   1  -3   2 3284.47  122.19
  -1  -3  -2 3415.16  121.39
  -1  -3  -2 3108.59  117.89
  -1  -3  -2 3470.15  123.49
   1  -3   2 3315.17  121.09
   1  -3   2 3309.77  118.79
   1  -3   2 3356.56  120.19
  -1   3  -2 3414.76  118.89
  -1   3  -2 3173.28  120.29
  -1   3  -2 3524.15  121.59
  -1   3  -2 3389.76  120.49
   3  -3   2 3518.15  130.69
  -3  -3  -2 3518.65  130.99
   3  -3   2 3557.84  128.09
   3  -3   2 3692.13  129.59
  -3  -3  -2 3791.62  128.39
   3  -3   2 3623.04  132.29
   3   3   2 3659.63  129.49
  -3   3  -2 3480.45  128.09
  -3   3  -2 3638.94  129.99
  -3   3  -2 3742.23  131.59
   3   3   2 3391.96  132.09
  -3   3  -2 3540.75  129.79
   3   3   2 3460.05  130.59
   5  -3   2 1524.45   63.59
  -5  -3  -2 1697.23   60.59
  -5  -3  -2 1632.74   62.79
   5  -3   2 1596.94   62.59
   5  -3   2 1605.44   59.39
   5  -3   2 1554.74   60.59
   5   3   2 1652.83   60.59
  -5   3  -2 1602.74   61.09
   5   3   2 1503.95   63.49
   5   3   2 1583.64   62.49
  -5   3  -2 1553.34   59.39
  -5   3  -2 1627.44   61.59
  -5   3  -2 1686.53   63.09
   7  -3   2 1696.93   63.69
  -7  -3  -2 1793.62   64.49
   7  -3   2 1678.33   62.49
   7  -3   2 1521.15   66.39
  -7  -3  -2 1726.33   66.49
   7  -3   2 1578.94   65.79
   7   3   2 1584.64   66.59
   7   3   2 1698.73   63.59
  -7   3  -2 1627.44   62.29
  -7   3  -2 1690.43   64.89
   7   3   2 1626.34   66.09
  -7   3  -2 1672.83   66.19
   9  -3   2 1657.63   66.59
   9  -3   2 1656.43   70.49
   9  -3   2 1709.73   65.79
  -9  -3  -2 1898.61   68.99
  -9  -3  -2 1732.13   70.29
  -9  -3  -2 1658.83   65.49
   9  -3   2 1744.23   70.39
   9   3   2 1633.34   70.19
   9   3   2 1743.93   70.29
   9   3   2 1726.93   66.89
  -9   3  -2 1722.23   68.49
  -9   3  -2 1832.62   70.49
  -9   3  -2 1703.33   65.49
 -11  -3  -2  488.65   27.70
  11  -3   2  496.65   27.60
 -11  -3  -2  492.65   26.40
 -11  -3  -2  473.05   22.70
  11  -3   2  462.85   27.20
  11   3   2  500.15   27.40
 -11   3  -2  483.45   22.70
  11   3   2  499.35   27.40
 -11   3  -2  490.55   26.00
  13  -3   2  339.87   23.40
  13  -3   2  354.26   23.00
 -13  -3  -2  328.47   17.90
  13   3   2  350.06   23.00
  13   3   2  300.27   22.10
 -13   3  -2  320.67   17.70
  15  -3   2  443.66   28.20
 -15  -3  -2  400.36   21.80
  15  -3   2  442.26   29.30
  15   3   2  420.06   28.40
 -15   3  -2  414.56   22.10
  15   3   2  439.36   28.50
 -18  -4   2  183.88   12.80
  18  -4  -2  182.48   19.10
  18   4  -2  188.48   16.40
 -18   4   2  172.58   13.40
 -18   4   2  151.58   18.70
  18   4  -2  168.78   18.60
  16  -4  -2  305.77   22.00
  16  -4  -2  303.57   18.00
 -16  -4   2  316.67   24.30
 -16  -4   2  314.07   16.80
 -16   4   2  307.87   17.70
 -16   4   2  335.47   21.00
  16   4  -2  328.77   22.60
  16   4  -2  270.57   19.10
  14  -4  -2  486.65   23.00
  14  -4  -2  453.35   26.80
 -14  -4   2  524.85   28.70
 -14  -4   2  449.26   21.90
 -14  -4   2  486.85   26.00
  14   4  -2  472.45   25.00
  14   4  -2  485.55   27.40
 -14   4   2  500.65   25.40
 -14   4   2  474.15   23.00
  12  -4  -2  384.56   18.90
  12  -4  -2  379.46   18.60
  12  -4  -2  381.96   21.40
 -12  -4   2  368.66   22.50
 -12  -4   2  375.76   17.70
  12  -4  -2  365.96   21.60
 -12  -4   2  407.06   20.60
  12   4  -2  343.57   19.80
 -12   4   2  377.46   18.30
  12   4  -2  395.06   19.40
  12   4  -2  369.36   21.80
 -12   4   2  391.26   20.00
 -12   4   2  387.16   21.10
 -12   4   2  357.96   18.30
 -10  -4   2  805.22   32.60
 -10  -4   2  892.71   38.20
  10  -4  -2  826.02   33.70
  10  -4  -2  819.52   33.70
  10  -4  -2  738.33   36.00
  10  -4  -2  835.62   36.10
  10   4  -2  833.92   33.80
  10   4  -2  774.12   35.10
 -10   4   2  873.21   35.90
 -10   4   2  819.32   33.30
 -10   4   2  797.62   33.60
  10   4  -2  784.22   36.60
 -10   4   2  841.52   34.60
  -8  -4   2 1997.40   77.29
   8  -4  -2 1980.60   73.59
   8  -4  -2 2022.70   74.09
   8  -4  -2 1979.20   75.39
  -8  -4   2 2026.10   75.69
   8  -4  -2 1871.01   75.69
  -8   4   2 2026.20   74.19
   8   4  -2 2078.49   73.49
   8   4  -2 1829.42   74.89
  -8   4   2 1949.10   73.49
   8   4  -2 2010.50   76.79
  -8   4   2 1938.41   73.59
  -8   4   2 1966.10   74.89
  -6  -4   2  783.32   33.10
   6  -4  -2  851.21   32.40
   6  -4  -2  733.93   31.90
   6  -4  -2  764.32   31.70
  -6  -4   2  749.92   30.80
  -6  -4   2  767.92   33.60
   6  -4  -2  805.92   30.90
  -6   4   2  718.13   30.80
  -6   4   2  746.63   30.70
  -6   4   2  792.32   31.50
  -6   4   2  770.02   30.90
   6   4  -2  787.92   33.20
   6   4  -2  787.52   30.40
   4  -4  -2 1144.09   44.70
  -4  -4   2 1176.58   46.10
   4  -4  -2 1214.58   47.00
  -4  -4   2 1172.58   44.80
   4  -4  -2 1151.28   44.40
  -4  -4   2 1226.68   46.80
  -4   4   2 1063.79   45.00
   4   4  -2 1170.78   45.10
  -4   4   2 1202.08   44.10
  -4   4   2 1157.38   44.50
  -4   4   2 1215.48   44.00
   4   4  -2 1110.79   45.70
  -2  -4   2 2528.45   93.49
   2  -4  -2 2540.85   92.99
  -2  -4   2 2528.45   93.89
   2  -4  -2 2638.24   96.99
  -2  -4   2 2498.55   93.99
   2  -4  -2 2645.74   91.79
   2  -4  -2 2626.44   93.19
  -2  -4   2 2549.15   93.79
  -2   4   2 2320.57   94.89
   2   4  -2 2457.65   93.39
  -2   4   2 2622.84   91.19
   2   4  -2 2715.13   93.39
   0  -4  -2 1156.58   50.59
   0  -4   2 1306.47   47.60
   0  -4  -2 1319.87   48.60
   0  -4   2 1275.27   48.30
   0  -4   2 1254.37   49.10
   0   4   2 1189.48   50.29
   0   4  -2 1186.48   47.40
   0   4  -2 1303.37   48.00
   0   4  -2 1246.18   45.90
   0   4  -2 1260.97   47.10
   0   4   2 1183.88   47.60
  -2  -4  -2 1271.57   49.50
   2  -4   2 1195.08   48.70
   2  -4   2 1210.78   50.19
  -2  -4  -2 1303.67   45.20
   2  -4   2 1285.47   47.90
   2  -4   2 1253.47   46.20
  -2  -4  -2 1294.37   51.69
  -2  -4  -2 1253.77   44.80
  -2   4  -2 1260.17   47.90
  -2   4  -2 1198.18   47.90
   2   4   2 1159.18   50.69
  -2   4  -2 1319.17   49.00
  -2   4  -2 1213.18   46.20
   2   4   2 1193.68   48.80
   4  -4   2 1086.89   41.30
  -4  -4  -2 1050.89   43.30
   4  -4   2 1003.60   44.10
   4  -4   2 1005.30   42.50
   4  -4   2 1079.59   39.70
  -4  -4  -2 1120.49   39.80
   4   4   2  990.00   42.50
   4   4   2 1008.30   44.30
  -4   4  -2 1019.60   41.40
  -4   4  -2 1023.90   42.70
  -4   4  -2  981.10   39.50
  -4   4  -2 1027.30   41.50
   4   4   2 1092.59   41.30
   6  -4   2  614.44   26.90
  -6  -4  -2  642.04   29.80
   6  -4   2  574.24   29.70
   6  -4   2  588.74   28.70
   6  -4   2  629.24   25.60
  -6  -4  -2  639.84   26.40
  -6   4  -2  638.74   27.70
   6   4   2  617.04   26.90
  -6   4  -2  638.64   27.50
   6   4   2  601.04   28.80
   6   4   2  611.14   30.10
  -6   4  -2  625.84   29.00
  -6   4  -2  596.24   25.50
   8  -4   2  566.84   29.90
   8  -4   2  625.94   26.60
   8  -4   2  643.34   28.00
  -8  -4  -2  641.74   31.20
   8  -4   2  600.54   31.10
  -8  -4  -2  658.03   28.30
   8   4   2  649.34   28.20
   8   4   2  594.34   31.00
  -8   4  -2  627.24   29.00
   8   4   2  606.04   30.20
  -8   4  -2  582.84   26.20
  -8   4  -2  635.34   30.30
  10  -4   2  671.03   30.20
 -10  -4  -2  689.63   35.20
 -10  -4  -2  718.53   32.40
  10  -4   2  651.43   34.00
  10  -4   2  686.03   35.20
  10   4   2  725.03   35.40
  10   4   2  668.53   34.10
 -10   4  -2  682.73   32.50
 -10   4  -2  668.03   29.50
  12  -4   2  271.87   20.30
 -12  -4  -2  277.97   19.50
  12  -4   2  267.07   20.10
  12   4   2  259.57   19.70
  12   4   2  256.87   19.50
 -12   4  -2  232.48   14.60
 -12   4  -2  278.47   19.20
  14  -4   2  114.29   14.60
  14  -4   2  131.19   15.80
 -14   4  -2   99.59    9.90
  14   4   2  110.69   14.80
  14   4   2  120.59   15.10
  16  -4   2   89.29   15.30
  16  -4   2   76.49   15.40
  16   4   2  123.79   17.70
 -16   4  -2  126.29   11.50
  16   4   2  121.49   17.20
  17  -5  -2   18.90   10.20
 -17   5   2   22.70    5.60
  17   5  -2   24.70    7.50
 -17   5   2   20.60    8.50
  17   5  -2   39.60   10.20
 -15  -5   2   72.59   12.60
  15  -5  -2   81.99   11.20
  15   5  -2  101.99   14.00
 -15   5   2   98.19    8.90
 -15   5   2   90.19   11.50
  15   5  -2   76.89   10.40
 -13  -5   2  144.89   12.30
 -13  -5   2  137.89   14.70
  13  -5  -2  127.69   12.50
  13  -5  -2   93.49   11.50
  13  -5  -2  108.89   10.10
  13   5  -2  136.99   12.90
 -13   5   2  117.09   11.00
 -13   5   2  120.99    9.30
  13   5  -2  109.69   10.90
 -13   5   2  115.69    9.10
  11  -5  -2   97.59   10.00
  11  -5  -2   84.59    7.90
  11  -5  -2   91.79    9.90
  11  -5  -2   93.59    8.40
 -11  -5   2   77.79   10.40
 -11   5   2   89.49    7.60
 -11   5   2   93.69    7.70
 -11   5   2   89.69    9.50
  11   5  -2  106.09   10.80
  11   5  -2   85.59    8.90
  11   5  -2  101.69    9.00
 -11   5   2   97.49    8.60
   9  -5  -2  245.38   13.10
   9  -5  -2  256.47   15.10
   9  -5  -2  220.78   14.90
  -9  -5   2  244.08   15.30
  -9  -5   2  204.38   15.70
   9  -5  -2  270.17   14.20
   9   5  -2  231.68   14.20
   9   5  -2  256.77   13.30
  -9   5   2  242.18   13.40
  -9   5   2  212.88   12.60
  -9   5   2  239.98   14.20
  -9   5   2  241.98   12.90
   9   5  -2  240.58   15.50
   7  -5  -2  266.77   13.10
  -7  -5   2  236.68   12.60
  -7  -5   2  264.87   15.50
   7  -5  -2  235.48   14.40
   7  -5  -2  252.77   14.20
   7  -5  -2  269.07   14.50
  -7  -5   2  254.07   15.90
  -7   5   2  250.37   13.20
  -7   5   2  262.97   13.20
  -7   5   2  267.17   13.30
   7   5  -2  223.08   13.80
   7   5  -2  244.28   15.00
   7   5  -2  256.37   12.80
  -7   5   2  268.67   14.00
   5  -5  -2  596.34   25.90
  -5  -5   2  616.74   27.80
   5  -5  -2  510.95   25.20
  -5  -5   2  614.54   27.70
  -5  -5   2  588.54   25.00
   5   5  -2  576.74   26.70
  -5   5   2  615.64   24.70
  -5   5   2  612.64   25.20
   5   5  -2  670.33   24.80
   5   5  -2  533.15   25.70
  -5   5   2  577.84   25.80
  -5   5   2  620.34   24.90
   3  -5  -2  232.98   11.90
   3  -5  -2  241.18   12.60
  -3  -5   2  242.68   13.40
  -3  -5   2  234.78   12.50
  -3  -5   2  228.98   12.60
  -3  -5   2  239.48   13.50
   3  -5  -2  250.37   15.20
   3  -5  -2  228.08   11.50
   3   5  -2  233.38   12.80
  -3   5   2  263.07   11.00
   3   5  -2  241.48   11.90
  -3   5   2  225.28   12.10
  -3   5   2  232.08   13.40
  -1  -5   2   31.10    5.00
  -1  -5   2   27.80    4.50
   1  -5  -2   37.50    4.50
  -1  -5   2   30.60    4.30
   1  -5  -2   38.90    6.60
   1  -5  -2   29.80    2.90
   1  -5  -2   31.40    3.70
  -1   5   2   46.70    5.60
   1   5  -2   31.70    3.80
   1   5  -2   39.20    4.20
   1   5  -2   32.30    3.20
  -1   5   2   33.00    2.40
   1  -5   2  314.47   15.20
  -1  -5  -2  319.37   18.60
  -1  -5  -2  324.57   16.50
   1  -5   2  285.27   15.70
  -1  -5  -2  290.67   12.20
   1  -5   2  292.27   16.60
   1   5   2  300.57   17.70
   1   5   2  299.57   15.50
  -1   5  -2  315.07   15.40
  -1   5  -2  312.77   14.80
  -1   5  -2  311.57   13.70
  -1   5  -2  314.57   15.50
  -3  -5  -2   73.29    4.20
   3  -5   2   64.69    7.60
   3  -5   2   60.49    4.90
   3  -5   2   81.19    7.40
  -3  -5  -2   83.79    8.30
  -3  -5  -2   82.89    9.10
   3  -5   2   80.49    6.60
  -3  -5  -2   79.49    4.70
   3   5   2   76.19    8.50
  -3   5  -2   76.29    5.40
  -3   5  -2   83.89    6.70
  -3   5  -2   81.19    7.10
   3   5   2   74.69    7.10
  -3   5  -2   85.19    6.70
  -5  -5  -2   26.40    5.80
  -5  -5  -2   31.20    4.20
   5  -5   2   34.00    6.70
   5  -5   2   31.90    4.90
   5  -5   2   35.30    4.00
   5  -5   2   26.90    4.90
  -5   5  -2   36.60    6.30
  -5   5  -2   32.60    5.30
  -5   5  -2   33.90    3.80
   5   5   2   30.10    6.40
   5   5   2   41.50    6.20
  -5   5  -2   40.90    6.00
   5   5   2   29.10    4.70
   7  -5   2  191.08   12.10
   7  -5   2  172.08   13.60
   7  -5   2  190.48   10.80
   7  -5   2  180.28   14.70
  -7  -5  -2  185.88   15.10
  -7  -5  -2  204.58   11.60
   7   5   2  174.18   14.70
  -7   5  -2  183.18   12.20
   7   5   2  215.08   12.90
  -7   5  -2  199.88   12.80
  -7   5  -2  205.48   14.00
   7   5   2  179.88   13.70
  -7   5  -2  183.08   10.80
  -9  -5  -2   18.00    8.20
   9  -5   2   44.60    6.00
   9  -5   2   30.50    7.10
   9  -5   2   20.90    5.90
  -9  -5  -2   44.00    6.90
  -9   5  -2   44.90    7.40
   9   5   2   39.40    8.40
   9   5   2   39.00    7.50
  -9   5  -2   37.80    5.40
  11  -5   2   74.79   12.30
 -11  -5  -2   88.09   11.10
  11  -5   2   49.40    9.10
 -11   5  -2   65.19    9.80
 -11   5  -2   60.29    6.80
  11   5   2   91.49   13.30
  11   5   2   52.29    9.60
  13  -5   2   71.99   12.30
  13  -5   2   64.39   12.50
  13   5   2   93.39   14.60
  13   5   2   80.59   12.80
 -13   5  -2   76.79    8.30
  15  -5   2   -2.60    9.00
  15  -5   2   10.80    8.30
  15   5   2   16.00    9.70
  15   5   2   13.50    9.70
 -15   5  -2   19.50    5.80
  18  -6  -2  281.17   26.90
  18   6  -2  364.66   23.60
  18   6  -2  326.57   26.40
 -18   6   2  308.47   19.80
  16  -6  -2  533.85   33.30
  16   6  -2  582.64   30.40
 -16   6   2  555.14   27.80
  16   6  -2  583.04   33.90
 -16   6   2  551.44   30.50
  14  -6  -2  617.44   35.30
  14  -6  -2  659.43   35.20
 -14  -6   2  679.03   37.30
  14   6  -2  716.83   36.30
  14   6  -2  651.33   32.70
 -14   6   2  646.24   30.40
 -14   6   2  634.74   30.50
 -14   6   2  694.83   32.40
  12  -6  -2  962.50   43.80
 -12  -6   2  972.30   45.90
  12  -6  -2  855.61   43.80
  12  -6  -2  964.60   41.10
  12   6  -2  928.91   41.70
 -12   6   2  897.41   39.50
  12   6  -2  990.00   44.60
 -12   6   2  971.70   40.20
 -12   6   2  914.51   40.40
 -10  -6   2  604.14   26.80
  10  -6  -2  577.14   29.80
  10  -6  -2  582.04   30.60
 -10  -6   2  622.44   30.80
  10  -6  -2  664.93   29.50
 -10  -6   2  620.84   32.30
  10  -6  -2  642.74   29.40
 -10   6   2  639.94   29.50
  10   6  -2  639.54   31.40
 -10   6   2  642.54   28.20
  10   6  -2  576.04   29.00
 -10   6   2  558.04   27.10
  10   6  -2  679.73   28.40
 -10   6   2  605.24   27.80
  -8  -6   2  648.24   32.70
   8  -6  -2  614.04   30.80
   8  -6  -2  692.03   30.80
  -8  -6   2  658.53   28.10
  -8  -6   2  691.33   32.30
   8  -6  -2  657.33   28.40
   8  -6  -2  656.43   30.60
  -8   6   2  658.53   29.30
   8   6  -2  662.23   28.60
   8   6  -2  652.13   30.30
  -8   6   2  651.33   28.70
  -8   6   2  697.03   29.00
   8   6  -2  701.23   31.90
  -8   6   2  643.84   29.10
  -6  -6   2 2009.80   76.29
  -6  -6   2 1901.61   71.89
   6  -6  -2 1863.41   73.59
   6  -6  -2 2018.80   75.39
   6  -6  -2 1710.43   72.99
  -6  -6   2 2002.90   75.99
   6   6  -2 1901.31   74.39
  -6   6   2 1822.42   71.99
  -6   6   2 1836.02   72.99
  -6   6   2 1887.11   71.49
  -6   6   2 1920.61   71.89
   6   6  -2 1791.62   73.39
   6   6  -2 2109.49   72.09
  -4  -6   2 2392.26   90.29
   4  -6  -2 2289.27   87.49
  -4  -6   2 2506.35   91.09
   4  -6  -2 2462.55   87.39
  -4  -6   2 2301.97   87.69
  -4  -6   2 2317.47   88.39
   4  -6  -2 2378.96   88.59
   4  -6  -2 2457.25   91.99
  -4   6   2 2244.58   87.49
  -4   6   2 2392.56   85.99
   4   6  -2 2192.88   88.49
  -4   6   2 2250.57   88.89
  -4   6   2 2341.97   86.49
   2  -6  -2 2099.19   77.79
  -2  -6   2 1993.40   78.09
   2  -6  -2 2082.89   77.79
   2  -6  -2 2199.98   82.69
   2  -6  -2 1944.81   75.49
  -2  -6   2 2102.09   78.99
  -2  -6   2 2104.89   78.69
  -2  -6   2 2145.49   78.79
  -2   6   2 2147.49   74.39
  -2   6   2 2023.40   77.39
   2   6  -2 1946.91   75.89
   2   6  -2 1929.51   77.89
   2   6  -2 2154.68   76.79
  -2   6   2 1877.91   78.99
   0  -6   2 2235.28   81.29
   0  -6   2 2205.08   80.49
   0  -6   2 2116.09   81.69
   0  -6  -2 2090.29   79.89
   0  -6  -2 2252.97   85.89
   0  -6  -2 2078.89   77.09
   0  -6   2 2098.59   82.29
   0  -6  -2 2179.48   81.69
   0   6   2 2059.59   83.09
   0   6  -2 2172.08   79.49
   0   6  -2 2073.69   80.79
   0   6  -2 1949.10   78.19
   0   6  -2 2207.58   80.09
  -2  -6  -2 2064.89   78.19
  -2  -6  -2 1881.01   68.19
   2  -6   2 1741.13   74.69
   2  -6   2 1918.41   73.99
   2  -6   2 1930.71   72.39
  -2  -6  -2 2024.20   74.69
  -2   6  -2 1950.20   72.49
  -2   6  -2 1908.21   71.59
   2   6   2 1775.42   75.39
   2   6   2 1824.02   72.89
  -2   6  -2 1825.82   70.09
  -2   6  -2 1834.32   72.59
   4  -6   2 1250.67   48.90
   4  -6   2 1380.96   51.79
   4  -6   2 1214.68   52.89
  -4  -6  -2 1360.66   54.49
  -4  -6  -2 1241.98   47.00
  -4  -6  -2 1301.67   47.70
  -4  -6  -2 1307.87   56.29
   4  -6   2 1166.58   54.19
  -4   6  -2 1299.17   50.99
   4   6   2 1247.98   55.19
   4   6   2 1335.87   51.19
  -4   6  -2 1309.17   52.09
  -4   6  -2 1267.47   51.59
   4   6   2 1253.17   52.59
  -4   6  -2 1259.17   49.20
   6  -6   2 1028.70   41.00
   6  -6   2  937.41   46.60
   6  -6   2 1083.19   43.50
   6  -6   2  980.20   45.30
  -6  -6  -2 1046.80   46.80
  -6  -6  -2 1114.79   40.90
   6   6   2 1096.49   43.60
  -6   6  -2 1030.50   43.10
  -6   6  -2  940.91   40.80
   6   6   2 1031.50   47.60
  -6   6  -2 1011.00   43.50
  -6   6  -2 1052.19   44.70
   6   6   2 1072.49   45.70
  -8  -6  -2 1371.66   50.09
   8  -6   2 1115.79   55.39
   8  -6   2 1249.07   49.20
   8  -6   2 1204.88   54.49
  -8   6  -2 1261.87   52.09
  -8   6  -2 1204.48   49.30
  -8   6  -2 1279.07   51.99
   8   6   2 1258.47   56.39
   8   6   2 1242.68   54.29
 -10  -6  -2  599.44   26.90
  10  -6   2  544.95   30.90
  10  -6   2  508.05   31.40
 -10   6  -2  523.25   27.80
 -10   6  -2  525.55   25.10
  10   6   2  516.35   30.80
  10   6   2  531.25   29.80
  12  -6   2   87.09   14.20
  12  -6   2   85.29   12.50
 -12  -6  -2  114.99   13.40
  12   6   2  108.69   15.90
 -12   6  -2   93.79    9.10
  12   6   2   97.89   13.20
  14  -6   2  159.48   18.90
  14  -6   2  135.39   18.70
 -14   6  -2  140.39   12.10
  14   6   2  144.59   18.10
  14   6   2  156.38   18.30
  17  -7  -2  206.38   24.00
  17   7  -2  272.87   23.50
 -17   7   2  230.18   16.90
  17   7  -2  273.97   19.80
  15  -7  -2  252.47   21.90
  15  -7  -2  251.77   21.90
 -15   7   2  280.87   17.70
 -15   7   2  250.47   19.40
  15   7  -2  282.47   19.00
  15   7  -2  277.27   22.40
 -15   7   2  266.17   17.10
 -13  -7   2  549.05   27.10
  13  -7  -2  502.25   29.60
 -13  -7   2  509.05   24.10
  13  -7  -2  457.05   29.60
 -13   7   2  470.45   24.90
 -13   7   2  498.65   25.60
 -13   7   2  498.55   26.20
  13   7  -2  544.55   30.10
  13   7  -2  532.25   27.30
 -11  -7   2 1524.55   65.69
 -11  -7   2 1498.45   57.99
  11  -7  -2 1428.86   62.79
  11  -7  -2 1322.87   62.79
 -11   7   2 1550.34   60.29
 -11   7   2 1453.85   59.19
 -11   7   2 1552.64   59.99
  11   7  -2 1472.85   63.39
  11   7  -2 1520.75   61.49
  -9  -7   2 1673.03   65.69
  -9  -7   2 1775.92   72.69
   9  -7  -2 1719.23   70.09
   9  -7  -2 1591.14   69.89
   9  -7  -2 1747.43   69.79
  -9  -7   2 1788.72   71.89
   9   7  -2 1680.43   68.89
   9   7  -2 1716.23   70.39
  -9   7   2 1558.54   67.19
  -9   7   2 1677.23   66.99
  -9   7   2 1771.52   67.99
   9   7  -2 1907.11   67.89
  -9   7   2 1750.82   66.99
   7  -7  -2 1758.92   69.19
  -7  -7   2 1623.14   64.69
   7  -7  -2 1630.14   67.69
  -7  -7   2 1797.32   70.59
   7  -7  -2 1509.35   66.99
  -7  -7   2 1818.42   70.59
   7   7  -2 1670.13   67.39
  -7   7   2 1712.03   65.59
   7   7  -2 1669.73   68.09
  -7   7   2 1659.43   66.69
   7   7  -2 1815.22   65.49
  -7   7   2 1656.73   65.59
  -7   7   2 1685.33   64.99
  -5  -7   2 1129.59   45.20
   5  -7  -2 1143.29   47.20
  -5  -7   2 1130.29   46.30
   5  -7  -2 1039.80   45.70
   5  -7  -2 1155.28   45.20
  -5  -7   2 1161.38   48.70
  -5  -7   2 1168.18   49.60
   5  -7  -2 1172.28   49.99
  -5   7   2 1091.09   45.30
   5   7  -2 1017.10   46.40
  -5   7   2 1102.59   43.80
  -5   7   2 1145.39   47.10
  -5   7   2 1142.39   44.40
   3  -7  -2  814.22   35.00
  -3  -7   2  800.12   34.20
   3  -7  -2  843.22   34.50
   3  -7  -2  816.72   38.60
  -3  -7   2  805.92   36.70
   3  -7  -2  735.83   32.50
  -3  -7   2  811.62   36.00
  -3  -7   2  766.62   34.80
  -3   7   2  738.03   35.10
  -3   7   2  798.62   34.00
   3   7  -2  804.22   32.70
  -3   7   2  818.72   31.20
   3   7  -2  768.32   35.00
  -1  -7   2 1167.78   47.60
   1  -7  -2 1210.78   52.29
   1  -7  -2 1188.88   47.90
  -1  -7   2 1144.79   48.30
   1  -7  -2 1132.89   46.90
  -1  -7   2 1125.39   48.00
  -1  -7   2 1197.58   48.50
   1  -7  -2 1073.29   43.90
   1   7  -2 1122.19   47.60
   1   7  -2 1214.58   45.80
   1   7  -2 1096.29   44.90
  -1   7   2 1097.79   48.70
  -1   7   2 1193.88   42.60
  -1  -7  -2 1160.08   45.70
  -1  -7  -2 1120.89   47.70
   1  -7   2 1069.19   47.40
   1  -7   2 1190.38   46.10
  -1  -7  -2 1140.69   42.20
   1  -7   2 1070.89   47.90
   1  -7   2 1194.58   47.40
  -1  -7  -2 1145.89   51.29
   1   7   2 1130.59   48.90
  -1   7  -2 1086.79   46.60
  -1   7  -2 1068.89   43.90
  -1   7  -2 1145.99   45.40
  -1   7  -2 1085.39   44.80
   3  -7   2  810.12   38.00
  -3  -7  -2  854.81   31.70
  -3  -7  -2  845.32   38.90
   3  -7   2  816.62   39.20
   3  -7   2  831.62   36.60
  -3  -7  -2  852.51   41.80
  -3   7  -2  870.01   35.60
   3   7   2  871.61   37.30
  -3   7  -2  824.52   36.70
  -3   7  -2  810.32   36.00
   3   7   2  822.92   39.30
  -3   7  -2  823.12   34.10
  -5  -7  -2  440.16   17.40
  -5  -7  -2  376.26   16.30
   5  -7   2  401.16   18.60
  -5  -7  -2  408.26   24.80
   5  -7   2  369.26   23.40
   5  -7   2  376.06   22.50
   5   7   2  383.06   23.90
   5   7   2  388.56   21.90
  -5   7  -2  373.36   18.50
  -5   7  -2  381.06   21.30
  -5   7  -2  393.96   20.20
  -5   7  -2  390.46   20.90
   7  -7   2  355.36   22.30
  -7  -7  -2  332.57   15.30
   7  -7   2  347.47   23.40
  -7  -7  -2  361.36   17.10
   7  -7   2  351.46   17.70
   7   7   2  375.06   23.70
  -7   7  -2  349.77   17.80
  -7   7  -2  358.36   20.20
   7   7   2  356.56   21.50
  -7   7  -2  327.47   19.30
   9  -7   2  704.73   36.40
   9  -7   2  614.74   36.40
  -9  -7  -2  739.23   30.50
  -9   7  -2  665.23   30.20
  -9   7  -2  660.83   32.70
   9   7   2  669.43   36.50
   9   7   2  648.34   34.80
  -9   7  -2  682.23   32.80
  11  -7   2  458.65   31.10
  11  -7   2  502.95   31.10
 -11  -7  -2  494.45   25.50
 -11   7  -2  483.85   24.30
  11   7   2  470.55   30.40
  11   7   2  490.55   29.70
  13  -7   2  363.96   28.80
  13  -7   2  347.17   28.30
 -13   7  -2  354.66   21.10
  13   7   2  417.96   28.50
  13   7   2  447.56   29.60
  14  -8  -2   12.00    8.30
 -14  -8   2    8.20    4.30
  14  -8  -2   12.60    7.50
 -14   8   2   20.20    7.80
 -14   8   2   10.00    5.10
  14   8  -2   14.70    6.50
  14   8  -2   18.60    8.80
 -14   8   2    9.40    5.20
 -12  -8   2   68.59    7.10
  12  -8  -2   52.79   10.60
  12  -8  -2   55.19   10.80
  12   8  -2   69.19   11.60
 -12   8   2   44.70    7.40
 -12   8   2   46.50    7.30
 -12   8   2   70.39    8.70
  12   8  -2   65.89    9.60
  10  -8  -2   16.20    6.40
 -10  -8   2   28.80    9.60
  10  -8  -2   35.30    7.70
 -10  -8   2   32.90    5.40
  10   8  -2   33.70    6.80
 -10   8   2   24.40    5.40
 -10   8   2   23.80    5.30
  10   8  -2   30.80    7.10
 -10   8   2   33.50    6.40
  -8  -8   2   65.39   11.10
  -8  -8   2   76.59   11.90
   8  -8  -2   63.99    9.70
   8  -8  -2   54.99    8.90
  -8  -8   2   58.69    6.70
   8   8  -2   67.39    8.20
  -8   8   2   82.29    8.80
  -8   8   2   69.29    7.30
  -8   8   2   62.89    8.00
   8   8  -2   68.99    8.20
  -8   8   2   63.89    7.40
   8   8  -2   70.09    9.50
  -6  -8   2  285.57   20.20
   6  -8  -2  267.87   17.40
  -6  -8   2  244.18   14.40
   6  -8  -2  239.18   15.80
  -6  -8   2  265.67   16.00
  -6  -8   2  261.17   18.60
  -6   8   2  260.07   14.40
   6   8  -2  286.17   15.00
  -6   8   2  266.87   14.40
  -6   8   2  248.68   15.10
  -6   8   2  274.37   16.70
   6   8  -2  239.38   16.10
  -4  -8   2   35.00    5.80
   4  -8  -2   45.30    6.40
   4  -8  -2   49.80    7.00
  -4  -8   2   54.09    7.80
  -4  -8   2   61.89   10.50
  -4  -8   2   37.70    7.40
  -4   8   2   43.70    4.80
  -4   8   2   38.40    5.90
  -4   8   2   52.19    6.80
   4   8  -2   31.30    6.10
   2  -8  -2   75.89    6.90
   2  -8  -2  110.79    9.70
  -2  -8   2   90.19   11.10
  -2  -8   2  121.49   11.30
   2  -8  -2   62.59    8.60
  -2  -8   2   96.29    9.70
  -2  -8   2   82.39    8.70
   2   8  -2   91.69    7.50
   2   8  -2   81.99    8.30
   2   8  -2   79.59    7.20
  -2   8   2  106.39    8.80
  -2   8   2   93.59    5.90
  -2   8   2   86.89    9.30
   0  -8  -2   43.70    6.30
   0  -8  -2   52.89    5.00
   0  -8   2   53.19    8.40
   0  -8   2   52.09    7.60
   0  -8   2   51.99    8.00
   0  -8  -2   42.60    7.40
   0   8  -2   60.29    6.00
   0   8  -2   46.00    7.60
   0   8  -2   53.79    6.30
   0   8   2   66.79    8.30
   2  -8   2   16.70    4.80
   2  -8   2    9.40    4.80
  -2  -8  -2   14.60    3.90
   2  -8   2   17.20    5.30
  -2  -8  -2   22.10    3.20
  -2   8  -2   22.40    5.30
   2   8   2   19.10    5.50
  -2   8  -2   14.00    3.80
  -2   8  -2   15.00    3.70
  -2   8  -2    9.60    4.10
   4  -8   2   74.39   11.40
  -4  -8  -2   67.09    4.90
   4  -8   2   66.29    9.70
  -4  -8  -2   77.49    5.10
  -4   8  -2   73.59    7.10
   4   8   2   76.99    8.60
  -4   8  -2   73.49    8.50
   4   8   2   65.39   10.20
  -4   8  -2   57.29    8.20
  -4   8  -2   67.39    7.90
  -6  -8  -2   19.40    3.10
  -6  -8  -2   15.60    3.60
   6  -8   2    2.10    5.00
   6  -8   2   16.30    6.20
   6   8   2   12.80    5.90
  -6   8  -2   26.90    6.10
  -6   8  -2    3.70    4.50
   6   8   2   21.10    6.00
  -6   8  -2   20.10    4.40
   8  -8   2  104.29   13.40
  -8  -8  -2   90.29    6.60
   8  -8   2   89.49   12.50
  -8  -8  -2   95.49    8.60
   8   8   2   98.29   14.00
   8   8   2   99.89   11.80
  -8   8  -2   95.09   11.40
  -8   8  -2   91.59   10.40
  -8   8  -2   92.69    8.60
  10  -8   2  143.99   17.10
  10  -8   2  120.69   16.50
 -10  -8  -2  148.39   12.30
 -10  -8  -2  130.79    8.90
  10   8   2  140.69   16.70
  10   8   2  149.19   15.50
 -10   8  -2  140.69   11.50
 -10   8  -2  148.79   13.80
  12  -8   2   26.50   11.40
 -12  -8  -2   12.50    4.30
  12  -8   2   11.00    9.50
 -12   8  -2   25.40    6.30
  12   8   2   18.90    8.80
  12   8   2   12.10    9.40
 -13  -9   2  342.27   18.90
  13  -9  -2  320.07   26.40
  13  -9  -2  321.17   24.70
 -13   9   2  368.96   22.10
  13   9  -2  358.36   22.20
  13   9  -2  362.06   24.80
 -13   9   2  343.87   20.90
  11  -9  -2  444.66   28.70
 -11  -9   2  474.95   24.00
  11  -9  -2  483.05   30.60
  11   9  -2  536.05   27.80
 -11   9   2  533.65   27.70
  11   9  -2  551.54   29.70
 -11   9   2  517.85   26.30
 -11   9   2  497.15   26.10
  -9  -9   2  971.20   40.30
   9  -9  -2  930.21   45.70
   9  -9  -2  919.41   44.30
  -9   9   2  948.41   42.10
   9   9  -2  987.50   43.80
  -9   9   2  921.51   41.00
  -9   9   2 1016.60   44.10
   9   9  -2  984.70   45.00
  -7  -9   2  916.31   41.40
  -7  -9   2  928.81   39.40
   7  -9  -2  960.40   44.10
   7  -9  -2  885.51   41.60
  -7   9   2  909.81   39.40
  -7   9   2  916.81   40.70
   7   9  -2 1006.20   43.10
  -7   9   2  950.00   42.50
  -7   9   2  913.81   39.10
  -5  -9   2  691.63   31.50
  -5  -9   2  756.22   34.10
   5  -9  -2  709.83   35.00
  -5  -9   2  671.33   35.60
   5  -9  -2  684.83   32.00
  -5   9   2  692.73   29.50
   5   9  -2  709.23   34.10
  -5   9   2  678.43   32.20
  -5   9   2  702.93   34.10
   3  -9  -2 1139.69   45.00
  -3  -9   2 1109.49   49.60
   3  -9  -2 1110.79   49.10
  -3  -9   2 1114.89   48.90
  -3  -9   2 1101.59   47.10
   3   9  -2 1066.59   45.30
  -3   9   2 1110.79   42.70
   3   9  -2 1111.79   48.80
  -3   9   2 1098.39   47.00
  -3   9   2 1098.89   48.90
   1  -9  -2 1508.35   56.29
  -1  -9   2 1496.25   61.99
  -1  -9   2 1529.15   61.39
  -1  -9   2 1400.26   62.39
   1  -9  -2 1479.05   61.39
   1   9  -2 1457.05   61.79
   1   9  -2 1428.26   58.19
  -1   9   2 1488.15   62.39
   1   9  -2 1476.65   57.99
  -1   9   2 1489.85   60.39
   1  -9   2 1808.22   74.79
  -1  -9  -2 1769.12   71.49
   1  -9   2 1698.23   73.59
  -1  -9  -2 1844.22   66.09
   1  -9   2 1802.82   72.49
  -1   9  -2 1773.32   73.09
  -1   9  -2 1732.83   69.29
  -1   9  -2 1774.22   69.79
   1   9   2 1923.01   74.79
  -3  -9  -2 1628.94   64.09
  -3  -9  -2 1623.24   58.19
   3  -9   2 1606.34   68.39
   3  -9   2 1513.85   67.49
   3   9   2 1517.95   67.29
  -3   9  -2 1630.54   62.59
  -3   9  -2 1619.04   63.39
  -3   9  -2 1568.04   66.19
  -5  -9  -2  821.12   30.90
  -5  -9  -2  816.22   30.90
   5  -9   2  762.02   40.80
   5  -9   2  790.72   40.60
   5   9   2  819.32   38.30
  -5   9  -2  812.92   36.30
  -5   9  -2  802.72   35.20
   5   9   2  816.82   40.50
  -5   9  -2  809.12   38.70
   7  -9   2  459.95   30.20
  -7  -9  -2  531.25   21.70
  -7  -9  -2  490.25   20.90
   7  -9   2  475.25   30.70
  -7   9  -2  506.15   25.00
  -7   9  -2  509.15   26.90
   7   9   2  507.75   30.10
  -7   9  -2  523.55   28.30
   7   9   2  551.54   29.20
   9  -9   2  486.55   33.60
   9  -9   2  567.74   34.70
  -9  -9  -2  538.55   23.30
   9   9   2  619.64   34.10
   9   9   2  568.14   32.00
  -9   9  -2  560.44   27.50
  -9   9  -2  588.94   31.20
  12 -10  -2  322.27   24.30
  12 -10  -2  285.87   26.30
 -12 -10   2  325.37   18.30
  12  10  -2  332.47   21.60
  12  10  -2  334.37   23.40
 -12  10   2  312.67   21.40
 -12  10   2  302.37   19.90
  10 -10  -2  438.16   29.90
 -10 -10   2  471.75   23.30
 -10 -10   2  454.05   25.30
  10 -10  -2  452.85   27.50
 -10  10   2  444.86   25.30
 -10  10   2  417.66   25.60
 -10  10   2  485.45   27.20
  10  10  -2  483.95   27.60
  10  10  -2  521.95   27.40
   8 -10  -2  475.35   29.00
   8 -10  -2  440.66   25.10
  -8 -10   2  443.46   24.70
  -8 -10   2  427.76   22.30
   8  10  -2  440.86   25.40
  -8  10   2  434.56   25.60
  -8  10   2  421.36   23.80
   6 -10  -2  458.05   28.60
   6 -10  -2  496.15   25.30
  -6 -10   2  448.26   25.90
  -6 -10   2  481.05   24.10
  -6  10   2  503.35   27.50
  -6  10   2  505.05   25.80
   6  10  -2  504.75   27.40
  -6  10   2  457.05   22.60
   4 -10  -2  882.31   43.00
   4 -10  -2  939.71   38.40
  -4 -10   2  861.31   39.30
  -4 -10   2  914.41   42.00
  -4  10   2  844.02   35.50
   4  10  -2  889.11   38.70
  -4  10   2  875.91   41.90
  -4  10   2  860.41   39.80
   4  10  -2  882.31   41.90
  -2 -10   2  825.12   40.00
   2 -10  -2  780.22   39.00
  -2 -10   2  814.22   37.40
   2 -10  -2  801.72   33.50
  -2  10   2  749.13   36.70
   2  10  -2  839.42   39.40
   2  10  -2  786.72   34.40
   2  10  -2  816.72   35.70
  -2  10   2  809.82   39.20
   0 -10   2  654.43   33.10
   0 -10   2  621.04   34.30
   0 -10  -2  631.74   26.10
   0 -10  -2  632.24   32.40
   0  10  -2  629.44   29.60
   0  10  -2  676.63   33.80
   0  10   2  666.23   33.70
   0  10   2  653.53   31.60
   0  10  -2  620.74   29.40
   2 -10   2  679.43   36.20
   2 -10   2  706.73   38.10
  -2 -10  -2  723.43   34.70
   2  10   2  787.52   37.50
  -2  10  -2  699.23   36.00
  -2  10  -2  722.23   32.60
   4 -10   2  595.94   34.10
   4 -10   2  576.44   34.20
  -4 -10  -2  615.04   30.30
  -4  10  -2  605.04   32.70
  -4  10  -2  631.64   29.00
   4  10   2  636.74   33.70
  -6 -10  -2  494.35   26.30
   6 -10   2  464.85   31.00
   6 -10   2  435.36   30.70
   6  10   2  582.84   31.50
   6  10   2  533.85   28.40
  -6  10  -2  530.05   29.60
  -6  10  -2  519.55   25.70
   8 -10   2  410.66   29.20
   8 -10   2  404.36   30.80
  -8  10  -2  397.56   23.00
   8  10   2  489.25   27.70
  -8  10  -2  426.16   26.50
   8  10   2  459.05   28.60
  -9 -11   2   -3.20    4.90
   9 -11  -2    9.30    7.60
   9 -11  -2  -10.20    9.60
  -9 -11   2    3.00    5.80
   9  11  -2    9.70    6.20
  -9  11   2    0.60    6.10
  -9  11   2    2.60    5.30
  -7 -11   2   19.30    7.20
   7 -11  -2    7.50    5.80
  -7 -11   2    6.00    5.30
   7 -11  -2   10.50    9.20
  -7  11   2    4.70    6.00
   7  11  -2    1.90    5.80
  -7  11   2    2.00    5.00
   5 -11  -2    7.80    5.40
   5 -11  -2   15.20    8.60
  -5 -11   2   11.50    6.70
  -5 -11   2   10.30    5.40
   5  11  -2   12.40    5.00
  -5  11   2   -1.20    4.60
  -5  11   2    4.70    5.60
  -5  11   2   -1.60    4.70
   5  11  -2    9.10    5.80
  -3 -11   2   -1.40    4.90
   3 -11  -2    4.70    7.20
  -3 -11   2   11.30    6.60
   3 -11  -2    7.80    4.60
   3  11  -2    6.00    5.80
  -3  11   2    6.60    5.00
  -3  11   2    5.60    3.90
  -3  11   2    7.10    5.40
   3  11  -2   -1.80    4.40
  -1 -11   2   -1.20    6.50
   1 -11  -2    0.30    3.40
   1 -11  -2    1.70    6.90
  -1 -11   2   -1.40    5.40
   1  11  -2    0.00    5.60
  -1  11   2    0.30    5.00
   1  11  -2   11.80    4.80
  -1  11   2    1.50    4.70
   1 -11   2   11.70    6.50
  -1 -11  -2   10.40    7.00
   1 -11   2    8.70    7.50
   1  11   2   14.50    5.80
   1  11   2    8.50    5.50
  -1  11  -2   26.70    6.20
  -1  11  -2   15.30    6.30
  -3 -11  -2   -6.50    5.50
   3 -11   2    5.10    7.10
   3 -11   2    9.70    9.20
  -3  11  -2    1.60    4.60
  -3  11  -2    1.00    5.20
   3  11   2   -4.50    5.40
  -5 -11  -2    6.00    6.20
   5 -11   2   15.20    8.60
   5 -11   2   11.50    9.60
  -5  11  -2    2.20    5.40
   5  11   2    0.70    6.10
  -5  11  -2   12.80    7.50
   4 -12  -2  340.17   27.90
  -4 -12   2  402.96   27.20
   4 -12  -2  387.26   19.90
  -4 -12   2  362.96   22.20
  -4  12   2  334.27   24.40
  -4  12   2  334.87   22.60
   4  12  -2  352.26   24.60
   4  12  -2  378.26   22.10
   2 -12  -2  636.34   26.50
   2 -12  -2  544.85   35.00
  -2 -12   2  607.14   31.60
  -2 -12   2  605.64   36.40
   2  12  -2  628.84   34.80
   2  12  -2  579.54   30.10
  -2  12   2  630.34   32.50
   0 -12   2  588.24   37.20
   0 -12   2  646.34   33.20
   0 -12  -2  601.64   35.30
   0  12   2  619.14   34.90
   0  12   2  677.53   33.50
   0  12  -2  588.84   30.70
 -20   0   3  -13.90   10.20
  20   0  -3    1.50    8.00
  20   0  -3   -1.60    5.60
  20   0  -3    1.10    6.10
 -20   0   3    3.50    3.60
 -18   0   3    1.20    2.80
 -18   0   3  -10.70    6.60
  18   0  -3    2.70    3.70
  18   0  -3    9.80    6.30
  16   0  -3    5.20    3.90
 -16   0   3   -0.60    2.10
  16   0  -3    1.60    2.50
 -16   0   3   -1.50    4.20
  14   0  -3   -3.40    2.90
  14   0  -3    1.00    1.70
 -14   0   3   10.10    2.70
 -14   0   3   -2.40    3.90
 -14   0   3   -3.10    3.00
  14   0  -3   -0.20    3.00
  12   0  -3    0.40    2.10
  12   0  -3    1.00    1.30
  12   0  -3    3.20    2.80
 -12   0   3    1.60    2.70
 -12   0   3    0.10    2.70
 -12   0   3    1.10    1.40
  10   0  -3    0.90    1.80
  10   0  -3    2.60    1.00
  10   0  -3    8.10    2.10
 -10   0   3    6.80    2.60
 -10   0   3    1.20    1.20
 -10   0   3    3.20    2.00
   8   0  -3    5.40    1.80
  -8   0   3    3.30    1.60
   8   0  -3    5.10    0.80
   8   0  -3    8.10    1.80
  -8   0   3    1.80    1.00
   6   0  -3    4.90    1.10
  -6   0   3    6.50    1.40
  -6   0   3    5.00    1.10
   4   0  -3    4.30    0.80
  -4   0   3    6.00    0.90
  -4   0   3    8.50    1.10
  -2   0   3    3.50    0.60
  -2   0   3    5.70    1.30
   2   0  -3    3.80    1.00
   2   0  -3    4.30    0.60
   0   0  -3    2.50    1.00
   0   0   3    3.00    1.00
   0   0   3    5.30    0.90
   0   0  -3    2.50    1.30
   0   0   3    4.60    1.30
  -2   0  -3    4.00    1.90
   2   0   3    8.40    1.60
   2   0   3    9.90    2.20
  -2   0  -3    7.20    1.90
  -2   0  -3    5.70    1.30
   2   0   3   13.10    2.60
  -4   0  -3    5.00    1.50
   4   0   3    3.70    2.00
  -4   0  -3    6.70    2.40
  -4   0  -3    5.70    2.60
   4   0   3    3.10    1.50
   4   0   3    0.30    1.70
   6   0   3    1.50    2.40
  -6   0  -3   -1.20    2.20
  -6   0  -3    7.50    3.20
   6   0   3    3.00    2.20
   6   0   3    1.00    1.60
  -6   0  -3    1.30    1.30
  -8   0  -3    0.30    3.20
  -8   0  -3    1.40    1.80
   8   0   3    0.30    2.80
   8   0   3    2.50    2.90
   8   0   3    2.10    2.60
  -8   0  -3    2.30    4.00
 -10   0  -3   -1.90    4.80
  10   0   3    2.90    3.30
  10   0   3    2.40    3.70
  10   0   3    4.40    3.80
 -10   0  -3   -0.80    2.00
 -10   0  -3    4.20    5.30
  12   0   3    1.00    4.60
 -12   0  -3   -1.70    2.40
  12   0   3   -0.30    3.80
  14   0   3   -1.40    6.10
 -14   0  -3    3.60    3.50
 -16   0  -3   -1.50    4.10
  16   0   3   -3.10    8.50
  21  -1  -3  121.79   16.70
 -21  -1   3  133.49   11.40
 -21   1   3  122.99   11.40
  21   1  -3  144.49   18.10
  21   1  -3  136.29   14.60
 -19  -1   3  404.46   21.10
  19  -1  -3  367.36   26.60
 -19  -1   3  381.06   27.00
  19  -1  -3  430.56   20.70
  19   1  -3  381.56   21.90
  19   1  -3  415.16   20.10
  19   1  -3  383.26   26.80
 -19   1   3  411.86   26.80
 -19   1   3  401.86   21.30
 -17  -1   3  479.85   22.80
  17  -1  -3  457.75   27.70
  17  -1  -3  510.15   22.00
 -17  -1   3  521.85   28.40
  17   1  -3  464.55   27.70
 -17   1   3  470.05   27.10
  17   1  -3  486.35   23.70
 -17   1   3  455.45   23.00
  17   1  -3  490.75   21.50
 -15  -1   3  490.05   26.30
 -15  -1   3  473.95   22.20
  15  -1  -3  500.85   21.20
  15   1  -3  462.65   26.20
 -15   1   3  487.55   25.70
  15   1  -3  484.45   22.60
 -15   1   3  482.85   22.70
  15   1  -3  528.15   21.10
 -13  -1   3  861.31   37.90
  13  -1  -3  847.42   37.80
 -13  -1   3  800.82   34.10
  13  -1  -3  897.01   35.50
  13  -1  -3  822.62   32.90
 -13  -1   3  867.41   37.60
  13   1  -3  885.21   35.30
 -13   1   3  844.02   37.50
  13   1  -3  828.12   34.10
 -13   1   3  844.52   37.00
  13   1  -3  876.11   38.20
  13   1  -3  848.12   32.70
 -13   1   3  832.42   34.60
 -11  -1   3 1146.29   44.20
  11  -1  -3 1171.68   43.00
  11  -1  -3 1176.18   45.00
 -11  -1   3 1172.08   47.30
  11  -1  -3 1147.09   46.90
 -11  -1   3 1174.18   46.80
 -11   1   3 1189.38   46.60
 -11   1   3 1107.19   44.50
  11   1  -3 1175.08   44.80
 -11   1   3 1165.78   46.90
  11   1  -3 1165.28   42.60
  11   1  -3 1097.19   43.60
  11   1  -3 1140.09   47.20
  -9  -1   3 3623.94  132.19
   9  -1  -3 3581.94  131.09
  -9  -1   3 3685.03  134.59
   9  -1  -3 3718.73  134.29
   9  -1  -3 3868.91  132.99
  -9   1   3 3683.93  133.89
  -9   1   3 3705.03  134.29
   9   1  -3 3734.93  132.59
   9   1  -3 3628.04  131.29
   9   1  -3 3655.73  134.69
  -9   1   3 3705.23  132.59
  -7  -1   3 4833.42  164.08
   7  -1  -3 4447.75  161.68
   7  -1  -3 4656.83  162.58
   7   1  -3 4489.45  163.78
  -7   1   3 4392.66  162.78
   5  -1  -3 3226.28  113.09
   5  -1  -3 2994.40  112.69
  -5  -1   3 3261.97  111.79
   5  -1  -3 3199.08  113.59
  -5  -1   3 3084.99  113.79
   5   1  -3 3338.47  112.39
   5   1  -3 3315.97  111.79
  -5   1   3 3019.10  112.79
  -5   1   3 3149.58  112.59
  -5   1   3 3119.29  112.99
  -3  -1   3 2210.08   75.79
  -3  -1   3 2185.48   76.99
  -3  -1   3 2038.00   77.19
  -3  -1   3 2240.48   76.89
  -3  -1   3 2130.19   78.29
  -3   1   3 2155.18   78.39
   3   1  -3 2134.39   75.79
  -3   1   3 2122.99   77.09
   3   1  -3 2179.98   78.19
  -1  -1   3   28.20    2.40
  -1  -1   3   28.50    1.60
  -1  -1   3   28.30    2.50
   1  -1  -3   28.50    2.20
  -1  -1   3   25.50    2.90
   1   1  -3   37.30    2.50
   1   1  -3   30.10    1.60
   1   1  -3   27.80    2.90
  -1   1   3   38.90    2.50
  -1  -1  -3 3520.05  126.69
   1  -1   3 3599.34  126.89
   1  -1   3 3429.26  126.89
  -1  -1  -3 3538.35  126.79
   1  -1   3 3447.86  127.99
   1  -1   3 3559.04  125.19
  -1   1  -3 3676.73  128.19
   1   1   3 3599.24  125.99
   1   1   3 3392.96  126.29
  -1   1  -3 3486.15  126.69
   1   1   3 3593.64  126.89
   3  -1   3 5407.96  186.68
  -3  -1  -3 5230.98  188.78
   3  -1   3 5200.88  188.98
   3  -1   3 5423.36  189.88
  -3  -1  -3 5456.55  188.78
   3  -1   3 4924.21  187.98
  -3   1  -3 5355.36  188.48
   3   1   3 5076.89  187.68
   3   1   3 5237.98  186.98
   3   1   3 5240.88  188.88
   5  -1   3  382.26   18.00
  -5  -1  -3  405.36   19.10
   5  -1   3  397.16   19.40
  -5  -1  -3  332.27   16.30
  -5  -1  -3  442.46   19.90
   5  -1   3  362.76   19.00
   5  -1   3  402.26   16.90
   5   1   3  404.16   18.10
   5   1   3  383.26   17.10
   5   1   3  359.56   18.90
  -5   1  -3  372.26   16.50
  -5   1  -3  382.06   18.60
  -5   1  -3  397.36   19.80
   7  -1   3  458.85   21.60
   7  -1   3  427.26   22.90
  -7  -1  -3  487.35   23.40
  -7  -1  -3  451.35   22.80
  -7  -1  -3  411.66   19.60
   7  -1   3  455.15   23.00
   7  -1   3  475.55   20.40
  -7   1  -3  464.25   19.90
   7   1   3  462.15   21.60
   7   1   3  444.16   23.10
  -7   1  -3  473.45   22.60
  -7   1  -3  446.86   23.50
   7   1   3  456.85   20.60
  -9  -1  -3  473.45   22.30
  -9  -1  -3  507.15   26.20
   9  -1   3  477.15   25.50
   9  -1   3  514.25   24.30
   9  -1   3  514.85   23.20
  -9  -1  -3  527.35   26.60
   9  -1   3  477.85   26.10
   9   1   3  499.75   23.40
  -9   1  -3  522.75   25.70
   9   1   3  492.45   26.40
  -9   1  -3  554.14   27.60
  -9   1  -3  473.55   22.10
   9   1   3  487.55   24.30
  11  -1   3  428.46   24.30
  11  -1   3  404.46   24.90
 -11  -1  -3  440.36   20.90
  11   1   3  428.26   25.20
  11   1   3  438.96   23.10
 -11   1  -3  421.26   20.70
 -11   1  -3  501.85   34.30
  13  -1   3  518.35   28.60
  13  -1   3  481.75   29.80
 -13  -1  -3  485.65   24.00
  13   1   3  556.94   30.80
 -13   1  -3  483.75   24.00
  15  -1   3  181.88   19.50
 -15  -1  -3  191.28   13.60
 -15   1  -3  188.08   13.50
  15   1   3  192.38   20.00
  20  -2  -3  281.97   23.60
 -20  -2   3  293.77   30.00
 -20  -2   3  288.87   17.00
  20  -2  -3  286.77   18.10
  20   2  -3  297.67   19.30
  20   2  -3  243.38   23.40
 -20   2   3  271.57   17.40
 -18  -2   3  289.37   22.00
  18  -2  -3  300.27   16.20
  18  -2  -3  262.47   21.20
 -18  -2   3  259.17   15.60
 -18   2   3  292.67   20.80
 -18   2   3  269.37   16.50
  18   2  -3  297.87   15.40
  18   2  -3  273.67   17.20
  18   2  -3  293.37   21.70
  16  -2  -3  869.91   42.10
  16  -2  -3  922.41   36.50
 -16  -2   3  862.71   36.90
 -16  -2   3  941.71   43.00
  16   2  -3  887.91   42.60
  16   2  -3  908.21   35.80
 -16   2   3  930.91   41.10
  16   2  -3  880.61   38.00
 -16   2   3  835.32   37.50
  14  -2  -3 1076.69   48.00
  14  -2  -3 1179.68   43.60
  14  -2  -3 1111.89   45.50
 -14  -2   3 1083.09   44.10
 -14  -2   3 1119.69   48.70
 -14  -2   3 1216.68   48.70
  14   2  -3 1107.69   48.80
 -14   2   3 1173.68   47.50
 -14   2   3 1041.40   44.60
 -14   2   3 1112.59   47.90
  14   2  -3 1085.79   45.20
  14   2  -3 1097.99   44.70
  12  -2  -3 1276.77   49.20
  12  -2  -3 1288.97   47.50
 -12  -2   3 1303.17   51.29
  12  -2  -3 1266.57   51.39
 -12  -2   3 1227.88   48.00
 -12  -2   3 1275.37   51.99
  12   2  -3 1200.18   51.69
 -12   2   3 1261.27   51.19
 -12   2   3 1252.47   50.39
  12   2  -3 1200.28   48.30
  12   2  -3 1242.88   48.80
 -12   2   3 1231.88   48.70
 -10  -2   3 1894.51   71.09
 -10  -2   3 1968.90   74.69
  10  -2  -3 1977.20   73.89
  10  -2  -3 2068.89   72.39
  10  -2  -3 1969.20   70.99
 -10   2   3 1925.51   71.99
 -10   2   3 1912.11   70.59
  10   2  -3 1812.02   74.19
 -10   2   3 1929.51   72.89
  10   2  -3 1841.32   71.39
 -10   2   3 1974.80   73.79
  10   2  -3 1967.40   71.79
   8  -2  -3  800.72   31.90
  -8  -2   3  789.92   30.20
   8  -2  -3  799.02   31.10
   8  -2  -3  835.72   30.80
  -8  -2   3  828.62   33.20
   8   2  -3  759.52   32.70
  -8   2   3  788.62   31.00
  -8   2   3  787.32   31.30
  -8   2   3  816.02   32.10
  -8   2   3  791.32   30.00
   8   2  -3  698.43   29.90
   8   2  -3  808.12   30.50
   6  -2  -3 2078.49   74.99
  -6  -2   3 2078.89   74.69
   6  -2  -3 2058.69   75.99
  -6  -2   3 2068.69   73.79
  -6  -2   3 2147.19   76.79
   6  -2  -3 2209.28   75.09
  -6   2   3 2061.79   74.89
  -6   2   3 2044.70   75.19
  -6   2   3 1984.20   74.49
  -6   2   3 1945.41   74.29
   6   2  -3 2001.10   73.69
   6   2  -3 2091.99   73.99
   6   2  -3 2023.50   76.39
  -4  -2   3 3957.90  160.38
   4  -2  -3 4926.81  158.88
   4  -2  -3 4771.12  161.98
  -4   2   3 4401.16  161.08
   4   2  -3 4385.16  160.18
   2  -2  -3 1873.51   68.09
   2  -2  -3 1887.71   70.79
  -2  -2   3 1872.71   68.39
  -2  -2   3 1934.11   68.89
  -2  -2   3 1886.01   69.99
   2   2  -3 1940.31   69.79
  -2   2   3 1827.72   67.89
   2   2  -3 1898.81   68.59
  -2   2   3 1922.61   67.19
   2   2  -3 1908.41   68.49
   2   2  -3 1896.91   66.69
  -2   2   3 1849.61   70.69
   0  -2  -3 2324.37   83.89
   0  -2   3 2396.56   85.89
   0  -2  -3 2304.37   82.39
   0  -2   3 2314.27   83.89
   0  -2   3 2267.07   84.29
   0  -2   3 2460.15   82.19
   0   2   3 2190.78   83.69
   0   2  -3 2404.76   85.39
   0   2  -3 2331.97   82.09
   0   2  -3 2255.37   84.09
   0   2  -3 2297.97   83.89
   0   2   3 2204.68   85.99
   0   2   3 2302.67   82.29
  -2  -2  -3 2589.94   92.19
   2  -2   3 2548.05   91.59
   2  -2   3 2476.75   89.79
  -2  -2  -3 2601.44   91.19
   2  -2   3 2458.95   93.79
   2  -2   3 2411.36   92.09
   2   2   3 2409.06   91.99
  -2   2  -3 2616.64   93.49
   2   2   3 2513.95   94.09
   2   2   3 2490.85   90.99
   2   2   3 2464.85   90.09
  -2   2  -3 2470.85   89.79
  -2   2  -3 2537.15   91.79
   4  -2   3 1810.52   66.59
  -4  -2  -3 1846.32   69.39
   4  -2   3 1805.12   68.19
  -4  -2  -3 1921.31   68.79
   4  -2   3 1744.23   69.39
   4  -2   3 1781.32   70.59
   4   2   3 1705.83   69.19
  -4   2  -3 1795.22   66.49
  -4   2  -3 1900.21   70.69
   4   2   3 1800.62   67.09
   4   2   3 1840.92   67.59
  -4   2  -3 1840.32   68.79
   6  -2   3  997.30   38.60
  -6  -2  -3 1036.90   42.00
   6  -2   3  983.20   40.10
   6  -2   3  953.60   42.30
  -6  -2  -3 1057.99   41.40
   6  -2   3  965.00   41.90
  -6  -2  -3  912.31   38.50
  -6   2  -3 1012.00   42.50
   6   2   3 1014.90   39.50
  -6   2  -3  963.60   38.30
  -6   2  -3  999.80   41.10
   6   2   3  986.80   39.40
   6   2   3  986.60   42.00
  -8  -2  -3 1048.20   45.20
   8  -2   3 1016.00   42.90
   8  -2   3 1087.59   41.90
  -8  -2  -3 1138.79   45.30
  -8  -2  -3  977.20   41.20
   8  -2   3  979.50   45.30
   8  -2   3 1060.89   45.70
   8   2   3 1004.30   42.30
   8   2   3 1052.99   45.70
   8   2   3 1071.89   42.50
  -8   2  -3 1102.49   46.20
  -8   2  -3 1009.50   41.10
  -8   2  -3 1034.80   44.30
 -10  -2  -3  563.44   26.40
 -10  -2  -3  619.74   32.40
  10  -2   3  539.05   30.50
 -10  -2  -3  660.63   31.40
 -10   2  -3  642.84   26.90
 -10   2  -3  614.84   30.10
  10   2   3  581.74   31.00
 -12  -2  -3  187.08   12.20
  12  -2   3  188.08   15.50
  12  -2   3  197.38   16.80
  12   2   3  188.98   16.70
  12   2   3  181.38   15.90
 -12   2  -3  185.58   11.90
  14  -2   3  139.29   17.00
  14  -2   3  173.18   16.80
 -14  -2  -3  155.18   11.90
 -14   2  -3  164.48   12.10
  14   2   3  143.39   17.20
  14   2   3  153.18   17.20
 -19  -3   3    5.50    3.50
  19  -3  -3    4.50    8.10
 -19  -3   3    7.30   11.10
  19  -3  -3    1.80    6.50
 -19   3   3    3.00    8.10
  19   3  -3    1.10    6.00
  19   3  -3   -2.50    5.40
  19   3  -3    4.20    7.30
 -19   3   3    5.10    4.30
  17  -3  -3   61.19   10.30
 -17  -3   3   52.39    6.50
  17  -3  -3   59.99    7.60
 -17  -3   3   74.69   11.50
 -17   3   3   69.29   10.50
 -17   3   3   66.29    7.60
  17   3  -3   70.29    9.10
  17   3  -3   55.69   10.50
  15  -3  -3   48.60    8.30
  15  -3  -3   71.39    7.10
 -15  -3   3   71.39    6.50
 -15  -3   3   74.29   10.50
  15   3  -3   85.59   11.60
 -15   3   3   84.69   10.10
  15   3  -3   76.79    8.20
 -15   3   3   67.49    6.80
 -13  -3   3   57.99    5.40
 -13  -3   3   63.09    8.00
  13  -3  -3   55.29    8.30
  13  -3  -3   59.49    6.30
 -13  -3   3   48.50    7.40
  13  -3  -3   63.49    5.90
 -13   3   3   64.39    7.40
  13   3  -3   53.09    6.40
  13   3  -3   63.69    6.70
 -13   3   3   77.79    8.70
 -13   3   3   64.39    6.10
  13   3  -3   73.89    9.90
 -11  -3   3  306.67   18.10
  11  -3  -3  319.97   17.20
  11  -3  -3  325.47   15.70
 -11  -3   3  298.17   14.40
  11  -3  -3  304.17   14.80
 -11   3   3  313.47   15.40
 -11   3   3  316.07   16.20
  11   3  -3  293.37   15.50
 -11   3   3  320.37   14.50
  11   3  -3  316.17   18.00
  11   3  -3  311.27   15.20
 -11   3   3  325.87   17.00
   9  -3  -3  311.07   15.40
  -9  -3   3  321.37   16.80
   9  -3  -3  311.87   14.30
  -9  -3   3  282.07   13.00
   9  -3  -3  320.17   14.50
   9   3  -3  307.57   13.80
  -9   3   3  287.77   14.30
  -9   3   3  283.57   13.30
   9   3  -3  265.47   13.80
  -9   3   3  293.97   15.10
  -9   3   3  300.47   14.20
   9   3  -3  284.87   16.00
  -7  -3   3   50.39    5.60
   7  -3  -3   45.00    4.70
  -7  -3   3   48.60    3.30
   7  -3  -3   43.80    3.90
  -7  -3   3   47.20    4.70
  -7   3   3   43.00    4.20
   7   3  -3   39.40    3.60
  -7   3   3   44.50    4.00
  -7   3   3   46.80    3.80
  -7   3   3   43.10    3.80
   7   3  -3   53.89    5.40
   7   3  -3   49.20    3.60
   5  -3  -3  318.47   16.00
  -5  -3   3  331.37   14.70
  -5  -3   3  311.27   13.80
  -5  -3   3  307.77   15.30
   5  -3  -3  306.37   13.50
   5  -3  -3  310.47   13.70
   5   3  -3  320.47   12.60
  -5   3   3  294.37   14.30
   5   3  -3  309.17   13.30
   5   3  -3  306.47   14.80
  -5   3   3  315.17   13.10
  -5   3   3  303.37   13.70
  -5   3   3  303.47   13.30
  -3  -3   3 1124.79   42.60
   3  -3  -3 1006.80   40.30
   3  -3  -3 1093.49   40.70
  -3  -3   3 1128.89   41.00
  -3  -3   3 1070.29   41.90
  -3  -3   3 1112.79   41.60
   3  -3  -3 1054.09   44.20
   3   3  -3 1151.08   42.30
  -3   3   3 1075.69   43.70
   3   3  -3 1122.79   41.10
  -3   3   3 1076.69   39.50
  -1  -3   3  127.39    8.20
   1  -3  -3  118.59    7.10
   1  -3  -3  118.69    9.00
  -1  -3   3  126.79    7.40
   1   3  -3  123.19    5.50
   1   3  -3  139.29    7.30
  -1   3   3  108.29    8.60
  -1   3   3  117.69    6.90
   1   3  -3  122.79    6.80
   1   3  -3  127.99    7.80
   1  -3   3    8.20    1.40
   1  -3   3    4.30    1.70
   1  -3   3    3.20    1.90
  -1  -3  -3   10.00    2.40
   1  -3   3    6.20    1.70
  -1  -3  -3    6.40    1.20
   1   3   3    5.20    2.50
  -1   3  -3    1.50    1.60
  -1   3  -3    5.50    1.20
  -1   3  -3    3.70    1.50
   1   3   3    5.40    1.90
  -1   3  -3    5.00    1.70
   3  -3   3   34.20    5.80
  -3  -3  -3   41.30    4.00
   3  -3   3   39.10    4.10
  -3  -3  -3   39.90    5.20
   3  -3   3   34.20    4.90
   3  -3   3   44.00    3.40
   3   3   3   46.40    5.10
  -3   3  -3   40.50    3.40
  -3   3  -3   41.80    4.60
   3   3   3   31.60    5.50
   3   3   3   35.90    4.00
  -3   3  -3   39.70    5.00
  -3   3  -3   35.80    4.30
   5  -3   3    5.10    2.30
   5  -3   3    0.70    2.70
  -5  -3  -3    3.40    2.30
  -5  -3  -3    4.90    2.90
   5  -3   3    1.00    1.50
   5  -3   3    4.40    2.50
  -5   3  -3    3.30    2.40
  -5   3  -3    0.80    2.80
  -5   3  -3    3.50    1.60
   5   3   3    2.30    2.70
   5   3   3    4.70    2.30
   5   3   3    3.50    2.40
   7  -3   3   29.50    5.80
   7  -3   3   40.20    5.00
   7  -3   3   36.70    5.70
  -7  -3  -3   32.80    6.30
  -7  -3  -3   35.20    6.10
   7  -3   3   25.60    5.50
   7   3   3   22.10    4.70
   7   3   3   31.20    6.70
  -7   3  -3   34.40    6.20
  -7   3  -3   26.20    5.90
   7   3   3   36.60    5.70
  -7   3  -3   26.90    3.90
  -9  -3  -3   85.19   11.00
   9  -3   3   78.69   10.40
  -9  -3  -3   83.79    9.80
   9  -3   3   93.79    9.10
   9  -3   3   72.69    7.20
   9  -3   3   84.59   10.10
  -9   3  -3   72.89    6.60
   9   3   3   86.89    9.90
  -9   3  -3   97.09    9.90
   9   3   3   91.19   10.60
 -11  -3  -3   12.80    7.00
  11  -3   3    5.70    4.40
 -11  -3  -3    5.20    2.50
  11  -3   3   -3.40    4.60
  11   3   3    3.50    4.40
 -11   3  -3    4.20    2.60
  11   3   3   11.10    5.80
  13  -3   3    0.90    5.20
  13  -3   3    6.60    6.30
  13   3   3    3.40    6.70
  13   3   3    3.00    5.70
 -13   3  -3    1.80    3.20
  15  -3   3    2.00    8.10
  15  -3   3    2.10    7.60
  15   3   3   12.50    7.60
  15   3   3   12.20    9.50
 -15   3  -3    8.00    4.70
  20  -4  -3  242.18   24.10
 -20  -4   3  192.18   13.90
 -20   4   3  185.28   14.80
  20   4  -3  207.68   22.40
  20   4  -3  228.98   17.80
  18  -4  -3  427.96   28.70
 -18  -4   3  453.55   22.90
 -18  -4   3  507.55   33.00
  18  -4  -3  482.55   25.00
  18   4  -3  446.66   29.40
  18   4  -3  462.15   25.30
 -18   4   3  504.85   28.30
 -18   4   3  451.75   24.00
 -16  -4   3  326.87   23.80
  16  -4  -3  346.17   23.00
  16  -4  -3  381.66   19.50
 -16  -4   3  386.96   18.70
  16   4  -3  375.06   23.90
  16   4  -3  332.57   20.10
 -16   4   3  355.56   21.50
 -16   4   3  364.06   19.30
 -14  -4   3  528.75   26.60
  14  -4  -3  499.45   27.30
  14  -4  -3  545.85   24.20
 -14  -4   3  497.15   22.90
 -14  -4   3  534.75   28.90
  14   4  -3  505.15   27.70
 -14   4   3  496.75   24.00
 -14   4   3  503.15   23.20
 -14   4   3  543.25   25.90
  14   4  -3  484.45   24.70
 -12  -4   3  967.70   39.40
  12  -4  -3  984.70   43.20
  12  -4  -3 1039.80   41.10
  12  -4  -3 1034.60   40.80
 -12  -4   3 1039.20   45.30
 -12   4   3 1029.90   43.10
 -12   4   3 1010.60   41.70
  12   4  -3 1073.99   41.10
 -12   4   3 1014.40   40.00
  12   4  -3  906.21   41.00
 -12   4   3  985.10   40.80
  12   4  -3  934.71   43.80
 -10  -4   3  820.72   36.70
  10  -4  -3  867.31   33.40
 -10  -4   3  785.92   31.70
  10  -4  -3  820.42   34.90
  10  -4  -3  846.82   33.70
 -10   4   3  822.42   34.40
  10   4  -3  681.43   34.90
  10   4  -3  729.73   33.00
  10   4  -3  808.42   32.70
 -10   4   3  781.62   33.00
 -10   4   3  810.12   33.40
 -10   4   3  854.91   32.60
   8  -4  -3  968.90   37.80
  -8  -4   3  980.90   39.20
   8  -4  -3  937.71   38.60
   8  -4  -3 1016.30   39.40
   8  -4  -3  897.91   38.70
  -8  -4   3  967.10   41.00
  -8   4   3  958.60   37.60
  -8   4   3  922.31   37.40
   8   4  -3  956.00   40.30
   8   4  -3 1039.40   37.20
   8   4  -3  830.72   37.40
  -8   4   3  981.70   38.40
   6  -4  -3 2694.33  103.39
  -6  -4   3 3013.20  105.09
  -6  -4   3 3004.00  106.49
   6  -4  -3 2983.10  103.49
   6  -4  -3 2916.91  106.49
  -6  -4   3 2795.22  104.09
   6   4  -3 2651.33  103.19
   6   4  -3 2691.23  105.09
  -6   4   3 2858.41  102.69
   6   4  -3 2859.51  102.19
  -6   4   3 2906.51  103.29
  -6   4   3 2758.42  103.79
  -6   4   3 2771.72  103.39
  -4  -4   3 2384.76   87.39
  -4  -4   3 2354.36   88.39
   4  -4  -3 2527.15   91.09
   4  -4  -3 2404.96   85.99
  -4  -4   3 2374.26   86.99
  -4  -4   3 2250.27   87.59
  -4   4   3 2129.99   88.09
   4   4  -3 2471.25   87.39
  -4   4   3 2346.07   85.49
  -4   4   3 2392.76   85.29
   4   4  -3 2524.75   86.99
  -4   4   3 2248.48   86.79
   2  -4  -3  996.50   38.80
  -2  -4   3 1008.80   40.40
  -2  -4   3  957.90   39.10
  -2  -4   3 1021.10   38.50
   2  -4  -3 1030.60   42.60
   2   4  -3 1054.19   39.40
  -2   4   3  942.81   41.40
   2   4  -3  950.80   36.60
   2   4  -3  972.30   38.50
   0  -4  -3 2453.35   89.79
   0  -4   3 2316.67   91.19
   0  -4   3 2433.96   89.89
   0  -4  -3 2530.25   93.39
   0  -4   3 2489.85   88.79
   0   4  -3 2336.37   86.59
   0   4  -3 2383.56   88.99
   0   4   3 2273.47   92.19
   0   4  -3 2545.15   90.09
   0   4   3 2337.67   89.09
   0   4  -3 2467.25   88.69
   2  -4   3 3729.23  148.19
   2  -4   3 3906.11  146.59
   2  -4   3 4112.79  145.29
  -2  -4  -3 3894.01  142.49
   2  -4   3 4183.08  143.19
  -2  -4  -3 4327.87  147.29
   2   4   3 3956.50  146.29
  -2   4  -3 4008.50  143.29
  -2   4  -3 4086.49  147.09
  -2   4  -3 4111.39  145.59
   2   4   3 3888.91  149.19
  -2   4  -3 3948.00  145.79
   4  -4   3 1846.12   67.39
  -4  -4  -3 1843.12   67.89
   4  -4   3 1744.93   70.99
  -4  -4  -3 1940.01   71.99
   4  -4   3 1868.91   69.49
   4  -4   3 1711.53   72.79
   4   4   3 1882.61   69.49
   4   4   3 1777.12   70.69
   4   4   3 1779.72   73.19
  -4   4  -3 1930.81   71.89
  -4   4  -3 1749.03   69.69
  -4   4  -3 1854.31   67.49
  -4   4  -3 1817.92   69.79
  -6  -4  -3 1115.69   47.60
  -6  -4  -3 1163.08   44.80
   6  -4   3 1046.00   48.60
   6  -4   3 1134.29   45.20
   6  -4   3 1122.99   43.30
   6  -4   3 1111.79   47.70
  -6   4  -3 1149.48   46.10
  -6   4  -3 1100.39   43.30
  -6   4  -3 1091.59   47.60
   6   4   3 1064.09   47.00
   6   4   3 1158.88   45.40
   6   4   3 1097.79   49.10
   8  -4   3  904.61   37.60
  -8  -4  -3  937.91   42.80
   8  -4   3  871.41   42.20
   8  -4   3  928.01   40.00
   8  -4   3  995.50   44.20
  -8  -4  -3  957.20   39.90
   8   4   3  943.31   42.50
  -8   4  -3  887.41   37.40
  -8   4  -3  929.81   40.70
   8   4   3  921.51   43.80
  10  -4   3  469.55   28.70
 -10  -4  -3  587.54   27.80
  10  -4   3  501.15   28.80
  10   4   3  453.85   28.50
 -10   4  -3  513.25   23.70
  10   4   3  508.35   28.40
 -10   4  -3  523.45   27.30
  12  -4   3  411.76   26.80
  12  -4   3  385.06   26.50
 -12   4  -3  389.46   20.40
  12   4   3  412.76   26.30
  12   4   3  409.16   26.80
  14  -4   3  259.17   22.90
  14  -4   3  192.98   19.70
 -14   4  -3  228.18   15.00
  14   4   3  238.68   21.50
  14   4   3  239.08   21.70
  19  -5  -3  143.29   19.20
  19   5  -3  147.19   18.50
  19   5  -3  169.18   14.80
 -19   5   3  136.09   12.80
  17  -5  -3  256.87   21.50
 -17  -5   3  298.97   24.70
  17   5  -3  327.57   23.20
 -17   5   3  286.27   20.30
  17   5  -3  294.07   18.60
 -17   5   3  263.07   17.00
  15  -5  -3  510.95   29.50
  15  -5  -3  584.54   27.00
 -15  -5   3  552.14   31.90
 -15   5   3  526.55   25.30
  15   5  -3  513.05   26.70
 -15   5   3  533.55   26.00
 -15   5   3  553.74   27.70
  15   5  -3  569.84   30.80
  13  -5  -3 1064.89   49.90
 -13  -5   3 1167.88   52.79
  13  -5  -3 1182.78   47.90
 -13   5   3 1203.28   48.40
 -13   5   3 1180.58   47.50
  13   5  -3 1156.48   48.00
  13   5  -3 1154.48   51.49
  13   5  -3 1214.88   48.00
 -13   5   3 1114.59   46.50
  11  -5  -3 1370.26   55.79
  11  -5  -3 1259.27   57.09
  11  -5  -3 1451.75   55.19
  11  -5  -3 1359.06   56.99
 -11  -5   3 1428.66   59.79
 -11   5   3 1493.65   55.49
 -11   5   3 1404.56   56.39
 -11   5   3 1411.46   54.49
  11   5  -3 1460.85   54.99
  11   5  -3 1433.26   58.79
  11   5  -3 1367.16   55.49
 -11   5   3 1324.87   54.69
  -9  -5   3  848.52   35.50
  -9  -5   3  872.81   37.60
  -9  -5   3  917.61   39.90
   9  -5  -3  899.61   37.40
   9  -5  -3  901.61   35.70
   9  -5  -3  862.51   37.00
   9  -5  -3  798.82   37.00
   9   5  -3  906.91   35.20
   9   5  -3  882.61   38.60
  -9   5   3  883.51   35.70
  -9   5   3  875.31   35.40
   9   5  -3  777.62   35.70
  -9   5   3  868.91   36.30
  -9   5   3  853.31   35.40
   7  -5  -3 1662.53   63.69
   7  -5  -3 1541.45   61.19
  -7  -5   3 1583.54   60.79
  -7  -5   3 1671.63   63.19
   7  -5  -3 1597.54   60.49
  -7  -5   3 1621.24   64.09
   7  -5  -3 1520.25   61.19
  -7   5   3 1508.15   60.79
  -7   5   3 1704.73   60.69
  -7   5   3 1522.55   60.49
   7   5  -3 1686.03   59.69
   7   5  -3 1435.86   60.59
  -7   5   3 1610.54   59.89
   5  -5  -3 2939.71  106.29
   5  -5  -3 2695.93  100.89
  -5  -5   3 2846.42  104.29
  -5  -5   3 2944.21  103.49
   5  -5  -3 2706.93  101.79
  -5  -5   3 2823.32  102.59
  -5  -5   3 2760.62  102.29
  -5   5   3 2684.63  102.89
  -5   5   3 2831.62  100.39
  -5   5   3 2622.44  101.59
   5   5  -3 2851.01  100.29
   5   5  -3 2552.14  101.79
  -5   5   3 2739.63  100.39
   3  -5  -3 2553.24   92.69
   3  -5  -3 2425.16   89.99
  -3  -5   3 2467.75   93.09
  -3  -5   3 2415.66   93.89
   3  -5  -3 2444.86   92.39
   3  -5  -3 2683.83   98.19
  -3  -5   3 2559.84   93.99
  -3  -5   3 2574.64   93.79
  -3   5   3 2492.55   93.09
  -3   5   3 2663.83   89.89
  -3   5   3 2364.56   94.99
   3   5  -3 2352.06   92.69
   3   5  -3 2681.03   93.29
   1  -5  -3 2597.14   98.19
   1  -5  -3 2790.52  104.29
   1  -5  -3 2776.62   99.99
  -1  -5   3 2672.43  101.29
  -1  -5   3 2705.83  100.29
  -1  -5   3 2793.12   99.09
   1   5  -3 2672.13   99.39
   1   5  -3 2838.62   99.79
  -1   5   3 2451.55  102.19
   1   5  -3 2554.24   96.69
   1   5  -3 2706.33   98.49
  -1  -5  -3 1726.53   67.59
   1  -5   3 1631.34   63.69
   1  -5   3 1604.44   65.19
  -1  -5  -3 1705.63   64.09
   1  -5   3 1661.13   62.29
  -1   5  -3 1572.04   62.49
  -1   5  -3 1622.84   59.99
  -1   5  -3 1624.74   61.89
   1   5   3 1457.45   65.49
   1   5   3 1595.34   62.79
  -1   5  -3 1706.03   63.39
   3  -5   3  523.45   28.10
  -3  -5  -3  596.14   27.50
   3  -5   3  570.04   23.10
  -3  -5  -3  569.84   22.20
   3  -5   3  580.34   25.30
   3  -5   3  599.44   27.20
  -3   5  -3  543.45   23.20
   3   5   3  553.14   28.80
  -3   5  -3  539.05   25.50
   3   5   3  583.84   25.40
   3   5   3  532.15   26.10
  -3   5  -3  599.84   25.60
  -3   5  -3  580.54   26.80
   5  -5   3 1066.09   48.40
   5  -5   3 1075.99   46.60
   5  -5   3 1142.29   42.20
   5  -5   3 1111.69   44.50
  -5  -5  -3 1061.99   42.10
  -5  -5  -3 1090.89   47.10
   5   5   3 1147.69   44.70
  -5   5  -3 1094.79   46.30
  -5   5  -3 1062.59   44.80
  -5   5  -3 1054.89   42.10
   5   5   3 1025.20   45.70
   5   5   3 1039.90   48.50
  -5   5  -3 1112.69   44.80
   7  -5   3 1633.84   60.39
   7  -5   3 1614.84   65.99
   7  -5   3 1476.85   66.59
  -7  -5  -3 1612.14   66.29
  -7  -5  -3 1670.93   61.69
  -7   5  -3 1521.25   60.19
  -7   5  -3 1579.54   63.19
   7   5   3 1577.94   67.69
   7   5   3 1492.85   64.69
   9  -5   3  815.32   41.20
   9  -5   3  814.12   42.10
  -9  -5  -3  920.11   38.10
  -9   5  -3  849.61   35.70
   9   5   3  847.22   40.80
   9   5   3  852.11   42.60
  -9   5  -3  844.32   38.90
  11  -5   3  450.25   29.70
  11  -5   3  522.55   30.20
 -11  -5  -3  544.15   27.60
  11   5   3  480.65   30.10
 -11   5  -3  478.85   23.50
  11   5   3  447.96   28.20
  13  -5   3  335.97   25.80
  13  -5   3  309.57   25.60
  13   5   3  359.36   26.40
  13   5   3  332.67   25.10
 -13   5  -3  322.87   18.90
  18  -6  -3   -7.30    8.50
  18   6  -3    2.40    8.40
  18   6  -3   17.00    7.10
 -18   6   3    6.10    4.90
  16  -6  -3   28.60    9.20
 -16  -6   3   40.50   17.10
 -16   6   3   29.50    5.70
 -16   6   3   16.80    5.00
  16   6  -3   40.80    9.50
 -16   6   3   45.30    8.90
  16   6  -3   26.20    6.80
  14  -6  -3    9.80    5.50
 -14  -6   3   10.60    8.90
 -14   6   3    4.40    4.30
 -14   6   3   -1.40    2.70
  14   6  -3    5.70    5.10
  14   6  -3   -0.20    3.60
 -14   6   3    4.10    3.30
  12  -6  -3   39.20    7.60
  12  -6  -3   41.70    7.30
 -12  -6   3   32.90    5.30
 -12  -6   3   28.10    7.40
  12  -6  -3   25.90    6.50
  12   6  -3   44.20    7.00
 -12   6   3   29.40    5.10
  12   6  -3   14.30    5.50
 -12   6   3   32.30    6.90
  12   6  -3   38.60    6.50
 -12   6   3   39.70    5.70
 -12   6   3   21.00    4.70
 -10  -6   3   93.79    9.90
 -10  -6   3   64.19    9.50
  10  -6  -3   67.79    7.20
 -10  -6   3   70.39    6.60
  10  -6  -3   92.59    9.40
  10  -6  -3   69.09    8.20
  10  -6  -3   70.59    8.30
 -10   6   3   66.99    8.20
 -10   6   3   68.99    6.80
  10   6  -3   69.69    7.20
 -10   6   3   79.79    7.00
  10   6  -3   74.69    8.80
  10   6  -3   80.99    7.80
 -10   6   3   70.09    6.80
   8  -6  -3   76.59    7.60
  -8  -6   3   85.39   10.50
   8  -6  -3   59.09    6.80
   8  -6  -3   65.49    8.60
  -8  -6   3   73.79    8.50
  -8  -6   3   48.50    5.60
   8   6  -3   43.70    6.60
   8   6  -3   56.49    5.70
  -8   6   3   55.89    5.50
  -8   6   3   59.79    6.40
  -8   6   3   64.39    6.10
   8   6  -3   56.69    6.30
  -8   6   3   50.99    5.80
  -6  -6   3   13.40    4.20
   6  -6  -3   10.00    3.10
   6  -6  -3   11.40    4.70
  -6  -6   3   27.20    5.60
  -6  -6   3   14.60    3.50
   6  -6  -3   11.60    3.20
  -6  -6   3   18.20    3.80
   6   6  -3   11.50    3.30
  -6   6   3   19.60    3.50
  -6   6   3   15.90    3.20
  -6   6   3   20.50    3.30
   6   6  -3   14.20    3.00
  -6   6   3    9.50    3.30
   6   6  -3   16.00    3.80
  -4  -6   3   37.40    5.80
   4  -6  -3   48.40    5.30
   4  -6  -3   54.39    8.80
  -4  -6   3   42.00    5.80
  -4  -6   3   51.19    6.10
   4  -6  -3   44.90    5.40
  -4  -6   3   48.80    5.60
  -4   6   3   51.29    3.90
   4   6  -3   49.10    5.50
   4   6  -3   39.90    5.00
  -4   6   3   50.79    6.20
  -4   6   3   41.30    4.90
  -2  -6   3   65.59    6.60
   2  -6  -3   76.29    9.20
   2  -6  -3   53.99    3.50
  -2  -6   3   63.69    6.20
  -2  -6   3   53.39    6.40
  -2  -6   3   48.80    6.30
   2  -6  -3   60.79    6.60
   2  -6  -3   61.59    5.90
   2   6  -3   58.39    5.80
   2   6  -3   54.49    4.60
   2   6  -3   58.29    5.80
  -2   6   3   60.89    7.20
  -2   6   3   59.49    3.20
   0  -6  -3  338.47   17.60
   0  -6  -3  350.96   21.00
   0  -6   3  292.67   17.10
   0  -6   3  327.47   16.40
   0  -6   3  298.97   18.00
   0  -6  -3  313.07   15.40
   0   6  -3  304.67   15.50
   0   6  -3  311.37   16.30
   0   6  -3  294.87   14.00
   0   6  -3  296.67   16.30
   0   6   3  316.77   16.10
   2  -6   3   71.59    8.60
   2  -6   3   68.19    7.70
   2  -6   3   71.89    7.20
  -2  -6  -3   75.99    8.70
  -2  -6  -3   74.49   10.80
   2   6   3   77.59    7.40
  -2   6  -3   64.09    5.30
  -2   6  -3   67.69    6.70
  -2   6  -3   75.09    7.00
   2   6   3   70.09    8.60
  -2   6  -3   66.59    7.40
  -4  -6  -3  112.59    5.50
   4  -6   3  111.19   11.50
   4  -6   3  107.09    9.10
  -4  -6  -3  106.69    6.40
  -4  -6  -3  120.99   11.80
   4  -6   3  106.49   10.10
   4  -6   3  114.09    7.50
   4   6   3   99.49   11.20
  -4   6  -3  106.89   10.20
   4   6   3  116.29   10.00
  -4   6  -3  104.59    7.20
  -4   6  -3  117.09    9.20
  -4   6  -3  107.79    9.00
   4   6   3  115.39    9.00
   6  -6   3  121.19   11.30
  -6  -6  -3  110.19    8.00
   6  -6   3  110.09    8.10
   6  -6   3  104.89   12.00
   6   6   3  109.89   10.70
  -6   6  -3  100.29    9.10
   6   6   3  103.19   12.40
  -6   6  -3   88.79    9.20
  -6   6  -3  103.29    7.70
   8  -6   3   53.89    7.00
  -8  -6  -3   61.19    7.80
   8  -6   3   38.20    7.50
   8  -6   3   47.20   10.00
  -8   6  -3   61.59    6.40
   8   6   3   72.59   10.60
  -8   6  -3   55.29    7.90
   8   6   3   48.10    9.50
  10  -6   3   30.90    9.90
  10  -6   3   31.70    9.00
 -10  -6  -3   44.60    8.20
  10   6   3   47.00    9.20
  10   6   3   28.70    9.00
 -10   6  -3   33.90    5.70
  12  -6   3    0.50    7.00
 -12  -6  -3   -0.60    8.40
  12  -6   3   -7.30    7.30
 -12   6  -3    3.90    3.90
  12   6   3   -1.20    6.50
  12   6   3   -3.20    7.40
  17  -7  -3  243.38   22.60
  17   7  -3  237.08   17.40
  17   7  -3  237.48   22.50
  15  -7  -3  306.97   23.50
 -15  -7   3  296.87   17.90
  15   7  -3  305.87   23.30
  15   7  -3  333.57   19.80
 -15   7   3  337.77   19.10
 -15   7   3  323.97   20.40
 -15   7   3  328.07   19.10
 -13  -7   3  571.04   34.30
  13  -7  -3  510.95   30.30
 -13  -7   3  568.04   26.40
  13  -7  -3  567.74   30.90
 -13   7   3  552.54   27.20
  13   7  -3  601.84   28.30
 -13   7   3  557.04   27.10
  13   7  -3  521.75   30.40
 -13   7   3  581.54   27.70
 -11  -7   3 1172.98   49.99
 -11  -7   3 1129.29   51.89
  11  -7  -3  973.50   48.20
 -11  -7   3 1069.29   45.20
  11  -7  -3 1079.79   48.90
 -11   7   3 1068.19   46.20
  11   7  -3 1175.48   46.70
 -11   7   3 1128.89   47.20
 -11   7   3 1162.98   46.10
 -11   7   3 1074.69   46.00
  11   7  -3 1126.99   47.10
  11   7  -3 1150.98   49.90
  -9  -7   3  251.27   14.00
   9  -7  -3  190.38   14.80
   9  -7  -3  237.18   15.70
  -9  -7   3  259.47   17.40
  -9  -7   3  238.48   18.10
   9  -7  -3  264.87   17.90
  -9   7   3  243.08   14.70
  -9   7   3  245.78   14.30
  -9   7   3  230.88   13.60
   9   7  -3  239.38   14.90
  -9   7   3  249.78   14.60
   9   7  -3  226.58   16.10
   9   7  -3  271.47   14.80
  -7  -7   3  364.46   18.80
  -7  -7   3  362.76   21.70
  -7  -7   3  356.76   18.30
  -7  -7   3  389.56   22.00
   7  -7  -3  314.47   18.10
   7  -7  -3  350.96   19.40
   7  -7  -3  369.66   22.50
  -7   7   3  354.46   18.40
  -7   7   3  373.46   17.70
  -7   7   3  359.36   17.30
   7   7  -3  311.57   18.60
  -7   7   3  378.46   19.50
   7   7  -3  389.36   17.80
   7   7  -3  340.87   19.60
   5  -7  -3 1888.01   72.89
   5  -7  -3 2001.30   80.19
   5  -7  -3 1991.20   74.19
  -5  -7   3 2085.49   77.89
  -5  -7   3 1972.20   77.49
  -5  -7   3 1986.10   75.79
   5  -7  -3 1957.70   75.49
  -5  -7   3 1930.81   74.89
  -5   7   3 1908.31   71.59
  -5   7   3 1827.52   74.39
   5   7  -3 1893.91   75.29
  -5   7   3 1839.42   75.69
   3  -7  -3 1095.49   44.70
   3  -7  -3 1178.28   48.60
   3  -7  -3 1196.08   48.60
   3  -7  -3 1322.37   54.89
  -3  -7   3 1183.58   49.70
  -3  -7   3 1233.18   49.99
  -3  -7   3 1252.37   50.09
  -3  -7   3 1200.68   49.40
  -3   7   3 1219.78   44.10
   3   7  -3 1124.19   48.80
  -3   7   3 1163.28   50.29
   3   7  -3 1161.58   46.20
   3   7  -3 1219.68   47.50
  -3   7   3 1181.58   48.50
  -1  -7   3  908.51   42.20
   1  -7  -3  985.00   41.50
  -1  -7   3  985.20   41.00
  -1  -7   3  921.11   41.80
   1  -7  -3 1033.40   46.50
  -1  -7   3  993.70   41.40
   1  -7  -3  957.30   40.00
   1   7  -3  933.61   40.80
  -1   7   3  952.90   43.10
   1   7  -3  925.51   37.90
   1   7  -3 1018.10   40.10
   1  -7   3  801.22   39.10
   1  -7   3  863.21   36.70
  -1  -7  -3  904.71   42.90
   1  -7   3  791.12   37.90
  -1  -7  -3  832.32   35.20
  -1  -7  -3  877.21   38.50
  -1   7  -3  857.81   37.10
  -1   7  -3  866.31   36.40
  -1   7  -3  773.72   33.60
  -1   7  -3  865.61   35.70
   1   7   3  873.21   40.10
   1   7   3  838.52   36.40
   3  -7   3  418.46   25.00
  -3  -7  -3  421.06   33.80
   3  -7   3  440.36   24.00
  -3   7  -3  427.96   19.50
   3   7   3  408.86   25.00
  -3   7  -3  407.26   22.00
  -3   7  -3  439.56   22.50
   3   7   3  468.15   23.00
  -3   7  -3  418.86   21.10
   5  -7   3  439.66   28.00
  -5  -7  -3  541.25   20.40
   5  -7   3  503.75   22.30
  -5  -7  -3  489.75   19.30
   5  -7   3  490.35   27.30
  -5   7  -3  514.45   25.70
  -5   7  -3  498.95   22.60
   5   7   3  511.85   26.30
  -5   7  -3  484.75   24.50
   5   7   3  470.75   28.60
   7  -7   3  421.36   27.50
  -7  -7  -3  505.55   20.80
   7  -7   3  470.55   27.40
   7  -7   3  442.76   21.70
  -7  -7  -3  429.26   18.50
  -7   7  -3  467.15   24.40
   7   7   3  454.35   28.60
   7   7   3  457.35   26.00
  -7   7  -3  443.66   24.30
  -7   7  -3  421.96   21.20
  -9  -7  -3  544.55   24.60
   9  -7   3  533.95   30.70
   9  -7   3  441.76   30.30
  -9   7  -3  488.95   24.20
   9   7   3  508.65   29.40
   9   7   3  486.85   31.10
  11  -7   3  181.88   19.60
 -11  -7  -3  192.58   15.90
  11  -7   3  174.58   19.50
 -11   7  -3  176.38   13.10
  11   7   3  189.38   18.60
  11   7   3  185.18   19.70
 -16  -8   3  410.06   22.40
  16  -8  -3  428.66   30.90
  16   8  -3  437.86   24.30
 -16   8   3  408.56   23.70
  16   8  -3  430.66   29.10
 -16   8   3  390.96   23.40
 -14  -8   3  436.46   22.90
  14  -8  -3  447.46   29.10
 -14   8   3  456.95   24.30
  14   8  -3  444.46   28.00
 -14   8   3  463.75   24.70
 -14   8   3  424.86   24.50
  14   8  -3  486.05   25.20
  12  -8  -3  809.42   39.80
  12  -8  -3  685.63   38.00
 -12  -8   3  788.92   47.90
 -12  -8   3  778.12   34.40
 -12   8   3  800.72   36.40
  12   8  -3  802.62   36.60
 -12   8   3  815.72   35.50
  12   8  -3  793.72   39.20
 -12   8   3  786.62   35.80
  10  -8  -3 1076.99   48.90
 -10  -8   3 1152.48   52.29
 -10  -8   3 1042.30   49.90
  10  -8  -3  955.60   47.60
 -10  -8   3 1083.49   45.20
  10   8  -3 1099.79   49.00
  10   8  -3 1151.08   47.50
 -10   8   3 1133.79   47.10
 -10   8   3 1112.79   46.30
 -10   8   3 1124.79   45.30
 -10   8   3 1063.39   46.00
  -8  -8   3 1240.68   50.49
   8  -8  -3 1137.89   51.39
  -8  -8   3 1277.27   55.99
  -8  -8   3 1251.57   55.39
   8  -8  -3 1238.38   53.49
  -8  -8   3 1292.37   51.99
  -8   8   3 1224.18   51.29
  -8   8   3 1216.38   49.60
   8   8  -3 1258.17   53.19
  -8   8   3 1227.58   52.29
  -8   8   3 1253.77   49.90
   8   8  -3 1386.76   50.99
   8   8  -3 1213.78   52.29
   6  -8  -3 1639.34   66.09
   6  -8  -3 1471.45   62.69
  -6  -8   3 1629.14   65.39
  -6  -8   3 1668.23   67.99
  -6  -8   3 1619.64   68.19
  -6  -8   3 1618.54   64.09
  -6   8   3 1640.64   61.49
   6   8  -3 1511.55   64.99
   6   8  -3 1781.02   62.89
  -6   8   3 1614.54   65.79
  -6   8   3 1604.34   64.29
  -4  -8   3 1086.49   48.10
  -4  -8   3 1098.09   45.40
   4  -8  -3 1037.10   41.70
   4  -8  -3 1020.20   45.50
  -4  -8   3 1081.69   47.30
  -4  -8   3 1094.49   46.50
  -4   8   3 1049.40   44.80
   4   8  -3 1016.30   42.70
  -4   8   3 1119.69   40.60
  -4   8   3 1054.59   46.50
   4   8  -3 1048.60   45.80
  -2  -8   3 1159.48   51.39
  -2  -8   3 1203.58   55.09
  -2  -8   3 1151.58   50.89
  -2  -8   3 1247.68   51.19
   2  -8  -3 1191.68   44.40
   2  -8  -3 1178.68   49.80
  -2   8   3 1160.88   49.60
   2   8  -3 1168.38   47.10
   2   8  -3 1265.87   48.70
  -2   8   3 1172.38   51.69
   2   8  -3 1267.57   51.09
   0  -8   3 1871.71   78.69
   0  -8   3 2082.39   77.19
   0  -8  -3 2000.50   75.99
   0  -8   3 1900.11   78.49
   0   8  -3 1929.41   77.39
   0   8  -3 1887.61   73.39
   0   8   3 1958.50   79.59
   0   8  -3 1973.40   75.59
   2  -8   3 1400.36   59.99
  -2  -8  -3 1367.86   55.59
   2  -8   3 1350.26   60.59
  -2   8  -3 1412.16   55.99
  -2   8  -3 1409.36   54.29
   2   8   3 1426.06   57.19
  -2   8  -3 1367.86   56.49
   2   8   3 1406.06   60.69
  -2   8  -3 1391.36   58.09
   4  -8   3 1031.00   47.50
   4  -8   3  965.50   48.10
   4   8   3 1123.79   49.80
   4   8   3 1018.90   45.30
  -4   8  -3 1004.10   43.50
  -4   8  -3 1038.40   45.50
  -4   8  -3 1006.10   41.70
   6  -8   3  833.72   45.50
   6  -8   3  938.31   45.10
  -6  -8  -3  915.51   34.10
  -6   8  -3  976.20   42.80
   6   8   3  979.40   47.00
  -6   8  -3  900.81   38.50
   6   8   3  911.91   42.80
  -6   8  -3  902.51   40.60
   8  -8   3  449.36   29.40
  -8  -8  -3  501.25   21.30
  -8  -8  -3  463.85   19.40
   8  -8   3  438.36   30.20
  -8   8  -3  492.25   27.00
  -8   8  -3  483.55   23.40
   8   8   3  430.66   27.10
   8   8   3  470.85   30.60
  10  -8   3  273.57   25.30
 -10  -8  -3  318.27   14.90
  10  -8   3  316.17   25.10
  10   8   3  316.27   25.00
 -10   8  -3  303.67   18.10
  10   8   3  299.77   22.90
 -15  -9   3    3.40    5.20
 -15   9   3   16.00    6.40
  15   9  -3   16.90    8.70
 -13  -9   3   68.19    8.20
  13  -9  -3   57.29   11.00
  13  -9  -3   59.99   12.20
  13   9  -3   73.79   10.30
 -13   9   3   67.39    9.90
 -13   9   3   74.29   13.10
 -13   9   3   59.09    9.30
  13   9  -3   59.29   10.50
  11  -9  -3  115.39   12.70
  11  -9  -3  115.99   14.80
 -11  -9   3  111.29   10.00
  11   9  -3  127.99   12.20
  11   9  -3  127.29   13.20
 -11   9   3  124.79   12.10
 -11   9   3  117.89   11.40
 -11   9   3  103.89   10.60
   9  -9  -3  112.09   11.60
   9  -9  -3  116.09   13.40
  -9  -9   3  122.19   10.20
  -9  -9   3  124.69   11.10
  -9   9   3  113.79   10.50
   9   9  -3  136.79   12.00
  -9   9   3  100.09    9.80
  -9   9   3  109.69   10.30
  -9   9   3  122.99   11.50
  -7  -9   3  127.59   10.60
  -7  -9   3  146.39   16.00
   7  -9  -3  125.29   12.60
   7  -9  -3  114.39   10.30
  -7  -9   3  116.09   11.30
   7   9  -3  125.09   11.60
   7   9  -3  115.89   10.50
  -7   9   3  117.79    9.30
  -7   9   3  123.89   11.10
  -7   9   3  113.99   10.50
   5  -9  -3  124.79   12.50
   5  -9  -3  144.19    9.90
  -5  -9   3  143.09   12.60
  -5  -9   3  141.49   14.70
  -5  -9   3  156.38   12.00
  -5   9   3  146.99   11.60
  -5   9   3  128.69    8.60
  -5   9   3  146.89   12.40
   5   9  -3  138.69   12.30
   3  -9  -3  152.58   13.20
  -3  -9   3  143.99   14.90
  -3  -9   3  153.38   13.80
   3  -9  -3  156.18    8.90
  -3  -9   3  150.38   12.80
  -3   9   3  157.28   12.20
  -3   9   3  168.78   13.50
  -3   9   3  169.98    8.10
   3   9  -3  139.79   12.50
   3   9  -3  138.39   10.90
   3   9  -3  156.28   10.70
  -1  -9   3   69.69   10.30
  -1  -9   3   76.59    9.60
   1  -9  -3   73.89    9.00
  -1  -9   3   75.49   10.30
   1   9  -3   76.09    9.30
   1   9  -3   91.79    8.80
   1   9  -3   72.09    7.30
  -1   9   3   75.89    9.30
  -1   9   3   76.59    8.60
   1  -9   3  107.69   13.10
   1  -9   3  113.79   12.30
   1  -9   3  149.19   14.10
  -1  -9  -3  132.99   11.10
  -1   9  -3  142.19   10.00
   1   9   3  122.59   12.30
  -1   9  -3  133.49   12.20
  -3  -9  -3   66.69    8.20
   3  -9   3   95.59   13.30
   3  -9   3   76.99   12.20
  -3   9  -3   87.69   10.00
  -3   9  -3   84.59    8.00
   3   9   3   87.79   12.60
  -3   9  -3   65.19    8.60
   5  -9   3   34.90    9.50
   5  -9   3   12.70    6.80
   5   9   3   37.30    8.60
  -5   9  -3   33.90    5.90
   5   9   3   47.60    8.30
  -5   9  -3   39.10    8.20
   7  -9   3   90.39   14.50
   7  -9   3   73.69   12.40
   7   9   3  121.59   13.10
  -7   9  -3  105.39    9.70
  -7   9  -3   84.29   11.30
   7   9   3  131.69   15.40
  -9  -9  -3   40.90    5.10
   9  -9   3   30.40   11.40
   9  -9   3   38.40   11.00
   9   9   3   32.20    8.40
  -9   9  -3   36.60    7.00
  -9   9  -3   28.20    8.10
   9   9   3   56.89   12.50
 -12 -10   3  328.37   19.20
  12 -10  -3  307.17   26.50
  12 -10  -3  337.57   23.10
  12  10  -3  371.26   24.30
 -12  10   3  313.87   20.50
 -12  10   3  369.66   22.90
  12  10  -3  331.97   21.60
  10 -10  -3  317.47   21.00
 -10 -10   3  320.27   18.90
 -10 -10   3  351.76   21.30
  10 -10  -3  292.57   24.00
  10  10  -3  336.37   21.50
 -10  10   3  324.77   21.50
 -10  10   3  319.87   20.40
 -10  10   3  362.46   19.90
   8 -10  -3  209.38   18.40
   8 -10  -3  194.28   14.90
  -8 -10   3  234.38   16.80
  -8 -10   3  189.58   14.30
   8  10  -3  237.68   17.00
  -8  10   3  180.38   13.50
  -8  10   3  214.08   16.20
  -8  10   3  197.88   14.90
   6 -10  -3  340.47   22.70
  -6 -10   3  351.96   21.80
   6 -10  -3  345.67   18.00
  -6 -10   3  322.57   19.00
  -6  10   3  308.77   16.10
  -6  10   3  351.36   21.50
  -6  10   3  293.37   19.40
   6  10  -3  304.37   20.50
   4 -10  -3  461.05   27.40
  -4 -10   3  466.95   27.50
   4 -10  -3  520.05   22.00
  -4 -10   3  448.96   25.60
  -4  10   3  485.25   26.00
   4  10  -3  495.95   24.10
  -4  10   3  499.15   27.80
   4  10  -3  485.75   27.30
  -4  10   3  487.95   20.50
  -2 -10   3  270.87   20.30
   2 -10  -3  251.47   18.90
  -2 -10   3  275.57   18.70
   2  10  -3  280.27   19.20
   2  10  -3  291.17   16.30
  -2  10   3  289.57   18.40
  -2  10   3  281.27   19.60
   0 -10   3  188.38   16.90
   0 -10  -3  205.88   15.90
   0 -10   3  200.88   18.00
   0  10  -3  195.08   16.10
   0  10   3  225.78   17.50
   0  10   3  219.18   15.70
   0  10  -3  221.38   13.70
  -2 -10  -3  353.66   21.60
   2 -10   3  370.46   25.00
   2 -10   3  417.76   26.60
  -2  10  -3  371.86   20.00
  -2  10  -3  381.46   24.00
   2  10   3  404.46   24.70
  -4 -10  -3  214.38   15.50
   4 -10   3  227.28   20.30
   4 -10   3  190.38   19.10
   4  10   3  214.48   17.90
  -4  10  -3  200.88   16.50
  -4  10  -3  203.98   13.70
   6 -10   3  100.09   15.70
   6 -10   3   94.49   15.10
  -6 -10  -3   96.49   10.90
   6  10   3   87.39   13.70
  -6  10  -3   96.89   12.10
  -6  10  -3  103.19   10.40
   6  10   3  107.39   13.50
   9 -11  -3 1171.48   50.09
   9 -11  -3 1097.69   55.99
  -9 -11   3 1122.99   51.79
  -9 -11   3 1104.79   48.60
   9  11  -3 1232.88   52.89
  -9  11   3 1131.79   50.99
  -9  11   3 1122.69   52.79
  -7 -11   3 1172.38   53.49
   7 -11  -3 1100.59   55.39
   7 -11  -3 1248.98   49.40
  -7 -11   3 1140.89   50.19
  -7  11   3 1157.68   53.89
   7  11  -3 1267.27   54.39
  -7  11   3 1120.19   51.69
  -5 -11   3 1200.08   55.79
   5 -11  -3 1167.18   56.49
  -5 -11   3 1209.28   52.79
   5 -11  -3 1254.87   48.50
  -5  11   3 1187.78   46.80
   5  11  -3 1241.88   55.39
   5  11  -3 1192.38   50.89
  -5  11   3 1236.98   55.59
  -5  11   3 1242.58   53.69
  -3 -11   3 1056.29   50.09
   3 -11  -3 1025.70   48.90
  -3 -11   3 1015.30   46.60
  -3  11   3 1059.89   48.80
   3  11  -3 1035.20   44.20
  -3  11   3  976.80   46.30
   3  11  -3 1006.80   48.40
  -1 -11   3  922.81   46.30
  -1 -11   3  979.60   49.10
   1 -11  -3 1015.40   47.00
  -1  11   3 1017.10   47.50
   1  11  -3  965.20   42.60
   1  11  -3 1034.20   48.10
  -1  11   3 1001.20   45.70
   1 -11   3  824.42   47.00
  -1 -11  -3  912.41   43.50
   1 -11   3  858.81   44.90
  -1  11  -3  935.81   40.60
  -1  11  -3 1038.90   46.90
   1  11   3  972.80   45.90
   1  11   3  929.71   43.50
   3 -11   3  680.13   40.20
   3 -11   3  741.73   39.20
  -3 -11  -3  664.13   34.50
   3  11   3  732.33   38.30
  -3  11  -3  678.93   32.70
   4 -12  -3  219.78   23.10
   4  12  -3  232.98   16.70
  -4  12   3  214.58   17.70
  -2 -12   3  199.38   17.70
  -2 -12   3  195.08   21.00
   2 -12  -3  168.58   20.60
   2  12  -3  222.78   16.00
  -2  12   3  159.98   15.60
   2  12  -3  202.28   18.60
 -20   0   4  498.25   26.20
 -20   0   4  556.04   32.50
  20   0  -4  595.94   24.90
  20   0  -4  544.35   26.60
  20   0  -4  588.64   33.80
 -18   0   4 2044.70   78.89
  18   0  -4 1885.41   78.99
 -18   0   4 1862.21   73.29
  18   0  -4 1815.92   70.29
 -16   0   4 1249.77   53.09
 -16   0   4 1267.67   49.40
  16   0  -4 1226.28   53.69
  16   0  -4 1214.68   46.40
 -14   0   4  565.84   27.10
  14   0  -4  553.24   27.40
  14   0  -4  576.14   21.90
  14   0  -4  525.65   24.80
 -14   0   4  547.85   24.20
 -14   0   4  583.34   27.50
  12   0  -4 2170.48   78.09
  12   0  -4 1778.42   74.69
 -12   0   4 2109.69   77.49
 -12   0   4 2227.88   80.29
 -12   0   4 2151.98   80.39
  12   0  -4 2165.38   80.49
  10   0  -4 2921.11  103.89
  10   0  -4 2675.93  105.19
 -10   0   4 2759.12  103.39
 -10   0   4 3098.29  105.79
  -8   0   4 2864.21  102.69
   8   0  -4 2951.70  102.89
  -8   0   4 2888.41  103.69
   8   0  -4 2740.73  103.79
  -6   0   4 3276.47  118.79
   6   0  -4 3207.08  118.79
  -6   0   4 3388.06  118.49
  -6   0   4 3335.27  118.19
   6   0  -4 3459.05  118.59
  -4   0   4 2220.88   74.29
  -4   0   4 2070.19   74.69
  -4   0   4 2128.69   76.59
  -4   0   4 1975.50   74.49
  -2   0   4 2938.21  104.39
   2   0  -4 2891.41  104.09
  -2   0   4 2946.01  105.89
   2   0  -4 2961.90  105.79
   0   0  -4 2837.32   98.19
   0   0  -4 2704.13   96.59
   0   0   4 2594.74   97.69
   0   0   4 2611.64   96.79
   0   0   4 2651.63   95.59
  -2   0  -4 9666.93  348.57
  -2   0  -4 9999.00  350.16
  -4   0  -4 5886.61  206.88
  -4   0  -4 6011.80  208.48
   4   0   4 5624.34  207.28
   4   0   4 5589.74  206.88
   4   0   4 5914.71  204.68
  -4   0  -4 5401.16  204.18
  -6   0  -4 1411.86   55.39
   6   0   4 1454.15   52.99
  -6   0  -4 1278.17   51.99
   6   0   4 1315.17   55.69
  -6   0  -4 1416.86   56.59
   6   0   4 1361.26   55.19
  -8   0  -4 1407.16   57.99
   8   0   4 1416.86   54.99
   8   0   4 1368.96   57.29
   8   0   4 1433.06   58.99
  -8   0  -4 1304.87   53.89
  -8   0  -4 1502.55   59.79
  10   0   4  794.02   38.90
 -10   0  -4  771.32   33.70
  10   0   4  826.72   37.40
  12   0   4  585.94   29.40
  12   0   4  508.55   30.80
 -12   0  -4  498.05   24.90
 -14   0  -4  267.47   16.30
  14   0   4  240.48   22.40
  21  -1  -4   46.80   11.50
 -21  -1   4   48.40    7.50
  21   1  -4   52.09    8.70
 -21   1   4   69.89    8.40
  21   1  -4   75.59   14.00
  19  -1  -4   64.09    7.50
 -19  -1   4   41.10    6.30
 -19  -1   4   68.39   11.90
  19  -1  -4   55.69   10.60
  19   1  -4   43.90   10.40
 -19   1   4   63.49    7.50
  19   1  -4   59.89    6.40
  19   1  -4   54.49    7.70
 -19   1   4   57.19   11.10
 -17  -1   4   50.79    6.40
  17  -1  -4   27.00    6.60
  17  -1  -4   38.60    5.00
 -17  -1   4   23.70    7.00
 -17   1   4   34.20    5.50
  17   1  -4   35.00    5.20
 -17   1   4   44.50    8.30
  17   1  -4   34.30    7.60
  17   1  -4   32.20    4.30
  15  -1  -4  147.29    8.10
  15  -1  -4  148.19   10.30
  15  -1  -4  134.19   11.80
 -15  -1   4  152.58    9.40
 -15  -1   4  143.39   12.40
  15   1  -4  124.99   11.70
  15   1  -4  149.19    7.50
  15   1  -4  135.19   10.10
 -15   1   4  125.19    9.10
 -15   1   4  150.98   11.80
  15   1  -4  139.69    8.70
 -13  -1   4  366.46   17.20
  13  -1  -4  386.86   16.00
 -13  -1   4  368.26   20.10
  13  -1  -4  381.66   18.30
 -13  -1   4  411.46   20.50
  13  -1  -4  376.36   20.10
 -13   1   4  383.96   17.80
 -13   1   4  388.86   20.20
  13   1  -4  379.86   18.10
  13   1  -4  371.66   20.20
 -13   1   4  406.36   19.80
  13   1  -4  384.26   15.00
  13   1  -4  362.06   16.00
  11  -1  -4  753.72   32.90
  11  -1  -4  751.12   29.60
 -11  -1   4  772.32   33.30
  11  -1  -4  829.72   31.80
 -11  -1   4  794.02   30.90
  11   1  -4  787.42   31.30
  11   1  -4  757.12   33.30
 -11   1   4  819.72   33.60
 -11   1   4  797.12   32.70
  11   1  -4  779.92   28.20
 -11   1   4  774.42   31.20
   9  -1  -4  407.26   17.50
   9  -1  -4  418.56   18.20
  -9  -1   4  374.36   19.00
  -9  -1   4  468.45   17.80
  -9   1   4  434.86   16.30
   9   1  -4  463.65   18.10
   9   1  -4  433.56   19.60
  -9   1   4  449.56   18.20
  -9   1   4  429.76   18.70
   7  -1  -4  427.26   17.60
  -7  -1   4  413.96   18.40
   7  -1  -4  436.96   17.70
   7  -1  -4  435.06   17.60
  -7  -1   4  439.86   17.00
  -7   1   4  416.66   16.70
  -7   1   4  447.26   17.70
   7   1  -4  449.36   17.20
  -7   1   4  459.25   17.60
  -5  -1   4 1840.42   63.89
  -5  -1   4 1726.33   66.09
   5  -1  -4 1702.63   63.29
  -5  -1   4 1740.43   65.19
   5  -1  -4 1790.32   64.59
  -5  -1   4 1820.82   63.49
  -5   1   4 1712.23   63.29
  -5   1   4 1855.51   64.69
  -5   1   4 1823.02   65.79
   5   1  -4 1830.32   64.79
   5   1  -4 1821.72   63.59
  -3  -1   4  675.43   25.30
  -3  -1   4  663.93   27.00
  -3  -1   4  663.63   25.50
  -3   1   4  666.13   27.20
   3   1  -4  666.13   25.00
  -3   1   4  677.83   25.70
   3   1  -4  676.03   26.90
   1  -1  -4  540.55   21.80
   1  -1  -4  576.14   21.40
  -1  -1   4  543.45   21.90
  -1  -1   4  551.04   20.30
  -1  -1   4  547.75   23.30
  -1   1   4  556.94   21.50
   1   1  -4  553.64   23.20
  -1   1   4  539.55   21.80
   1   1  -4  546.15   21.60
   1  -1   4  842.22   33.70
   1  -1   4  811.02   34.70
   1  -1   4  870.71   31.80
  -1  -1  -4  876.21   33.40
  -1  -1  -4  907.11   34.00
   1   1   4  866.91   32.50
   1   1   4  870.61   33.70
  -1   1  -4  877.31   35.00
  -1   1  -4  772.92   31.50
  -1   1  -4  849.22   33.30
   1   1   4  821.62   33.20
   3  -1   4   25.70    3.00
   3  -1   4   28.10    4.30
  -3  -1  -4   35.70    5.20
   3  -1   4   21.80    4.20
  -3  -1  -4   37.80    4.40
  -3  -1  -4   32.00    3.20
   3  -1   4   32.90    4.00
   3   1   4   27.80    4.30
  -3   1  -4   24.50    3.90
  -3   1  -4   27.50    4.80
   3   1   4   35.40    4.00
  -3   1  -4   26.20    2.80
   3   1   4   38.30    3.60
  -5  -1  -4  114.19    9.40
   5  -1   4  109.79    8.50
   5  -1   4  117.89    9.30
  -5  -1  -4  101.79    6.80
   5  -1   4  119.79    9.30
  -5  -1  -4  105.49    8.90
   5  -1   4  106.39    7.00
   5   1   4  106.69    8.00
  -5   1  -4  105.99    6.80
  -5   1  -4  120.09   10.10
   5   1   4  117.89    7.50
  -5   1  -4   96.79    8.40
   5   1   4   98.19    8.60
   7  -1   4  409.86   20.40
  -7  -1  -4  411.36   21.60
   7  -1   4  384.46   21.40
  -7  -1  -4  440.16   22.50
  -7  -1  -4  390.86   18.40
   7  -1   4  395.36   21.80
   7  -1   4  430.86   19.10
  -7   1  -4  385.76   18.10
   7   1   4  397.96   19.10
   7   1   4  369.16   21.40
  -7   1  -4  429.46   22.90
   7   1   4  386.66   20.00
  -7   1  -4  384.36   21.00
   9  -1   4  238.98   16.60
   9  -1   4  264.37   14.80
  -9  -1  -4  251.07   13.70
  -9  -1  -4  254.77   18.30
   9  -1   4  266.87   17.80
  -9   1  -4  226.38   13.10
  -9   1  -4  242.98   17.60
   9   1   4  257.97   17.60
   9   1   4  245.38   15.40
  11  -1   4  192.48   15.20
 -11  -1  -4  177.98   11.90
  11  -1   4  161.98   15.50
  11   1   4  192.18   14.00
 -11   1  -4  184.88   11.70
  11   1   4  182.18   15.80
 -13  -1  -4  114.39   10.10
  13  -1   4  130.69   16.80
  13  -1   4  114.19   13.50
 -13   1  -4  127.49   10.40
  13   1   4  152.98   16.20
 -20  -2   4  125.89   10.50
  20  -2  -4  104.29   14.50
 -20  -2   4  113.89   15.70
  20  -2  -4  143.39   12.30
 -20   2   4  157.08   17.90
  20   2  -4  141.79   12.10
 -20   2   4  134.69   11.60
  20   2  -4  150.78   17.80
  18  -2  -4  188.18   17.10
 -18  -2   4  162.88   17.00
 -18  -2   4  162.68   11.30
  18  -2  -4  202.18   11.90
  18   2  -4  195.28   10.40
 -18   2   4  153.88   14.90
  18   2  -4  163.88   16.40
 -18   2   4  172.28   12.30
  18   2  -4  192.98   12.50
 -16  -2   4   30.20    4.80
  16  -2  -4   31.60    6.90
 -16  -2   4   19.80    6.70
  16  -2  -4   40.70    5.20
  16   2  -4   27.30    4.80
 -16   2   4   29.80    6.10
 -16   2   4   38.60    6.10
  16   2  -4   34.80    7.60
  16   2  -4   34.40    4.10
  14  -2  -4  258.57   13.90
 -14  -2   4  225.08   12.20
  14  -2  -4  229.98   15.10
  14  -2  -4  240.78   11.90
 -14  -2   4  240.08   15.80
 -14  -2   4  257.17   15.90
 -14   2   4  242.88   14.70
  14   2  -4  241.68   15.90
  14   2  -4  215.28   13.00
 -14   2   4  247.78   13.20
  14   2  -4  208.68   11.80
  14   2  -4  234.38   10.60
 -14   2   4  240.48   15.40
  12  -2  -4  634.14   29.30
  12  -2  -4  703.03   28.30
 -12  -2   4  691.63   26.90
 -12  -2   4  676.33   30.40
  12  -2  -4  647.44   26.50
 -12   2   4  640.74   28.50
 -12   2   4  720.83   30.20
 -12   2   4  637.74   27.50
 -12   2   4  683.33   26.00
  12   2  -4  645.34   30.20
  12   2  -4  669.63   27.60
  12   2  -4  583.54   25.80
  10  -2  -4  674.03   26.10
 -10  -2   4  623.94   24.70
  10  -2  -4  606.34   25.30
 -10  -2   4  568.24   27.30
  10   2  -4  561.14   23.20
 -10   2   4  632.64   24.10
 -10   2   4  659.83   27.20
  10   2  -4  657.33   25.30
 -10   2   4  632.84   25.80
 -10   2   4  618.54   26.00
  10   2  -4  638.64   27.80
  -8  -2   4 3103.09  105.29
   8  -2  -4 3143.59  106.79
  -8  -2   4 2989.30  108.39
   8  -2  -4 2775.02  107.39
   8  -2  -4 2513.65  106.19
  -8  -2   4 3035.90  105.29
   8   2  -4 2979.00  105.59
  -8   2   4 3002.90  107.29
  -8   2   4 2946.11  106.09
  -8   2   4 2951.20  105.39
  -8   2   4 3032.00  106.59
   8   2  -4 2866.81  108.09
   8   2  -4 2938.01  104.29
   6  -2  -4 1970.30   70.29
   6  -2  -4 1947.61   72.79
  -6  -2   4 1921.91   69.49
   6  -2  -4 2011.90   71.19
  -6  -2   4 1941.81   69.89
  -6  -2   4 1918.21   72.49
  -6  -2   4 1925.11   72.49
   6   2  -4 1901.61   69.79
   6   2  -4 2027.70   69.69
  -6   2   4 2167.18   71.39
  -6   2   4 1962.40   69.99
  -6   2   4 1857.91   71.69
   6   2  -4 1788.62   71.79
  -4  -2   4   34.70    3.00
   4  -2  -4   45.00    4.50
  -4  -2   4   39.70    3.50
  -4  -2   4   35.20    2.80
   4  -2  -4   41.10    2.20
  -4  -2   4   29.90    3.60
   4  -2  -4   43.50    2.60
  -4   2   4   49.99    4.70
   4   2  -4   49.10    4.20
   4   2  -4   43.10    3.20
  -2  -2   4  899.61   34.60
  -2  -2   4  820.42   32.30
  -2  -2   4  817.72   32.60
   2  -2  -4  852.71   31.60
  -2   2   4  832.02   31.20
   2   2  -4  856.51   32.20
   2   2  -4  894.31   34.10
  -2   2   4  805.72   34.70
  -2   2   4  842.82   31.70
   0  -2   4 1167.38   43.60
   0  -2   4 1125.09   43.90
   0  -2   4 1118.89   41.30
   0  -2  -4 1162.18   43.20
   0  -2  -4 1121.49   42.30
   0  -2   4 1096.19   45.50
   0   2  -4 1145.39   43.40
   0   2   4 1101.69   43.20
   0   2  -4 1181.48   45.30
   0   2  -4 1132.49   41.30
   0   2   4 1150.38   42.20
   0   2   4 1192.08   46.40
   2  -2   4  534.55   23.10
   2  -2   4  509.95   23.60
   2  -2   4  520.85   25.10
  -2  -2  -4  564.44   23.10
   2  -2   4  550.04   21.10
  -2  -2  -4  566.94   23.60
   2   2   4  517.35   22.30
   2   2   4  550.94   21.90
   2   2   4  523.05   23.30
  -2   2  -4  558.74   24.90
  -2   2  -4  528.65   23.10
  -2   2  -4  520.45   21.00
   4  -2   4  240.68   14.60
  -4  -2  -4  275.87   14.50
   4  -2   4  260.57   15.70
   4  -2   4  260.67   12.20
  -4  -2  -4  264.77   14.60
   4  -2   4  267.27   13.90
   4   2   4  252.67   14.60
  -4   2  -4  270.67   14.30
  -4   2  -4  267.57   15.70
   4   2   4  282.77   13.30
   4   2   4  265.37   13.00
  -4   2  -4  233.98   11.80
   6  -2   4  115.69   10.00
   6  -2   4  132.79    9.80
  -6  -2  -4  117.89   10.10
  -6  -2  -4  122.39   10.40
   6  -2   4  131.79    8.10
   6  -2   4  102.39   10.10
   6   2   4  115.89    8.40
   6   2   4  123.89    8.70
  -6   2  -4  102.59    9.40
   6   2   4  122.89   10.10
  -6   2  -4  135.79   11.20
  -6   2  -4  109.89    7.30
   8  -2   4  116.39    8.70
  -8  -2  -4   93.89    7.50
  -8  -2  -4   98.59   11.30
   8  -2   4  130.09   11.40
   8  -2   4   92.39   11.00
  -8  -2  -4  117.09   11.70
   8  -2   4  105.39   10.90
  -8   2  -4  117.29   10.90
   8   2   4  105.79   10.80
  -8   2  -4   90.99    7.30
  -8   2  -4  133.09   20.80
   8   2   4  132.79   11.00
   8   2   4  111.59    8.90
 -10  -2  -4  101.89    8.40
  10  -2   4   76.79   10.80
 -10  -2  -4  126.39   14.10
  10  -2   4   92.89   11.20
 -10   2  -4  102.19    8.20
  10   2   4  108.99   12.10
  12  -2   4  123.09   14.40
  12  -2   4  121.49   13.60
 -12  -2  -4  129.69   10.30
  12   2   4  114.09   14.10
 -12   2  -4  112.29    9.50
  12   2   4  124.79   14.90
 -14  -2  -4   37.90    7.10
  14  -2   4   47.30   11.40
  14  -2   4   46.50   10.90
 -14   2  -4   51.89    7.70
  14   2   4   49.99   11.80
  14   2   4   54.09   12.80
 -21  -3   4  245.58   16.00
  21  -3  -4  263.67   25.00
 -21   3   4  263.57   17.40
  21   3  -4  257.07   17.90
  21   3  -4  286.97   25.00
 -19  -3   4  585.54   27.90
 -19  -3   4  632.74   36.10
  19  -3  -4  622.24   34.70
  19  -3  -4  646.54   28.80
 -19   3   4  570.94   32.10
  19   3  -4  611.94   35.00
 -19   3   4  593.54   29.20
  19   3  -4  601.84   28.60
  19   3  -4  630.04   26.40
  17  -3  -4  727.33   36.90
  17  -3  -4  792.12   32.10
 -17  -3   4  732.23   31.80
 -17  -3   4  760.42   38.40
  17   3  -4  723.03   32.10
 -17   3   4  659.93   32.40
 -17   3   4  760.02   35.60
  17   3  -4  764.12   38.00
 -15  -3   4  979.10   43.50
 -15  -3   4  931.81   37.50
  15  -3  -4  919.71   41.80
  15  -3  -4  946.31   37.70
  15   3  -4  912.61   42.50
  15   3  -4  939.01   39.00
  15   3  -4  823.92   37.20
 -15   3   4  916.41   38.60
 -15   3   4  960.30   40.50
 -13  -3   4 1650.83   64.09
  13  -3  -4 1837.32   65.19
 -13  -3   4 1793.62   69.59
  13  -3  -4 1774.12   65.99
  13  -3  -4 1673.43   67.79
 -13   3   4 1678.43   63.69
  13   3  -4 1729.63   65.29
 -13   3   4 1733.23   67.79
  13   3  -4 1620.64   68.49
  13   3  -4 1569.44   63.79
 -13   3   4 1684.73   65.39
 -13   3   4 1768.62   66.59
  11  -3  -4 2894.21  109.59
  11  -3  -4 3021.30  108.49
 -11  -3   4 3027.20  111.69
  11  -3  -4 2958.90  108.39
 -11  -3   4 2956.30  106.89
 -11   3   4 2871.11  106.69
  11   3  -4 2993.60  107.59
  11   3  -4 2879.21  110.99
 -11   3   4 2982.70  109.79
 -11   3   4 2918.31  108.29
   9  -3  -4 2395.16   88.79
  -9  -3   4 2305.17   86.69
  -9  -3   4 2443.66   90.19
  -9  -3   4 2438.06   85.69
   9  -3  -4 2442.36   87.39
   9   3  -4 2373.76   89.69
   9   3  -4 2229.18   85.49
  -9   3   4 2379.76   86.89
  -9   3   4 2387.06   87.99
  -9   3   4 2354.06   86.19
  -9   3   4 2268.37   87.09
   9   3  -4 2447.26   86.19
   7  -3  -4 2248.18   79.89
   7  -3  -4 2163.38   82.39
  -7  -3   4 2188.68   77.99
  -7  -3   4 2253.17   79.69
  -7  -3   4 2118.49   81.99
  -7  -3   4 2228.18   80.99
   7  -3  -4 2181.28   79.39
  -7   3   4 2218.68   78.89
  -7   3   4 2108.39   79.79
  -7   3   4 2166.38   79.89
   7   3  -4 2081.69   81.29
  -7   3   4 2234.48   79.79
   7   3  -4 2131.39   78.19
   7   3  -4 2107.79   78.39
  -5  -3   4 4243.08  152.08
   5  -3  -4 4219.98  149.29
  -5  -3   4 4141.09  151.88
   5  -3  -4 4125.89  153.48
  -5  -3   4 4221.08  149.69
  -5  -3   4 4165.28  150.68
   5   3  -4 4459.85  148.29
  -5   3   4 4081.59  150.48
  -5   3   4 4231.58  149.39
   5   3  -4 4372.46  149.88
  -5   3   4 4163.98  148.69
  -5   3   4 3938.51  152.28
   3  -3  -4 4103.29  146.59
   3  -3  -4 3953.10  141.49
  -3  -3   4 4075.99  142.69
  -3  -3   4 3839.72  142.99
  -3  -3   4 4011.30  143.39
   3  -3  -4 3889.61  142.29
   3   3  -4 3860.01  142.79
  -3   3   4 4128.99  140.79
   3   3  -4 4092.59  144.39
  -3   3   4 3851.01  146.09
   3   3  -4 4025.10  140.29
  -1  -3   4 3470.55  120.79
  -1  -3   4 3385.76  125.79
  -1  -3   4 3403.66  123.99
  -1  -3   4 3545.95  123.39
   1  -3  -4 3434.86  123.29
  -1   3   4 3206.58  122.99
   1   3  -4 3631.44  125.19
   1   3  -4 3506.15  123.19
   1   3  -4 3405.46  123.69
  -1   3   4 3180.78  126.19
   1   3  -4 3381.76  120.79
   1  -3   4 2806.42  105.59
   1  -3   4 2817.42  107.39
   1  -3   4 2770.12  104.39
  -1  -3  -4 2836.62  104.99
   1  -3   4 2858.71  102.09
   1   3   4 2891.71  104.29
  -1   3  -4 2837.32  102.19
  -1   3  -4 2868.31  105.19
  -1   3  -4 3030.90  107.09
   1   3   4 2870.41  104.99
  -1   3  -4 2893.61  104.69
   1   3   4 2838.02  101.89
  -3  -3  -4 2103.39   76.79
   3  -3   4 2004.80   78.99
   3  -3   4 2078.79   80.99
  -3  -3  -4 2084.19   78.59
   3  -3   4 2080.99   77.79
   3  -3   4 2051.09   75.29
  -3   3  -4 1975.60   75.19
   3   3   4 2166.58   77.49
  -3   3  -4 2076.89   79.89
  -3   3  -4 2096.19   77.99
   3   3   4 2032.40   78.49
   3   3   4 2079.59   75.39
   3   3   4 2040.00   81.39
   5  -3   4 1470.05   60.39
   5  -3   4 1524.55   56.29
   5  -3   4 1458.95   61.79
  -5  -3  -4 1495.25   60.09
  -5  -3  -4 1512.85   58.59
   5  -3   4 1551.24   58.69
   5   3   4 1455.45   59.99
   5   3   4 1538.45   57.99
   5   3   4 1446.16   62.19
  -5   3  -4 1421.16   58.79
  -5   3  -4 1613.34   61.59
   5   3   4 1510.45   56.39
  -5   3  -4 1410.76   55.89
   7  -3   4  886.81   40.80
   7  -3   4  851.31   41.20
   7  -3   4  879.51   38.20
  -7  -3  -4  943.91   39.70
  -7  -3  -4  911.01   40.60
   7  -3   4  914.51   36.40
  -7   3  -4  883.41   35.90
   7   3   4  901.81   38.00
  -7   3  -4  877.81   39.20
  -7   3  -4  946.81   41.90
   7   3   4  873.81   40.30
   7   3   4  874.41   42.10
  -9  -3  -4  770.32   35.30
   9  -3   4  684.33   35.90
   9  -3   4  707.23   35.90
   9   3   4  707.23   35.50
   9   3   4  723.03   37.30
  -9   3  -4  694.33   30.30
  11  -3   4  585.84   32.90
  11  -3   4  574.44   33.10
  11   3   4  574.04   33.50
  11   3   4  587.54   32.40
 -11   3  -4  591.14   26.80
  13  -3   4  208.08   20.60
  13  -3   4  216.98   19.40
  13   3   4  219.48   19.90
 -13   3  -4  223.08   14.60
  13   3   4  240.18   21.50
 -20  -4   4   94.69    9.30
  20  -4  -4   88.19   15.00
  20   4  -4  110.89   16.30
 -20   4   4   98.39   10.50
  20   4  -4  103.39   11.40
  18  -4  -4  173.08   17.10
 -18  -4   4  196.68   20.70
  18  -4  -4  206.68   15.00
 -18  -4   4  180.68   12.20
 -18   4   4  200.78   13.80
 -18   4   4  157.68   15.90
  18   4  -4  193.48   13.20
  18   4  -4  191.08   17.90
 -16  -4   4  463.65   27.60
 -16  -4   4  432.66   20.70
  16  -4  -4  462.45   22.50
  16  -4  -4  430.46   25.40
  16   4  -4  440.46   21.40
 -16   4   4  425.76   23.40
  16   4  -4  422.96   26.00
 -16   4   4  438.06   22.00
  14  -4  -4  637.14   31.90
  14  -4  -4  677.63   29.70
 -14  -4   4  667.83   28.00
 -14  -4   4  695.03   34.20
 -14   4   4  628.84   29.10
 -14   4   4  708.93   35.30
 -14   4   4  703.13   30.60
  14   4  -4  640.94   32.80
  14   4  -4  679.43   29.50
  14   4  -4  632.84   28.30
 -14   4   4  631.94   27.80
  12  -4  -4 1018.90   40.60
  12  -4  -4  999.70   42.20
  12  -4  -4 1034.80   41.20
 -12  -4   4  987.30   38.70
 -12  -4   4  999.90   44.30
  12   4  -4 1021.30   39.90
 -12   4   4 1017.40   40.70
 -12   4   4  978.40   40.40
 -12   4   4 1026.60   42.10
 -12   4   4 1002.60   39.20
  12   4  -4 1015.30   43.80
  12   4  -4  829.02   38.70
 -10  -4   4  526.05   21.90
  10  -4  -4  566.34   25.30
  10  -4  -4  557.04   23.80
 -10  -4   4  570.64   27.00
 -10  -4   4  522.55   23.80
  10  -4  -4  481.25   24.00
  10   4  -4  575.14   22.90
 -10   4   4  539.65   22.80
  10   4  -4  479.65   22.20
 -10   4   4  548.85   23.30
  10   4  -4  537.25   26.10
 -10   4   4  555.14   24.40
 -10   4   4  532.65   23.60
   8  -4  -4  586.14   27.20
   8  -4  -4  606.64   24.50
   8  -4  -4  563.64   24.30
  -8  -4   4  566.94   25.00
  -8  -4   4  580.04   25.10
  -8  -4   4  558.64   26.80
  -8   4   4  569.34   24.30
   8   4  -4  531.85   23.30
   8   4  -4  585.74   23.00
  -8   4   4  540.25   24.00
   8   4  -4  562.44   26.20
  -8   4   4  594.94   23.60
  -8   4   4  582.44   24.30
   6  -4  -4 2298.87   83.79
   6  -4  -4 2077.49   78.49
  -6  -4   4 2147.79   81.59
  -6  -4   4 2195.58   80.59
  -6  -4   4 2200.58   79.29
  -6   4   4 2042.70   80.39
   6   4  -4 2168.98   77.29
  -6   4   4 2192.58   78.19
   6   4  -4 1988.80   80.09
   6   4  -4 2217.38   78.69
  -6   4   4 2151.98   77.69
  -6   4   4 2029.20   79.19
   4  -4  -4 1729.73   70.09
  -4  -4   4 1790.12   65.69
  -4  -4   4 1750.72   67.09
   4  -4  -4 1813.92   65.59
  -4  -4   4 1770.12   67.89
   4  -4  -4 1778.52   65.19
  -4  -4   4 1713.03   66.59
  -4   4   4 1897.71   63.89
   4   4  -4 1884.41   67.29
  -4   4   4 1655.63   66.19
  -4   4   4 1694.33   68.89
   4   4  -4 1758.22   65.89
   2  -4  -4 1340.67   49.50
  -2  -4   4 1328.57   53.09
   2  -4  -4 1363.66   50.99
   2  -4  -4 1386.76   55.29
  -2  -4   4 1311.37   50.39
  -2  -4   4 1297.77   51.39
   2   4  -4 1318.77   50.79
  -2   4   4 1297.77   54.29
   2   4  -4 1341.97   50.39
  -2   4   4 1205.08   49.80
   2   4  -4 1297.57   48.00
   2   4  -4 1453.95   52.39
   0  -4  -4 1088.09   44.90
   0  -4  -4 1043.40   41.20
   0  -4   4 1048.20   41.70
   0  -4   4  974.80   43.20
   0  -4   4 1007.40   37.80
   0  -4   4 1036.00   40.40
   0   4   4  988.00   40.70
   0   4  -4 1040.70   42.00
   0   4  -4 1060.89   41.10
   0   4  -4 1016.70   37.90
   0   4  -4  990.60   40.20
   2  -4   4  572.14   29.70
   2  -4   4  650.63   28.70
  -2  -4  -4  712.03   28.90
   2  -4   4  616.74   24.60
  -2  -4  -4  632.84   24.30
   2  -4   4  648.44   27.10
  -2   4  -4  623.64   27.20
   2   4   4  648.14   27.10
  -2   4  -4  673.03   29.30
   2   4   4  579.64   30.10
  -2   4  -4  602.44   27.40
   2   4   4  627.74   27.80
  -2   4  -4  603.84   24.60
  -4  -4  -4  638.74   28.50
   4  -4   4  560.94   28.00
   4  -4   4  581.74   24.00
   4  -4   4  562.24   29.50
  -4  -4  -4  599.74   25.00
   4  -4   4  621.24   26.60
  -4   4  -4  579.94   26.60
   4   4   4  569.14   27.30
   4   4   4  560.64   29.80
  -4   4  -4  598.84   28.60
  -4   4  -4  553.64   23.90
   4   4   4  629.04   26.60
   6  -4   4  709.73   36.60
   6  -4   4  764.72   33.40
  -6  -4  -4  719.63   32.50
   6  -4   4  792.52   31.00
   6  -4   4  707.93   35.10
  -6  -4  -4  757.32   35.40
   6   4   4  784.12   35.30
   6   4   4  769.62   33.20
  -6   4  -4  722.13   30.60
  -6   4  -4  761.02   39.00
  -6   4  -4  817.22   34.40
   6   4   4  740.23   37.40
   8  -4   4  414.56   19.80
  -8  -4  -4  439.86   22.70
   8  -4   4  391.56   24.80
   8  -4   4  427.36   24.60
   8   4   4  424.56   26.10
   8   4   4  397.06   23.60
  -8   4  -4  392.46   22.60
  -8   4  -4  391.26   19.20
  10  -4   4  160.78   15.70
 -10  -4  -4  162.98   15.00
  10  -4   4  162.88   15.80
 -10   4  -4  142.69   10.50
  10   4   4  167.58   15.30
  10   4   4  129.19   15.30
  12  -4   4  174.18   18.50
  12  -4   4  207.18   18.60
  12   4   4  214.08   20.10
 -12   4  -4  167.88   12.70
  12   4   4  218.48   19.20
 -19  -5   4   61.19    8.00
  19  -5  -4   40.80   11.20
  19   5  -4   55.49    8.10
  19   5  -4   33.10   10.30
 -19   5   4   54.79    8.30
 -17  -5   4   46.60    6.30
  17  -5  -4   60.79   10.60
 -17  -5   4   35.00   11.60
  17  -5  -4   40.90    8.80
 -17   5   4   32.40    7.20
 -17   5   4   42.10    6.80
  17   5  -4   50.09    7.20
  17   5  -4   31.30    8.20
  15  -5  -4   27.20    6.30
  15  -5  -4   16.40    6.00
 -15  -5   4   10.70    7.20
 -15   5   4   11.20    4.40
 -15   5   4   15.90    4.40
  15   5  -4   15.10    6.00
  15   5  -4   30.80    5.50
 -15   5   4   17.20    3.90
  13  -5  -4  237.78   15.80
  13  -5  -4  266.37   15.70
 -13  -5   4  216.28   18.00
  13   5  -4  226.38   13.40
  13   5  -4  201.98   16.00
 -13   5   4  237.48   14.00
 -13   5   4  232.58   13.10
 -13   5   4  257.07   16.00
  13   5  -4  252.67   14.30
 -13   5   4  237.18   14.20
 -11  -5   4  131.79    9.40
 -11  -5   4  137.09   10.50
  11  -5  -4  142.99   11.00
  11  -5  -4  118.79   10.00
 -11  -5   4  121.39   12.30
  11  -5  -4  128.89    9.50
  11   5  -4  125.39    8.70
  11   5  -4  104.89    8.30
 -11   5   4  134.09    8.80
  11   5  -4  134.39   11.40
 -11   5   4  144.09   10.40
 -11   5   4  124.49    9.00
 -11   5   4  136.39    9.00
   9  -5  -4  193.78   11.20
  -9  -5   4  185.28   13.80
  -9  -5   4  178.38   11.20
  -9  -5   4  197.18   12.60
   9  -5  -4  212.18   14.10
  -9   5   4  200.58   11.10
  -9   5   4  186.08   10.40
  -9   5   4  192.68   11.30
   9   5  -4  170.68   10.50
  -9   5   4  165.68   10.60
   9   5  -4  180.58   12.60
   9   5  -4  180.58   10.00
  -7  -5   4  889.31   37.10
  -7  -5   4  883.01   35.40
   7  -5  -4  885.31   38.30
  -7  -5   4  844.02   34.80
   7  -5  -4  693.93   34.90
  -7   5   4  828.72   32.40
  -7   5   4  818.12   34.00
  -7   5   4  777.52   34.30
  -7   5   4  843.92   32.90
   7   5  -4  861.11   32.20
   7   5  -4  801.52   35.20
   7   5  -4  787.02   33.40
  -5  -5   4  142.39    9.50
  -5  -5   4  151.38   10.00
   5  -5  -4  166.28   13.00
  -5  -5   4  144.59   10.50
  -5  -5   4  141.39    9.10
   5  -5  -4  150.58    8.80
   5  -5  -4  151.68    8.50
  -5   5   4  158.38    7.70
   5   5  -4  141.09    9.30
  -5   5   4  130.89    8.90
   5   5  -4  135.89    8.80
  -5   5   4  137.89   10.20
   5   5  -4  139.89    7.40
  -3  -5   4  157.58   10.40
  -3  -5   4  183.48   11.80
  -3  -5   4  174.58   10.60
   3  -5  -4  191.58   14.10
   3  -5  -4  164.58   10.10
  -3  -5   4  154.58    9.60
   3  -5  -4  176.08    9.50
  -3   5   4  159.38   12.10
   3   5  -4  169.38   10.00
   3   5  -4  157.18    7.80
   3   5  -4  166.38   10.30
   1  -5  -4  393.76   18.70
   1  -5  -4  394.16   22.10
  -1  -5   4  366.06   18.60
  -1  -5   4  355.46   17.30
  -1  -5   4  375.36   20.00
   1   5  -4  373.46   17.30
   1   5  -4  391.06   18.80
   1   5  -4  363.36   17.80
  -1   5   4  348.17   20.70
  -1   5   4  347.77   17.20
   1   5  -4  366.66   15.20
  -1  -5  -4   65.69    7.50
  -1  -5  -4   69.69    9.10
   1  -5   4   72.19    6.30
   1  -5   4   71.39    4.70
   1  -5   4   72.09    7.20
   1  -5   4   64.79    7.80
   1   5   4   60.29    8.00
  -1   5  -4   61.89    4.50
   1   5   4   61.89    6.10
  -1   5  -4   65.39    7.20
  -1   5  -4   59.19    6.00
  -1   5  -4   68.69    6.40
  -3  -5  -4  168.88    7.90
   3  -5   4  145.89   12.60
  -3  -5  -4  170.18   12.70
   3  -5   4  173.88   11.00
   3  -5   4  169.38   12.30
   3  -5   4  159.48    8.60
  -3   5  -4  146.89   10.60
  -3   5  -4  147.09   10.50
   3   5   4  154.88   11.20
   3   5   4  172.88   10.90
  -3   5  -4  166.88    8.80
   3   5   4  137.19   12.90
  -3   5  -4  163.48   12.00
   5  -5   4   54.29    5.20
  -5  -5  -4   56.39    5.80
   5  -5   4   50.19    8.00
  -5  -5  -4   74.29   10.00
   5  -5   4   46.50    7.30
   5  -5   4   35.30    7.70
   5   5   4   35.90    6.80
   5   5   4   51.09    7.30
  -5   5  -4   42.00    6.30
   5   5   4   49.99    9.00
  -5   5  -4   41.70    4.60
  -5   5  -4   32.70    7.20
   7  -5   4   19.80    5.90
   7  -5   4   16.80    6.40
   7  -5   4   20.50    4.30
  -7  -5  -4   21.60    5.60
  -7   5  -4   18.70    5.20
  -7   5  -4   19.60    3.70
   7   5   4   23.70    7.30
   7   5   4   26.60    6.10
  -9  -5  -4   45.40    8.50
   9  -5   4   50.19    9.50
   9  -5   4   38.60    9.30
  -9   5  -4   47.00    6.40
   9   5   4   49.30    9.80
   9   5   4   42.40    8.60
  11  -5   4   48.80   11.10
 -11  -5  -4   60.29   11.30
  11  -5   4   54.09   10.70
 -11   5  -4   43.40    6.50
  11   5   4   48.30   10.90
  11   5   4   38.50    9.00
  13  -5   4   62.19   13.40
  13  -5   4   46.00   11.40
 -13   5  -4   47.20    7.70
  13   5   4   24.60   11.60
  13   5   4   53.99   11.50
  18  -6  -4  342.87   26.80
 -18   6   4  362.56   21.30
  18   6  -4  399.46   27.50
  18   6  -4  418.46   21.70
 -16  -6   4  594.84   35.10
  16  -6  -4  536.25   31.40
  16   6  -4  585.74   27.30
  16   6  -4  600.84   33.10
 -16   6   4  554.74   26.90
 -16   6   4  557.44   28.70
 -16   6   4  570.84   27.90
 -14  -6   4 1192.58   54.89
  14  -6  -4 1107.89   51.49
 -14  -6   4 1138.59   48.50
  14  -6  -4 1219.88   51.29
 -14   6   4 1168.18   47.80
 -14   6   4 1190.78   49.00
  14   6  -4 1227.48   53.49
  14   6  -4 1168.98   48.10
 -14   6   4 1166.48   48.80
  12  -6  -4 1744.43   68.79
  12  -6  -4 1704.53   68.89
 -12  -6   4 1691.83   65.99
 -12  -6   4 1685.93   71.59
 -12  -6   4 1782.22   68.29
 -12   6   4 1667.03   65.59
 -12   6   4 1675.33   65.69
 -12   6   4 1627.34   65.99
 -12   6   4 1778.52   67.69
  12   6  -4 1670.83   69.69
  12   6  -4 1577.24   65.39
  12   6  -4 1670.63   65.69
 -10  -6   4  988.10   43.20
  10  -6  -4 1011.80   42.60
 -10  -6   4 1094.59   46.40
  10  -6  -4 1018.20   41.80
 -10  -6   4  993.00   41.40
  10  -6  -4 1065.79   45.40
  10   6  -4  841.82   40.30
 -10   6   4  876.31   40.60
  10   6  -4 1039.40   40.40
 -10   6   4 1023.90   41.50
 -10   6   4  986.70   41.00
 -10   6   4 1025.30   40.40
  10   6  -4 1026.60   44.10
  -8  -6   4  600.24   29.10
  -8  -6   4  559.14   25.80
   8  -6  -4  598.04   29.90
  -8  -6   4  561.54   27.40
   8  -6  -4  537.55   25.80
  -8   6   4  588.94   24.30
  -8   6   4  565.44   24.80
  -8   6   4  560.14   26.00
   8   6  -4  595.84   24.30
  -8   6   4  544.65   25.40
   8   6  -4  570.94   27.20
   8   6  -4  523.35   25.30
  -6  -6   4 1592.34   62.89
  -6  -6   4 1618.34   62.59
  -6  -6   4 1599.34   62.49
   6  -6  -4 1604.94   60.49
  -6  -6   4 1619.94   64.39
   6  -6  -4 1684.63   67.39
   6   6  -4 1641.44   59.49
   6   6  -4 1506.25   61.49
  -6   6   4 1565.94   61.69
  -6   6   4 1614.24   59.19
  -6   6   4 1451.45   62.39
  -4  -6   4 2132.79   82.19
  -4  -6   4 2129.19   81.29
   4  -6  -4 2143.99   80.69
   4  -6  -4 2291.27   87.49
  -4  -6   4 2017.30   82.29
  -4  -6   4 2173.38   82.49
   4   6  -4 2182.38   78.39
  -4   6   4 1998.00   83.09
  -4   6   4 2022.20   81.09
   4   6  -4 2057.99   80.99
   4   6  -4 2162.58   80.99
  -4   6   4 2367.16   76.89
   2  -6  -4 2366.06   86.49
   2  -6  -4 2452.65   92.39
  -2  -6   4 2327.87   86.09
  -2  -6   4 2202.48   88.09
  -2  -6   4 2311.77   87.39
  -2  -6   4 2411.86   85.79
   2   6  -4 2313.67   86.09
   2   6  -4 1928.21   82.19
   2   6  -4 2272.67   85.99
  -2   6   4 2153.18   89.09
   0  -6   4 2274.67   82.89
   0  -6  -4 2371.66   84.79
   0  -6   4 2192.18   84.59
   0  -6   4 2091.29   85.99
   0   6  -4 2092.49   79.59
   0   6  -4 2207.38   83.59
   0   6   4 2124.59   82.59
   0   6  -4 2130.39   81.89
   0   6   4 2110.09   87.29
   0   6  -4 2211.88   83.39
  -2  -6  -4  949.11   42.00
   2  -6   4 1004.40   40.30
   2  -6   4  886.71   43.70
  -2  -6  -4 1029.90   46.40
   2  -6   4  964.10   42.10
  -2   6  -4  901.81   37.00
  -2   6  -4  957.90   41.30
   2   6   4  944.11   40.70
  -2   6  -4  971.60   40.90
  -2   6  -4  951.70   39.70
   2   6   4  958.90   44.90
   4  -6   4  990.30   49.20
   4  -6   4 1092.59   47.80
   4  -6   4 1106.29   42.10
  -4   6  -4 1049.49   45.70
  -4   6  -4 1122.39   42.40
   4   6   4 1056.29   50.09
   4   6   4 1088.79   46.70
  -4   6  -4 1120.19   45.40
  -6  -6  -4 1237.68   47.50
   6  -6   4 1263.57   48.20
   6  -6   4 1204.78   54.29
   6  -6   4 1143.89   55.89
   6   6   4 1228.68   56.99
   6   6   4 1285.27   53.69
  -6   6  -4 1233.68   48.30
  -6   6  -4 1204.68   51.29
   8  -6   4  487.15   29.80
   8  -6   4  538.65   32.10
  -8  -6  -4  549.25   25.20
   8   6   4  512.15   32.10
   8   6   4  546.85   29.60
  -8   6  -4  514.15   24.10
  10  -6   4  409.56   28.70
 -10  -6  -4  444.66   23.80
  10  -6   4  418.36   28.30
  10   6   4  394.16   28.60
  10   6   4  406.86   26.80
 -10   6  -4  419.46   21.30
  12  -6   4  168.58   19.70
  12  -6   4  220.68   22.40
  12   6   4  209.88   22.60
 -12   6  -4  190.68   13.80
  12   6   4  209.48   20.10
  17  -7  -4  242.78   22.30
 -17  -7   4  233.18   15.80
 -17   7   4  232.98   16.00
 -17   7   4  238.18   16.60
  17   7  -4  226.58   21.40
  17   7  -4  268.07   16.80
 -15  -7   4  501.65   25.20
  15  -7  -4  465.45   29.30
 -15  -7   4  504.25   33.30
 -15   7   4  538.35   26.50
  15   7  -4  517.55   30.30
 -15   7   4  499.65   25.20
  15   7  -4  549.35   25.90
 -15   7   4  487.05   25.80
  13  -7  -4  626.64   33.60
 -13  -7   4  685.03   30.90
 -13  -7   4  676.53   37.00
 -13  -7   4  714.83   33.90
 -13   7   4  661.53   30.70
  13   7  -4  684.43   34.70
 -13   7   4  631.94   30.80
 -13   7   4  658.43   30.70
  13   7  -4  684.53   31.10
 -11  -7   4 1018.20   47.20
  11  -7  -4 1017.60   46.60
 -11  -7   4  995.30   44.20
  11  -7  -4  946.01   43.30
 -11  -7   4  929.21   40.70
 -11   7   4 1037.30   40.60
  11   7  -4 1032.50   44.80
 -11   7   4  871.71   40.70
 -11   7   4  960.70   41.40
 -11   7   4  979.60   41.70
  11   7  -4  901.31   41.00
  11   7  -4  998.70   40.90
  -9  -7   4 1660.63   67.39
  -9  -7   4 1676.43   68.99
   9  -7  -4 1605.84   65.59
   9  -7  -4 1704.13   69.99
  -9  -7   4 1573.34   64.29
   9   7  -4 1812.82   63.79
  -9   7   4 1597.34   64.49
  -9   7   4 1583.64   64.89
  -9   7   4 1621.24   63.39
   9   7  -4 1477.15   64.19
  -9   7   4 1636.54   62.79
   9   7  -4 1720.33   67.09
   7  -7  -4 2722.93  103.39
  -7  -7   4 2628.84  100.49
  -7  -7   4 2609.54   97.99
   7  -7  -4 2715.63  100.09
  -7  -7   4 2571.84   97.29
   7  -7  -4 2540.65   97.49
  -7  -7   4 2598.04   99.59
  -7   7   4 2520.05   94.49
  -7   7   4 2136.49   95.89
  -7   7   4 2449.75   97.79
   7   7  -4 2377.56   96.89
   7   7  -4 2752.22   95.19
  -7   7   4 2743.33   94.69
  -5  -7   4 2470.75   93.79
   5  -7  -4 2379.16   92.29
  -5  -7   4 2479.85   94.99
   5  -7  -4 2580.84   99.39
   5  -7  -4 2431.36   91.89
  -5  -7   4 2331.67   93.49
  -5  -7   4 2512.55   93.99
  -5   7   4 2318.57   93.99
   5   7  -4 2547.65   92.19
   5   7  -4 2384.86   92.69
  -5   7   4 2504.65   88.29
  -5   7   4 2325.87   92.49
   3  -7  -4 1191.18   51.49
   3  -7  -4 1044.60   44.20
  -3  -7   4 1092.79   45.90
  -3  -7   4 1057.89   45.10
  -3  -7   4 1133.69   46.80
  -3  -7   4 1054.59   46.30
   3  -7  -4 1079.59   45.10
  -3   7   4 1054.29   47.20
   3   7  -4 1111.99   44.60
   3   7  -4 1025.60   41.60
   3   7  -4 1086.79   45.20
  -3   7   4 1063.99   45.00
  -1  -7   4 1129.69   47.40
   1  -7  -4 1102.29   45.90
  -1  -7   4 1128.39   49.00
  -1  -7   4 1196.08   47.60
   1  -7  -4 1173.58   48.60
  -1  -7   4 1112.29   50.19
   1  -7  -4 1148.59   53.29
   1   7  -4 1139.29   47.80
  -1   7   4 1164.38   50.99
   1   7  -4 1208.88   47.70
   1   7  -4 1119.09   44.00
   1  -7   4  856.11   39.80
   1  -7   4  847.52   41.20
   1   7   4  890.91   37.80
   1   7   4  889.91   42.50
  -1   7  -4  829.22   37.90
  -1   7  -4  895.51   38.30
  -1   7  -4  869.61   36.80
  -1   7  -4  869.21   34.60
   3  -7   4  496.25   26.40
   3  -7   4  443.06   27.10
  -3   7  -4  476.25   24.40
   3   7   4  445.86   23.90
  -3   7  -4  465.05   23.10
   3   7   4  491.65   28.40
  -3   7  -4  456.75   20.70
   5  -7   4  774.52   38.60
   5  -7   4  786.92   32.30
   5  -7   4  739.43   40.10
  -5   7  -4  790.72   32.70
  -5   7  -4  746.23   36.20
  -5   7  -4  787.02   36.00
   5   7   4  771.42   40.70
   5   7   4  818.12   37.40
  -7  -7  -4  340.07   14.50
   7  -7   4  351.16   23.80
   7  -7   4  304.37   23.80
  -7  -7  -4  375.56   16.50
   7   7   4  338.07   25.10
   7   7   4  331.47   22.10
  -7   7  -4  344.57   17.80
   9  -7   4  108.69   16.90
   9  -7   4  108.19   14.50
  -9  -7  -4  132.39   11.70
   9   7   4  144.59   15.10
  -9   7  -4  138.79   10.60
   9   7   4  114.79   17.40
  11  -7   4  240.68   23.50
  11  -7   4  250.47   24.30
  11   7   4  241.28   21.90
  11   7   4  303.67   26.00
 -11   7  -4  242.68   15.80
 -16  -8   4   -1.20    4.60
  16  -8  -4   11.80    9.60
  16   8  -4    1.70    7.40
 -16   8   4    2.70    4.80
  16   8  -4    7.20    5.30
 -16   8   4   -2.60    4.30
  14  -8  -4    9.80    7.60
 -14  -8   4    8.80    4.50
  14   8  -4   10.40    4.70
 -14   8   4    5.50    4.50
 -14   8   4   16.60    5.30
 -14   8   4    9.00    5.00
  14   8  -4   -3.00    5.80
 -12  -8   4   20.70   10.40
 -12  -8   4   23.50    5.20
  12  -8  -4   27.00    7.50
 -12  -8   4   35.90    9.40
 -12   8   4   26.50    6.20
 -12   8   4   28.70    5.40
  12   8  -4   23.30    7.00
  12   8  -4   27.30    5.90
 -12   8   4   20.90    5.50
  10  -8  -4   88.99   11.60
 -10  -8   4   99.69   13.30
 -10  -8   4   97.89    9.20
 -10  -8   4  100.49   13.00
  10   8  -4  106.69   11.30
 -10   8   4  119.49   10.30
 -10   8   4  109.99    9.00
 -10   8   4  117.59    9.90
 -10   8   4  114.79   10.00
  10   8  -4  111.99   10.10
  10   8  -4   83.19    9.40
  -8  -8   4    4.10    3.40
   8  -8  -4    3.60    3.90
  -8  -8   4    7.80    3.60
  -8  -8   4    3.40    6.20
  -8  -8   4   24.60    7.80
  -8   8   4    9.40    4.10
  -8   8   4    3.00    3.40
   8   8  -4    9.10    4.00
   8   8  -4    3.50    3.30
  -8   8   4    5.00    3.60
  -8   8   4    8.60    2.90
  -6  -8   4   48.30    7.60
  -6  -8   4   51.49    7.80
  -6  -8   4   45.50    8.50
   6  -8  -4   41.10    7.10
  -6  -8   4   57.39    9.30
  -6   8   4   48.90    7.10
  -6   8   4   39.60    4.80
   6   8  -4   55.89    6.20
   6   8  -4   48.80    7.50
  -6   8   4   43.30    7.40
  -4  -8   4  299.97   18.90
   4  -8  -4  313.27   17.90
  -4  -8   4  280.97   17.80
  -4  -8   4  287.17   18.60
  -4  -8   4  325.07   19.40
   4   8  -4  277.47   14.90
   4   8  -4  272.97   17.40
  -4   8   4  323.67   12.30
   4   8  -4  299.37   16.50
  -4   8   4  286.87   18.40
  -4   8   4  307.77   17.50
  -2  -8   4    7.80    4.60
  -2  -8   4    8.80    4.10
   2  -8  -4   13.00    4.30
  -2  -8   4   23.20    5.80
  -2   8   4    7.10    4.10
   2   8  -4   10.90    3.30
   2   8  -4   14.60    4.50
  -2   8   4    7.80    3.40
   2   8  -4   19.50    4.90
   0  -8   4    5.20    4.50
   0  -8  -4    9.50    3.60
   0  -8   4    6.80    4.10
   0  -8   4   11.80    5.00
   0   8  -4    4.20    3.70
   0   8  -4    8.90    2.80
   0   8   4    4.50    4.30
  -2  -8  -4    7.60    3.00
   2  -8   4   10.80    4.90
   2  -8   4    7.20    5.70
   2   8   4   15.10    5.90
  -2   8  -4    7.20    2.90
   2   8   4    5.50    3.60
  -2   8  -4    9.80    3.80
  -2   8  -4    2.30    4.10
   4  -8   4   -0.10    4.90
   4  -8   4    8.00    5.70
   4   8   4    8.20    6.40
  -4   8  -4    2.10    2.80
   4   8   4    6.20    4.20
  -4   8  -4    3.20    3.70
   6  -8   4    2.50    5.80
   6  -8   4   15.10    7.40
  -6   8  -4    5.40    3.30
   6   8   4   20.10    8.00
  -6   8  -4   11.80    5.10
   6   8   4   10.70    5.10
   8  -8   4   15.60    8.40
   8  -8   4   11.70    8.10
  -8  -8  -4   11.10    2.60
   8   8   4   12.20    9.00
   8   8   4   -0.20    5.10
  -8   8  -4   10.50    4.30
  10  -8   4   30.70   11.80
  10  -8   4   26.90   11.50
 -10  -8  -4   30.90    4.70
 -10   8  -4   36.00    7.00
  10   8   4   39.40    9.70
  10   8   4   19.90   11.40
 -15  -9   4  317.37   19.20
  15  -9  -4  287.37   26.30
  15   9  -4  303.07   23.40
  15   9  -4  347.27   20.60
 -15   9   4  283.27   19.70
 -15   9   4  311.47   20.40
  13  -9  -4  458.95   29.60
 -13  -9   4  423.26   23.50
 -13   9   4  439.96   25.00
 -13   9   4  444.76   24.00
  13   9  -4  470.85   25.40
 -13   9   4  452.45   24.90
  13   9  -4  528.15   28.80
 -11  -9   4  568.94   29.00
 -11  -9   4  562.84   28.00
  11  -9  -4  607.54   32.40
 -11   9   4  576.14   27.30
 -11   9   4  598.94   29.40
  11   9  -4  569.34   29.40
 -11   9   4  555.24   28.00
 -11   9   4  600.44   29.90
  11   9  -4  560.94   30.60
  -9  -9   4  458.15   24.80
   9  -9  -4  434.66   26.00
  -9  -9   4  441.56   28.80
  -9  -9   4  465.35   23.80
  -9   9   4  442.46   24.90
  -9   9   4  441.16   24.10
  -9   9   4  460.25   21.90
   9   9  -4  455.75   24.90
   9   9  -4  477.25   23.40
   7  -9  -4  869.01   41.70
  -7  -9   4  815.92   39.80
  -7  -9   4  941.21   42.10
  -7  -9   4  937.91   44.60
  -7   9   4  891.61   41.70
  -7   9   4  846.72   40.20
   7   9  -4  898.81   41.40
   7   9  -4 1011.20   38.60
  -7   9   4  947.11   36.50
  -5  -9   4  997.30   46.40
  -5  -9   4 1086.69   48.50
  -5  -9   4 1059.79   49.20
   5  -9  -4 1045.00   47.20
  -5   9   4 1090.69   48.10
  -5   9   4 1098.29   46.90
  -5   9   4 1100.79   40.30
   5   9  -4 1128.39   47.90
   5   9  -4 1033.20   43.40
  -3  -9   4  641.04   33.60
  -3  -9   4  656.63   33.00
  -3  -9   4  678.23   33.50
   3  -9  -4  608.74   31.30
  -3   9   4  638.34   31.30
  -3   9   4  663.13   33.30
   3   9  -4  643.74   28.20
   3   9  -4  655.23   32.30
  -1  -9   4  740.63   35.10
   1  -9  -4  696.83   33.00
  -1  -9   4  692.93   35.90
  -1  -9   4  680.63   36.00
   1   9  -4  716.83   30.50
  -1   9   4  698.13   36.10
   1   9  -4  736.13   35.00
   1  -9   4  864.11   39.80
   1  -9   4  815.62   42.70
   1  -9   4  820.62   42.10
  -1  -9  -4  904.71   38.20
  -1   9  -4  821.12   35.70
  -1   9  -4  882.31   40.80
   1   9   4  896.71   43.10
   3  -9   4  911.61   47.40
  -3  -9  -4  913.51   40.80
   3  -9   4  944.81   46.90
  -3   9  -4  898.91   39.50
   3   9   4 1005.90   47.60
  -3   9  -4  997.30   44.90
   3   9   4 1040.10   43.70
   5  -9   4  824.52   45.10
   5  -9   4  879.11   44.40
   5   9   4  822.52   44.00
  -5   9  -4  894.81   41.90
   5   9   4  832.52   40.20
  -5   9  -4  827.42   36.30
   7  -9   4  450.05   30.50
   7  -9   4  372.56   29.60
   7   9   4  461.65   27.30
  -7   9  -4  441.86   22.70
  -7   9  -4  442.26   26.70
   7   9   4  488.35   31.70
 -12 -10   4  367.36   21.60
  12 -10  -4  374.56   27.90
 -12 -10   4  364.76   23.00
 -12  10   4  401.96   24.20
 -12  10   4  409.66   23.60
  12  10  -4  402.36   23.80
  10 -10  -4  387.26   26.20
 -10 -10   4  395.46   22.30
 -10 -10   4  404.46   23.90
 -10  10   4  379.36   22.90
  10  10  -4  409.26   23.90
 -10  10   4  376.66   21.10
 -10  10   4  412.26   24.20
  -8 -10   4  463.05   26.50
  -8 -10   4  472.15   25.20
   8 -10  -4  430.56   27.80
  -8  10   4  481.05   22.00
   8  10  -4  457.15   26.50
  -8  10   4  497.15   26.10
  -8  10   4  489.25   27.20
   6 -10  -4  505.85   28.90
  -6 -10   4  537.55   29.20
  -6 -10   4  487.35   26.70
   6  10  -4  478.55   27.60
  -6  10   4  518.55   28.50
   6  10  -4  543.05   24.90
  -6  10   4  532.95   27.40
   6  10  -4  434.16   23.70
  -6  10   4  527.25   21.50
  -4 -10   4  418.96   24.70
   4 -10  -4  411.46   24.70
  -4 -10   4  400.16   25.60
  -4  10   4  413.66   23.70
  -4  10   4  440.06   25.30
   4  10  -4  398.26   24.20
   4  10  -4  407.16   20.80
  -2 -10   4  576.84   32.20
   2 -10  -4  488.35   28.60
  -2 -10   4  566.14   30.50
  -2  10   4  551.74   29.00
   2  10  -4  561.74   25.90
   2  10  -4  539.35   30.20
  -2  10   4  606.34   31.50
   0 -10   4  586.84   33.60
   0 -10  -4  568.14   29.60
   0 -10   4  571.54   32.90
   0  10  -4  560.74   26.60
   0  10  -4  581.24   31.50
   0  10   4  618.24   32.90
  -2 -10  -4  404.26   22.90
   2 -10   4  335.97   26.10
   2 -10   4  414.46   27.40
   2  10   4  465.55   27.70
  -2  10  -4  415.16   25.40
  -2  10  -4  409.96   20.80
   4 -10   4  316.57   25.30
  -4 -10  -4  321.77   20.10
   4 -10   4  354.46   26.80
  -4  10  -4  352.76   23.50
  -4  10  -4  327.77   18.60
   4  10   4  369.06   25.40
   6 -10   4  312.47   27.00
   6 -10   4  281.67   25.00
  -6  10  -4  306.57   22.10
   6  10   4  334.57   25.30
  -6  10  -4  306.97   18.10
   6  10   4  282.67   20.80
  -9 -11   4    2.50    5.80
  -9 -11   4    3.20    5.40
   9 -11  -4   -3.80    9.60
   9  11  -4   11.30    6.70
  -9  11   4   -5.00    5.70
  -9  11   4    4.90    5.80
  -7 -11   4   -0.60    6.60
   7 -11  -4    1.90    8.00
  -7 -11   4   12.50    6.00
  -7  11   4   10.20    6.10
   7  11  -4    3.00    5.20
  -7  11   4    7.80    5.60
   7  11  -4   -2.10    5.70
  -5 -11   4   18.40    7.90
  -5 -11   4   25.40    7.50
   5 -11  -4   22.20    9.40
  -5  11   4   22.30    6.70
   5  11  -4   21.40    5.80
   5  11  -4   27.20    8.00
  -5  11   4   34.30    8.10
   3 -11  -4   23.80    8.70
  -3 -11   4   27.00    8.00
  -3 -11   4   12.30    7.90
   3  11  -4   14.50    5.70
   3  11  -4   29.10    8.60
  -3  11   4   30.20    8.40
  -3  11   4   11.30    6.50
   1 -11  -4    7.50    7.00
  -1 -11   4   12.10    7.40
  -1 -11   4   -0.10    7.50
   1  11  -4    5.50    6.10
  -1  11   4    4.90    5.50
  -1  11   4    9.90    6.90
   1  11  -4    6.60    5.00
   1 -11   4    8.70    7.90
  -1 -11  -4   -5.80    6.30
   1 -11   4    7.80    8.30
   1  11   4    3.80    6.40
  -1  11  -4    6.90    4.90
  -1  11  -4    7.80    6.60
  -3 -11  -4   17.40    7.10
   3 -11   4   12.80    9.50
   3 -11   4    9.30    9.50
   3  11   4   10.80    6.60
  -3  11  -4    5.30    7.50
  -3  11  -4    1.20    5.10
  22   0  -5   23.00   10.30
  22   0  -5    9.60    5.70
 -22   0   5   -0.10    4.00
  20   0  -5    0.90    3.30
 -20   0   5    0.60    3.20
  20   0  -5   -0.10    6.90
 -20   0   5    0.50    7.60
  20   0  -5    3.30    4.00
  18   0  -5   -0.30    2.30
  18   0  -5    3.20    2.80
 -18   0   5    3.10    2.60
 -18   0   5   -1.10    4.90
  18   0  -5    3.40    4.90
  16   0  -5    5.30    2.00
 -16   0   5    1.80    2.20
 -16   0   5   -1.70    3.60
  16   0  -5    2.30    1.60
  16   0  -5    8.30    4.10
  16   0  -5    1.90    6.20
 -14   0   5    1.20    1.70
 -14   0   5    3.30    2.90
  14   0  -5    4.10    2.60
 -14   0   5   -6.10    3.10
  14   0  -5    0.40    2.60
  12   0  -5    4.70    2.50
  12   0  -5    1.00    1.90
 -12   0   5    0.80    1.40
 -12   0   5    3.70    2.40
 -10   0   5    3.70    1.30
  10   0  -5    8.30    2.10
  10   0  -5    6.80    2.10
 -10   0   5    2.80    1.70
  -8   0   5    3.50    1.10
  -8   0   5    3.60    1.30
   8   0  -5    5.40    1.50
  -8   0   5    4.60    0.90
   8   0  -5    2.20    1.40
  -6   0   5    4.00    1.00
   6   0  -5    4.40    1.10
  -6   0   5    3.00    0.90
   6   0  -5    5.90    1.00
  -6   0   5    1.70    1.20
  -4   0   5    2.50    0.70
   4   0  -5    0.90    1.20
  -4   0   5    4.30    0.90
  -4   0   5    3.20    1.40
   2   0  -5    0.50    1.20
  -2   0   5    2.50    0.90
   2   0  -5    2.90    1.10
  -2   0   5    1.20    1.40
  -2   0   5    2.20    1.00
   0   0  -5    4.00    2.00
   0   0   5    2.70    1.70
   0   0  -5    3.70    1.50
   0   0   5    5.00    1.40
   0   0   5    5.70    1.80
  -2   0  -5    5.40    2.80
  -2   0  -5    3.80    2.00
  -2   0  -5    1.30    1.20
   2   0   5    1.50    1.60
   2   0   5    0.10    1.90
   2   0   5    3.00    1.50
  -4   0  -5    3.40    3.50
   4   0   5    4.30    2.60
   4   0   5    0.30    2.30
  -4   0  -5    0.50    2.20
   4   0   5    4.70    2.20
  -4   0  -5    1.90    1.50
   6   0   5    0.60    2.50
  -6   0  -5    0.10    1.60
   6   0   5   -0.10    2.70
  -6   0  -5    2.10    3.30
  -6   0  -5    3.50    4.80
   6   0   5    4.00    3.00
  -8   0  -5    2.00    6.00
  -8   0  -5    1.00    2.10
   8   0   5    1.30    3.30
   8   0   5    2.30    3.30
 -10   0  -5    2.20    2.60
  10   0   5    2.60    3.90
  10   0   5    1.20    4.60
  12   0   5   -5.10    5.30
  12   0   5   -8.60    5.70
 -12   0  -5    5.00    3.60
 -21  -1   5  217.38   24.60
 -21  -1   5  188.68   13.00
  21  -1  -5  172.48   19.40
  21  -1  -5  183.08   13.10
 -21   1   5  153.38   22.20
 -21   1   5  201.98   13.70
  21   1  -5  191.38   12.20
  21   1  -5  198.98   19.90
  19  -1  -5  424.66   19.40
 -19  -1   5  471.75   26.90
  19  -1  -5  419.26   26.30
 -19  -1   5  423.66   21.20
  19   1  -5  427.16   26.60
 -19   1   5  409.46   21.70
  19   1  -5  418.86   19.10
 -19   1   5  468.35   26.20
  19   1  -5  446.66   17.80
  17  -1  -5  792.52   37.60
 -17  -1   5  762.62   33.00
 -17  -1   5  816.72   37.60
  17  -1  -5  808.62   31.10
  17   1  -5  742.33   30.30
 -17   1   5  808.32   33.80
  17   1  -5  751.72   37.50
  17   1  -5  779.42   29.30
 -17   1   5  812.82   36.70
 -15  -1   5  372.16   17.40
  15  -1  -5  394.46   18.90
 -15  -1   5  357.16   20.50
  15  -1  -5  373.06   20.40
  15  -1  -5  353.86   15.80
 -15  -1   5  358.06   20.70
  15   1  -5  394.66   18.60
 -15   1   5  363.76   20.70
 -15   1   5  365.86   19.70
 -15   1   5  373.26   17.90
  15   1  -5  338.27   20.30
 -13  -1   5 1021.80   41.50
  13  -1  -5  952.40   40.70
  13  -1  -5  921.11   36.90
  13  -1  -5 1036.80   39.50
 -13  -1   5  987.00   38.30
  13   1  -5 1058.49   39.20
 -13   1   5  979.70   41.40
 -13   1   5 1024.70   38.90
 -13   1   5  815.92   39.40
  13   1  -5  984.50   41.40
 -11  -1   5 2217.38   80.89
  11  -1  -5 2058.59   82.49
  11  -1  -5 2136.69   80.09
 -11  -1   5 2205.48   83.29
  11  -1  -5 2353.26   82.09
 -11   1   5 2313.77   81.69
 -11   1   5 2297.67   82.59
  11   1  -5 2282.37   81.49
  11   1  -5 2110.59   83.29
  -9  -1   5 1639.54   60.29
   9  -1  -5 1645.54   60.09
   9  -1  -5 1622.84   61.19
   9  -1  -5 1710.33   61.29
  -9  -1   5 1623.84   62.19
  -9   1   5 1671.43   61.09
   9   1  -5 1567.94   62.49
   9   1  -5 1679.93   60.59
  -9   1   5 1656.03   59.19
  -9   1   5 1726.43   61.19
  -7  -1   5 3730.63  125.99
   7  -1  -5 3435.46  126.39
   7  -1  -5 3578.44  127.49
  -7  -1   5 3630.44  126.39
  -7  -1   5 3581.44  129.59
  -7  -1   5 3622.64  128.19
   7   1  -5 3570.84  126.49
  -7   1   5 3463.95  128.09
   7   1  -5 3346.47  127.69
  -7   1   5 3730.73  127.39
  -7   1   5 3509.95  126.29
  -5  -1   5 2617.54  100.19
  -5  -1   5 2857.01   99.69
  -5  -1   5 2831.62   98.49
  -5  -1   5 2732.13   99.69
  -5  -1   5 2820.52  102.19
  -5   1   5 2825.72  100.99
  -5   1   5 2806.22   99.89
  -5   1   5 2826.52  101.89
  -3  -1   5 2562.04   94.99
   3  -1  -5 2718.13   91.29
  -3  -1   5 2486.45   93.29
  -3  -1   5 2550.64   91.09
  -3  -1   5 2542.15   92.79
   3  -1  -5 2546.05   93.09
   3   1  -5 2590.04   94.69
   3   1  -5 2639.64   92.39
  -3   1   5 2586.04   93.39
  -3   1   5 2578.34   91.69
  -1  -1   5 2584.64   97.99
   1  -1  -5 2438.96   95.19
  -1  -1   5 2682.33   94.19
   1  -1  -5 2727.93   96.59
  -1  -1   5 2662.13   96.39
   1   1  -5 2775.72   98.19
   1   1  -5 2636.64   95.79
  -1   1   5 2550.44   96.29
  -1   1   5 2723.93   95.49
  -1   1   5 2709.93   95.89
   1  -1   5  545.55   23.80
   1  -1   5  563.14   21.50
   1  -1   5  529.25   24.80
  -1  -1  -5  530.65   23.00
  -1  -1  -5  553.74   24.00
   1   1   5  552.34   23.40
  -1   1  -5  556.44   23.20
  -1   1  -5  529.75   21.30
   1   1   5  550.54   22.20
   1   1   5  521.05   23.40
  -1   1  -5  581.64   25.40
   3  -1   5 1279.47   52.49
   3  -1   5 1258.07   53.19
  -3  -1  -5 1345.27   51.99
  -3  -1  -5 1396.96   53.29
   3  -1   5 1328.67   52.19
   3  -1   5 1374.66   49.70
  -3   1  -5 1368.66   52.09
   3   1   5 1345.27   51.69
   3   1   5 1307.07   50.19
  -3   1  -5 1370.96   54.19
   3   1   5 1256.47   52.19
  -3   1  -5 1218.88   49.20
   5  -1   5 1131.49   49.00
  -5  -1  -5 1120.39   45.40
  -5  -1  -5 1170.98   48.20
   5  -1   5 1157.38   49.20
  -5  -1  -5 1236.78   49.90
   5  -1   5 1186.88   45.60
   5  -1   5 1178.28   48.00
  -5   1  -5 1255.47   50.89
  -5   1  -5 1199.38   48.20
   5   1   5 1169.58   47.50
   5   1   5 1117.99   48.70
   5   1   5 1216.38   46.30
  -5   1  -5 1127.69   45.00
   7  -1   5  368.86   21.00
   7  -1   5  379.36   18.00
   7  -1   5  318.57   20.50
  -7  -1  -5  349.07   17.30
  -7  -1  -5  386.36   22.00
  -7   1  -5  382.86   22.60
   7   1   5  340.77   20.90
   7   1   5  361.56   18.40
  -7   1  -5  353.46   17.10
   7   1   5  360.06   19.50
  -7   1  -5  363.36   20.60
  -9  -1  -5  312.37   16.90
   9  -1   5  345.37   20.90
   9  -1   5  327.67   21.40
   9   1   5  339.97   19.50
   9   1   5  320.77   21.20
  -9   1  -5  328.97   16.80
  11  -1   5  187.18   16.00
 -11  -1  -5  189.68   12.70
  11  -1   5  199.18   17.60
  11   1   5  193.28   17.40
  11   1   5  177.08   14.50
 -11   1  -5  186.58   12.40
  13  -1   5  132.19   15.10
 -13  -1  -5  128.19   11.00
  13  -1   5  121.79   17.00
 -13   1  -5  126.09   11.00
  13   1   5  122.99   17.00
  22  -2  -5  104.29   16.10
 -22  -2   5  157.08   12.50
  22   2  -5  176.08   20.70
 -22   2   5  170.88   13.50
  20  -2  -5  491.35   22.70
 -20  -2   5  446.96   22.40
 -20  -2   5  437.26   29.30
  20  -2  -5  433.06   28.40
  20   2  -5  477.85   29.40
  20   2  -5  428.26   20.20
 -20   2   5  450.05   23.30
 -20   2   5  472.55   27.50
  18  -2  -5  591.44   26.60
  18  -2  -5  636.64   32.70
 -18  -2   5  653.93   33.30
 -18  -2   5  606.54   27.50
  18   2  -5  630.64   33.20
  18   2  -5  563.44   24.80
  18   2  -5  618.14   23.60
 -18   2   5  635.54   28.60
 -18   2   5  643.24   31.10
 -16  -2   5  462.35   21.00
  16  -2  -5  454.55   20.60
 -16  -2   5  479.65   25.80
  16  -2  -5  497.65   25.30
 -16   2   5  467.65   22.00
  16   2  -5  485.45   17.60
 -16   2   5  467.75   23.80
  16   2  -5  462.95   25.30
  16   2  -5  454.15   22.40
  16   2  -5  395.86   18.10
  14  -2  -5 1286.37   53.69
  14  -2  -5 1276.77   50.49
 -14  -2   5 1321.37   54.69
  14  -2  -5 1372.16   52.29
 -14  -2   5 1286.67   50.39
 -14   2   5 1390.76   54.59
 -14   2   5 1309.57   51.59
  14   2  -5 1309.27   54.69
  14   2  -5 1320.17   51.49
 -14   2   5 1333.27   52.89
  12  -2  -5 2108.69   84.99
 -12  -2   5 2445.66   88.29
  12  -2  -5 2404.86   85.79
 -12  -2   5 2289.97   84.09
  12   2  -5 2313.27   87.89
 -12   2   5 2299.27   85.79
  12   2  -5 2344.17   84.89
 -12   2   5 2345.37   87.29
 -12   2   5 2187.18   85.09
 -12   2   5 2303.27   82.99
 -10  -2   5 2218.48   82.59
  10  -2  -5 2262.07   80.69
  10  -2  -5 2043.10   80.89
  10  -2  -5 2176.28   80.79
 -10  -2   5 2169.08   79.19
 -10   2   5 2163.98   81.59
  10   2  -5 2188.38   82.49
 -10   2   5 2240.18   80.29
  10   2  -5 2193.98   79.59
 -10   2   5 2168.98   78.69
 -10   2   5 2216.98   80.59
  -8  -2   5 1367.26   52.19
  -8  -2   5 1368.36   48.90
   8  -2  -5 1401.06   51.79
   8  -2  -5 1321.67   50.49
   8  -2  -5 1336.27   49.70
  -8  -2   5 1343.67   48.90
  -8  -2   5 1409.46   52.59
  -8   2   5 1334.37   49.30
  -8   2   5 1308.77   50.39
  -8   2   5 1275.47   50.19
   8   2  -5 1363.46   49.20
  -6  -2   5 1145.39   45.80
  -6  -2   5 1265.57   43.80
   6  -2  -5 1197.68   46.50
   6  -2  -5 1117.59   42.70
  -6  -2   5 1215.38   42.60
  -6  -2   5 1257.47   44.80
   6  -2  -5 1233.78   42.70
  -6   2   5 1217.08   44.90
  -6   2   5 1122.39   46.50
   6   2  -5 1187.58   42.70
  -6   2   5 1168.78   42.60
  -4  -2   5 2820.62  100.79
  -4  -2   5 2663.33  100.59
  -4  -2   5 2854.41  100.49
  -4   2   5 2923.31  100.19
   4   2  -5 2672.73  102.39
  -4   2   5 2803.52  103.49
  -2  -2   5 2564.64   96.89
  -2  -2   5 2520.35   94.49
  -2  -2   5 2492.95   94.69
  -2  -2   5 2730.63   91.69
   2  -2  -5 2534.65   93.19
   2  -2  -5 2817.22   93.49
  -2   2   5 2517.45   97.39
   2   2  -5 2596.84   94.09
   2   2  -5 2649.43   96.49
  -2   2   5 2578.84   93.49
  -2   2   5 2584.94   93.49
   0  -2   5 2405.06   89.29
   0  -2   5 2456.15   91.89
   0  -2  -5 2417.46   88.09
   0  -2   5 2342.57   89.49
   0  -2  -5 2423.96   88.59
   0  -2   5 2477.95   86.59
   0   2  -5 2336.17   86.49
   0   2  -5 2594.24   91.59
   0   2   5 2363.96   87.89
   0   2   5 2346.67   92.29
   0   2  -5 2451.25   88.89
   0   2   5 2474.65   88.49
   0   2   5 2404.16   88.89
   2  -2   5 1665.43   60.19
   2  -2   5 1508.85   64.99
  -2  -2  -5 1614.74   62.69
  -2  -2  -5 1678.53   62.59
   2  -2   5 1609.34   63.49
   2  -2   5 1641.24   62.89
  -2   2  -5 1568.84   59.99
   2   2   5 1676.33   61.59
   2   2   5 1716.73   61.79
  -2   2  -5 1660.03   62.79
   2   2   5 1578.14   62.99
  -2   2  -5 1772.32   65.59
   4  -2   5  889.71   36.20
   4  -2   5  864.91   33.50
   4  -2   5  853.41   37.30
  -4  -2  -5  888.81   36.60
   4  -2   5  781.72   37.70
  -4  -2  -5  876.61   36.70
  -4   2  -5  861.01   36.10
   4   2   5  785.12   34.40
  -4   2  -5  924.71   39.00
   4   2   5  850.21   36.90
  -4   2  -5  811.62   33.10
   4   2   5  827.22   34.50
   6  -2   5  885.51   42.00
  -6  -2  -5  953.40   41.50
   6  -2   5  958.70   40.60
   6  -2   5  980.30   38.00
  -6  -2  -5  944.51   41.30
   6  -2   5  869.61   41.60
  -6   2  -5  959.30   40.90
   6   2   5  910.81   38.90
  -6   2  -5 1093.69   44.20
   6   2   5  932.81   41.80
   6   2   5  940.31   38.90
  -6   2  -5  893.01   37.20
   8  -2   5  569.74   30.70
  -8  -2  -5  600.44   30.50
   8  -2   5  560.34   30.70
   8  -2   5  635.64   26.90
   8   2   5  613.74   27.90
   8   2   5  558.94   30.40
  -8   2  -5  571.64   25.70
  10  -2   5  398.66   24.70
  10  -2   5  400.96   25.40
  10   2   5  411.96   25.20
 -10   2  -5  377.96   19.50
  12  -2   5  197.98   18.00
  12  -2   5  194.58   19.20
  12   2   5  167.38   18.00
 -12   2  -5  186.78   12.90
  12   2   5  173.58   19.00
 -21  -3   5    5.30    3.90
  21  -3  -5   -4.70    8.60
  21   3  -5    7.30    4.40
  21   3  -5   -3.90    8.80
 -21   3   5   -1.80    4.20
  19  -3  -5    4.60    5.70
  19  -3  -5   -8.50    5.80
 -19  -3   5    3.80    8.40
 -19  -3   5    0.80    3.00
  19   3  -5   -1.10    6.60
  19   3  -5    0.10    3.20
 -19   3   5    2.70    3.50
 -19   3   5   -1.10    5.90
  19   3  -5    0.90    2.60
 -17  -3   5   77.19   11.80
 -17  -3   5   77.19    6.90
  17  -3  -5   65.69   10.10
  17  -3  -5   78.49    8.60
 -17   3   5   71.19    7.30
  17   3  -5   80.49    5.20
  17   3  -5   63.69    5.80
  17   3  -5   67.89    9.90
 -17   3   5   85.19   10.00
  15  -3  -5  117.29   10.90
 -15  -3   5  160.58   13.30
  15  -3  -5  143.69    9.90
 -15  -3   5  117.09    8.00
  15   3  -5  139.79    9.90
 -15   3   5  139.19   10.40
 -15   3   5  128.09    9.30
  15   3  -5  113.89   11.30
  15   3  -5  106.29    6.60
  13  -3  -5   53.39    6.70
 -13  -3   5   47.50    7.50
  13  -3  -5   52.19    5.70
 -13  -3   5   51.99    4.60
  13  -3  -5   31.60    5.60
  13   3  -5   49.40    7.40
 -13   3   5   50.79    6.70
  13   3  -5   53.89    5.60
 -13   3   5   49.30    5.60
 -13   3   5   52.79    5.50
  13   3  -5   46.00    3.50
 -13   3   5   50.09    4.30
  11  -3  -5  178.78   10.70
  11  -3  -5  168.88   11.40
  11  -3  -5  165.98   10.10
 -11  -3   5  168.58    8.80
 -11  -3   5  185.38   12.40
  11   3  -5  154.08    7.60
 -11   3   5  169.28   10.80
  11   3  -5  170.48   11.90
  11   3  -5  181.38    9.40
 -11   3   5  176.48   10.00
 -11   3   5  192.58    9.10
 -11   3   5  175.58    9.80
  -9  -3   5  168.58    8.90
  -9  -3   5  168.28   11.20
  -9  -3   5  157.08    7.60
   9  -3  -5  149.79   10.70
   9  -3  -5  171.08    9.10
   9  -3  -5  169.18    9.40
  -9  -3   5  160.88   10.20
   9   3  -5  163.38   10.60
   9   3  -5  158.58    8.00
  -9   3   5  166.28    9.30
  -9   3   5  175.38    9.70
  -9   3   5  155.78    8.60
  -9   3   5  166.28    8.40
   9   3  -5  163.78    7.60
  -7  -3   5  406.76   19.40
   7  -3  -5  406.96   16.50
   7  -3  -5  411.76   20.10
  -7  -3   5  402.96   16.60
  -7   3   5  409.86   17.20
  -7   3   5  411.16   16.00
   7   3  -5  411.96   15.70
   7   3  -5  409.86   16.60
  -7   3   5  339.97   18.10
   7   3  -5  413.36   18.50
  -7   3   5  412.46   17.80
   5  -3  -5 1259.27   49.90
  -5  -3   5 1220.48   47.70
  -5  -3   5 1238.38   47.00
  -5  -3   5 1157.38   48.60
   5  -3  -5 1207.38   44.80
   5  -3  -5 1127.29   45.10
  -5  -3   5 1297.17   46.10
   5   3  -5 1301.47   46.60
   5   3  -5 1317.27   48.60
  -5   3   5 1207.48   49.60
  -5   3   5 1219.28   46.90
   3  -3  -5  190.48    8.30
  -3  -3   5  188.18    9.70
  -3  -3   5  180.78   10.20
  -3  -3   5  187.38   11.70
   3  -3  -5  203.58    9.20
   3   3  -5  187.08    9.60
  -3   3   5  189.28    8.10
  -3   3   5  184.28   12.20
   3   3  -5  189.28   10.10
  -3   3   5  172.88    8.70
   3   3  -5  220.58   11.70
   1  -3  -5   71.49    3.80
  -1  -3   5   75.29    3.70
  -1  -3   5   66.79    6.90
  -1  -3   5   69.19    6.00
  -1  -3   5   78.09    5.80
   1  -3  -5   70.49    5.60
   1   3  -5   73.49    5.60
   1   3  -5   76.79    6.70
   1   3  -5   69.99    3.60
  -1   3   5   78.39    4.10
  -1   3   5   63.89    5.20
  -1   3   5   77.29    7.70
   1  -3   5  273.17   16.00
   1  -3   5  244.88   11.00
   1  -3   5  249.18   13.30
  -1  -3  -5  269.67   13.80
   1  -3   5  257.57   14.30
  -1  -3  -5  251.87   11.80
   1   3   5  235.68   15.90
  -1   3  -5  256.27   13.50
  -1   3  -5  276.17   15.60
   1   3   5  248.88   13.50
  -1   3  -5  250.97   11.10
   1   3   5  278.37   11.60
   1   3   5  275.97   13.40
  -3  -3  -5  124.09    8.70
   3  -3   5  131.69    9.10
   3  -3   5  137.59   11.30
  -3  -3  -5  116.79    9.60
   3  -3   5  133.49   10.20
   3  -3   5  125.59    7.20
   3   3   5  135.99    7.60
  -3   3  -5  135.59   10.90
   3   3   5  115.49    9.20
   3   3   5  126.49    8.70
  -3   3  -5  120.19    7.00
   3   3   5  126.29   11.50
  -3   3  -5  121.49    9.30
   5  -3   5   52.19    8.50
  -5  -3  -5   50.49    7.10
   5  -3   5   49.40    5.00
   5  -3   5   44.60    6.80
   5  -3   5   52.79    6.90
  -5  -3  -5   45.80    6.80
   5   3   5   41.60    8.20
   5   3   5   46.30    7.10
  -5   3  -5   44.80    6.30
  -5   3  -5   58.09    8.90
   5   3   5   50.59    5.20
  -5   3  -5   45.50    4.40
   5   3   5   58.19    7.00
   7  -3   5   22.80    6.30
   7  -3   5   15.60    5.10
  -7  -3  -5   14.20    5.90
   7  -3   5   12.50    3.90
   7   3   5   18.30    5.50
   7   3   5   11.70    5.20
  -7   3  -5   18.20    3.60
  -9  -3  -5    5.10    7.20
   9  -3   5    5.20    5.00
   9  -3   5   -4.40    4.20
   9   3   5    0.60    6.10
   9   3   5    5.50    4.40
  -9   3  -5    3.20    2.60
  11  -3   5    6.00    6.50
  11  -3   5   13.10    7.50
 -11   3  -5    9.60    3.90
  11   3   5   15.00    8.10
  11   3   5    4.20    6.20
  13  -3   5   16.20    8.70
  13  -3   5    3.80    8.60
  13   3   5    3.20    7.60
 -13   3  -5   13.80    5.10
  13   3   5   25.50   11.50
 -20  -4   5  251.37   15.80
 -20  -4   5  281.47   29.90
  20  -4  -5  300.37   20.90
  20  -4  -5  290.37   23.60
 -20   4   5  280.17   17.60
  20   4  -5  234.88   22.60
  20   4  -5  290.07   14.90
  18  -4  -5  427.86   26.50
 -18  -4   5  452.45   21.40
  18  -4  -5  477.95   24.40
 -18  -4   5  406.86   28.40
  18   4  -5  423.56   19.90
 -18   4   5  461.95   24.90
 -18   4   5  440.76   23.00
  18   4  -5  436.06   27.60
 -16  -4   5  605.04   32.60
 -16  -4   5  581.44   25.90
  16  -4  -5  638.64   28.80
  16  -4  -5  600.64   30.50
  16   4  -5  519.85   24.40
 -16   4   5  617.54   25.90
  16   4  -5  621.24   31.90
 -16   4   5  584.24   27.60
 -16   4   5  633.84   28.90
  14  -4  -5  798.02   37.30
  14  -4  -5  834.42   36.70
 -14  -4   5  886.61   40.30
 -14  -4   5  837.32   33.80
 -14   4   5  849.72   35.80
 -14   4   5  883.11   37.70
  14   4  -5  791.02   38.50
 -14   4   5  880.81   35.90
 -14   4   5  793.32   33.50
  14   4  -5  833.92   35.00
 -12  -4   5  835.72   33.10
  12  -4  -5  890.51   35.50
  12  -4  -5  866.91   37.50
 -12  -4   5  883.01   39.00
 -12   4   5  811.62   33.50
 -12   4   5  828.92   34.60
  12   4  -5  846.82   34.00
  12   4  -5  832.92   37.90
 -12   4   5  830.22   35.00
  12   4  -5  776.42   32.60
 -12   4   5  898.01   36.50
  10  -4  -5 1071.99   42.60
 -10  -4   5 1108.79   42.70
 -10  -4   5 1065.19   45.70
  10  -4  -5 1104.09   45.90
  10  -4  -5 1062.79   42.70
 -10  -4   5 1039.10   43.50
  10   4  -5 1123.19   41.10
 -10   4   5 1051.89   42.60
 -10   4   5 1115.29   43.10
  10   4  -5 1019.70   40.60
 -10   4   5 1100.59   41.60
 -10   4   5 1013.80   41.50
  10   4  -5 1069.79   44.80
   8  -4  -5 1314.27   53.99
  -8  -4   5 1307.07   51.59
  -8  -4   5 1294.07   49.80
  -8  -4   5 1397.86   53.19
   8  -4  -5 1294.77   49.30
   8   4  -5 1294.57   47.90
  -8   4   5 1241.98   50.39
  -8   4   5 1288.67   49.50
  -8   4   5 1263.97   50.09
   8   4  -5 1240.08   51.29
  -8   4   5 1329.97   48.40
   8   4  -5 1323.17   48.90
  -6  -4   5  567.04   22.40
   6  -4  -5  538.25   21.60
   6  -4  -5  543.05   21.70
  -6  -4   5  530.65   23.30
   6  -4  -5  541.85   26.70
  -6  -4   5  498.85   24.30
  -6  -4   5  552.04   24.70
  -6   4   5  501.05   24.60
  -6   4   5  522.45   23.10
  -6   4   5  538.55   21.40
   6   4  -5  537.85   22.30
   6   4  -5  539.35   20.20
  -4  -4   5 1240.68   46.60
   4  -4  -5 1268.97   51.69
  -4  -4   5 1183.08   49.30
   4  -4  -5 1200.38   45.40
  -4  -4   5 1365.46   48.20
  -4  -4   5 1201.58   47.80
   4  -4  -5 1226.08   46.40
   4   4  -5 1193.78   43.70
  -4   4   5 1184.48   44.00
   4   4  -5 1180.58   43.70
  -4   4   5 1184.98   43.90
  -4   4   5 1165.18   50.49
   4   4  -5 1236.08   47.10
   4   4  -5 1273.57   48.80
  -2  -4   5 2505.15   95.29
  -2  -4   5 2491.85   97.29
  -2  -4   5 2650.23   94.19
   2  -4  -5 2667.33   94.29
   2  -4  -5 2722.43   99.39
   2   4  -5 2694.73   96.39
  -2   4   5 2420.16   98.39
   2   4  -5 2616.44   90.89
   2   4  -5 2574.94   94.79
  -2   4   5 2326.97   93.29
   2   4  -5 2486.35   93.79
   0  -4   5  712.53   31.00
   0  -4  -5  719.33   30.30
   0  -4   5  701.23   26.70
   0  -4   5  738.43   29.90
   0  -4   5  656.33   32.60
   0   4  -5  779.12   32.20
   0   4  -5  692.83   29.50
   0   4  -5  690.63   26.80
   0   4   5  677.33   29.70
   0   4  -5  708.23   30.40
   0   4   5  725.73   33.90
   2  -4   5  618.04   31.20
   2  -4   5  622.64   29.20
   2  -4   5  628.14   24.90
   2  -4   5  610.54   27.60
  -2  -4  -5  604.84   24.80
  -2  -4  -5  641.34   28.70
  -2   4  -5  655.33   28.00
  -2   4  -5  634.04   25.00
   2   4   5  627.24   28.30
   2   4   5  674.33   28.00
   2   4   5  619.44   31.60
  -2   4  -5  664.63   30.30
   4  -4   5 1608.84   59.69
  -4  -4  -5 1598.94   60.89
   4  -4   5 1622.44   65.19
   4  -4   5 1439.56   66.09
   4  -4   5 1627.74   62.89
  -4  -4  -5 1665.13   64.49
  -4   4  -5 1629.14   63.09
   4   4   5 1588.24   67.79
   4   4   5 1623.24   62.39
  -4   4  -5 1579.74   59.59
  -4   4  -5 1584.74   65.29
   4   4   5 1550.54   63.79
  -6  -4  -5  657.43   29.00
   6  -4   5  667.43   27.10
   6  -4   5  644.64   32.30
   6  -4   5  550.14   32.20
  -6   4  -5  627.14   32.80
   6   4   5  641.74   34.40
   6   4   5  643.84   31.30
  -6   4  -5  602.94   26.40
  -8  -4  -5  297.27   18.80
   8  -4   5  304.37   21.20
   8  -4   5  323.57   22.20
   8   4   5  279.87   19.80
   8   4   5  321.07   23.00
  -8   4  -5  306.27   15.90
 -10  -4  -5  423.86   25.50
  10  -4   5  355.16   25.90
  10  -4   5  442.56   27.90
  10   4   5  400.96   25.90
 -10   4  -5  391.46   20.20
  10   4   5  432.46   29.10
  12  -4   5  164.98   18.40
  12  -4   5  170.68   19.60
  12   4   5  168.58   19.70
 -12   4  -5  168.68   12.70
  12   4   5  169.28   18.40
 -19  -5   5  324.77   27.20
  19  -5  -5  300.67   22.80
 -19  -5   5  285.87   16.50
  19  -5  -5  312.77   23.70
  19   5  -5  280.87   15.60
 -19   5   5  288.37   20.40
 -19   5   5  294.97   18.40
  19   5  -5  269.77   23.20
 -17  -5   5  292.87   23.00
 -17  -5   5  284.27   15.00
  17  -5  -5  232.38   19.00
  17  -5  -5  271.57   19.30
  17   5  -5  263.97   20.50
 -17   5   5  285.97   16.80
 -17   5   5  293.27   17.90
 -17   5   5  269.57   15.00
  17   5  -5  245.28   14.10
 -15  -5   5  772.92   38.20
  15  -5  -5  684.33   34.50
  15  -5  -5  783.42   34.80
 -15   5   5  739.73   30.70
  15   5  -5  603.14   29.20
  15   5  -5  725.13   36.10
 -15   5   5  724.53   32.30
  15   5  -5  741.83   32.20
 -15   5   5  699.33   32.10
  13  -5  -5 1112.59   46.00
 -13  -5   5 1005.10   43.20
  13  -5  -5 1018.80   44.10
 -13  -5   5 1057.89   47.60
  13   5  -5 1019.50   46.00
 -13   5   5 1047.10   42.20
  13   5  -5 1101.19   42.10
 -13   5   5 1028.00   41.30
 -13   5   5 1010.50   42.60
  13   5  -5  922.61   40.40
 -13   5   5 1032.50   43.80
  11  -5  -5  929.41   40.20
 -11  -5   5  981.30   40.50
 -11  -5   5  983.30   43.70
 -11  -5   5  974.80   40.20
  11  -5  -5  983.00   43.30
  11  -5  -5  993.20   39.70
 -11   5   5  958.70   39.80
  11   5  -5  948.71   42.10
 -11   5   5  931.81   38.70
  11   5  -5  980.80   38.20
 -11   5   5  925.41   39.40
 -11   5   5  988.50   38.60
  11   5  -5  929.61   38.00
  -9  -5   5 1254.37   50.09
   9  -5  -5 1325.07   54.09
  -9  -5   5 1313.57   52.99
  -9  -5   5 1253.27   50.29
   9  -5  -5 1222.68   48.90
  -9   5   5 1238.28   48.50
  -9   5   5 1261.37   49.40
  -9   5   5 1191.08   49.10
   9   5  -5 1198.28   48.00
  -9   5   5 1255.97   47.50
   9   5  -5 1223.38   50.99
   9   5  -5 1243.98   47.10
  -7  -5   5 1562.44   59.99
   7  -5  -5 1591.34   59.29
   7  -5  -5 1642.24   65.59
  -7  -5   5 1588.34   60.89
  -7  -5   5 1644.24   63.09
  -7  -5   5 1530.25   61.59
   7  -5  -5 1604.64   58.49
   7   5  -5 1594.84   57.39
  -7   5   5 1531.55   57.79
   7   5  -5 1526.15   59.39
  -7   5   5 1488.25   60.09
  -7   5   5 1449.65   61.29
  -7   5   5 1602.94   58.49
  -5  -5   5 1499.35   57.49
  -5  -5   5 1456.45   56.89
   5  -5  -5 1487.25   61.29
  -5  -5   5 1463.55   55.39
   5  -5  -5 1456.35   54.69
   5  -5  -5 1505.45   55.39
  -5  -5   5 1398.66   57.79
  -5   5   5 1420.16   56.29
   5   5  -5 1397.76   55.49
   5   5  -5 1411.46   52.69
   5   5  -5 1427.66   56.59
   5   5  -5 1428.36   52.69
  -5   5   5 1530.85   52.69
  -5   5   5 1371.06   58.49
  -3  -5   5 1680.93   69.99
   3  -5  -5 1837.92   73.19
  -3  -5   5 1873.61   67.29
  -3  -5   5 1761.62   67.79
  -3  -5   5 1725.03   68.59
   3  -5  -5 1877.41   67.79
   3  -5  -5 1732.03   65.89
   3   5  -5 1804.82   68.69
  -3   5   5 1721.43   71.59
   3   5  -5 1785.72   63.89
   3   5  -5 1714.33   67.49
  -1  -5   5 1557.64   66.19
  -1  -5   5 1696.63   62.69
   1  -5  -5 1634.34   68.19
  -1  -5   5 1652.83   64.39
   1  -5  -5 1735.53   63.69
   1   5  -5 1665.23   62.39
   1   5  -5 1644.74   64.39
  -1   5   5 1597.54   62.39
   1   5  -5 1581.34   59.19
   1   5  -5 1599.44   63.19
  -1   5   5 1570.24   67.39
   1  -5   5  878.71   37.10
   1  -5   5  896.41   34.00
  -1  -5  -5  962.50   39.00
   1  -5   5  897.81   39.10
   1  -5   5  806.32   40.40
  -1   5  -5  858.61   36.90
   1   5   5  900.81   37.80
  -1   5  -5  895.31   34.10
  -1   5  -5  902.51   38.10
  -1   5  -5  962.70   39.70
   1   5   5  863.41   41.80
   3  -5   5  753.72   32.80
  -3  -5  -5  793.62   35.00
  -3  -5  -5  723.43   28.30
   3  -5   5  706.83   34.60
   3  -5   5  730.83   29.50
   3  -5   5  696.83   36.50
  -3   5  -5  736.33   29.70
  -3   5  -5  790.82   33.20
   3   5   5  779.12   32.90
   3   5   5  758.42   37.80
   3   5   5  737.23   33.60
  -3   5  -5  749.42   35.10
   5  -5   5  586.44   24.40
  -5  -5  -5  566.84   24.70
   5  -5   5  598.94   30.30
   5  -5   5  539.25   31.10
   5   5   5  567.94   32.00
   5   5   5  565.44   28.60
  -5   5  -5  571.24   24.40
  -5   5  -5  564.44   27.80
  -7  -5  -5  354.56   18.50
   7  -5   5  338.97   23.30
   7  -5   5  330.97   22.20
   7  -5   5  336.47   17.00
   7   5   5  315.67   23.40
  -7   5  -5  309.97   16.40
   7   5   5  312.07   20.70
   9  -5   5  363.76   25.40
   9  -5   5  385.46   26.40
  -9  -5  -5  402.56   22.30
   9   5   5  350.26   24.10
   9   5   5  394.96   27.60
  -9   5  -5  354.96   18.90
  11  -5   5  318.97   25.50
  11  -5   5  341.67   26.30
  11   5   5  337.07   26.90
 -11   5  -5  285.07   17.50
  11   5   5  337.97   24.60
  18  -6  -5   12.40    8.30
 -18  -6   5   15.40   12.00
 -18   6   5   24.30    7.50
  18   6  -5   34.90   10.10
 -18   6   5   14.40    5.10
  18   6  -5   29.40    5.80
 -18   6   5   22.90    5.70
 -16  -6   5   63.39    8.10
 -16  -6   5   50.39   12.10
  16  -6  -5   55.59   10.50
  16  -6  -5   52.59    9.70
  16   6  -5   66.39    7.40
  16   6  -5   34.00    8.50
 -16   6   5   67.29    7.20
 -16   6   5   69.19    8.90
 -16   6   5   54.49    7.50
 -14  -6   5   53.89    6.90
  14  -6  -5   60.79    9.00
  14  -6  -5   75.99   11.70
 -14  -6   5   63.39   11.30
 -14   6   5   58.39    6.60
  14   6  -5   70.49    8.40
 -14   6   5   61.49    8.10
  14   6  -5   79.19   10.90
 -14   6   5   71.29    7.70
  14   6  -5   59.39    6.80
 -12  -6   5   25.40    5.30
  12  -6  -5   35.40    8.40
 -12  -6   5   25.40    6.20
 -12  -6   5   36.70    9.00
  12  -6  -5   10.00    5.50
  12   6  -5   31.30    6.80
  12   6  -5   25.90    4.90
 -12   6   5   22.30    4.20
  12   6  -5   26.40    4.60
 -12   6   5   38.10    5.90
 -12   6   5   26.30    5.80
 -12   6   5   28.30    4.80
  10  -6  -5   27.60    7.90
 -10  -6   5   32.80    7.00
 -10  -6   5   25.60    5.00
 -10  -6   5   16.00    5.40
  10  -6  -5   21.50    4.60
 -10   6   5   22.50    3.70
  10   6  -5   18.80    4.90
  10   6  -5   22.50    4.40
 -10   6   5   33.60    5.20
 -10   6   5   25.80    4.80
  10   6  -5   29.40    4.40
 -10   6   5   24.60    4.40
  -8  -6   5   70.19    7.70
  -8  -6   5   63.29    7.10
  -8  -6   5   60.99    9.10
   8  -6  -5   72.09    6.90
   8  -6  -5   73.49   11.20
   8  -6  -5   73.59    6.00
  -8  -6   5   69.69    7.00
  -8   6   5   63.69    7.00
   8   6  -5   69.49    5.50
  -8   6   5   66.99    6.70
  -8   6   5   75.39    5.60
  -8   6   5   77.49    6.10
   8   6  -5   56.99    6.20
   6  -6  -5   22.70    4.00
  -6  -6   5   22.40    5.50
  -6  -6   5   24.10    4.60
  -6  -6   5   28.70    5.20
   6  -6  -5   21.90    4.00
  -6  -6   5   26.90    5.10
   6  -6  -5   25.40    7.50
  -6   6   5   15.70    4.50
   6   6  -5   11.60    3.10
  -6   6   5   23.90    4.40
  -6   6   5   22.30    2.90
   6   6  -5   20.90    3.10
  -4  -6   5   11.40    3.10
   4  -6  -5   17.20    6.90
  -4  -6   5   20.70    4.60
   4  -6  -5   13.90    3.20
  -4  -6   5    6.20    3.20
  -4  -6   5   12.90    3.60
   4  -6  -5   18.20    4.20
   4   6  -5   16.20    4.10
   4   6  -5   10.50    2.10
  -4   6   5   13.30    4.20
  -4   6   5   13.00    3.40
   4   6  -5   13.40    3.40
   2  -6  -5   10.10    5.50
  -2  -6   5    4.40    3.00
   2  -6  -5    9.20    4.00
  -2  -6   5    9.40    3.30
  -2  -6   5    5.40    3.00
   2  -6  -5    9.90    2.80
  -2  -6   5    8.30    3.70
   2   6  -5    4.00    3.40
  -2   6   5    5.70    3.80
   2   6  -5    8.70    3.10
   2   6  -5    8.20    1.80
   0  -6  -5   12.80    4.60
   0  -6   5   19.30    4.70
   0  -6   5   14.50    5.00
   0  -6   5   14.70    4.10
   0  -6  -5   11.10    6.50
   0   6   5    6.90    4.30
   0   6  -5    6.60    2.00
   0   6  -5   10.40    3.30
   0   6  -5    8.60    4.50
   0   6   5    8.10    2.80
   0   6  -5    7.40    3.00
   2  -6   5  100.29   11.50
   2  -6   5   93.09    9.70
   2  -6   5   98.59    6.40
  -2   6  -5   97.69    8.70
   2   6   5   83.39    8.50
  -2   6  -5   86.69    6.20
   2   6   5   80.39   12.10
  -2   6  -5   94.59    8.70
   4  -6   5   73.59    6.20
   4  -6   5   60.39   10.60
   4  -6   5   56.89    8.60
  -4   6  -5   65.39    5.80
   4   6   5   59.29   10.60
   4   6   5   66.59    9.10
  -6  -6  -5   57.69    6.40
   6  -6   5   45.70    8.60
   6  -6   5   53.59   10.70
   6  -6   5   59.89    6.60
  -6   6  -5   57.29    6.00
   6   6   5   57.19    8.60
   6   6   5   53.09   10.60
   8  -6   5   -5.10    6.70
  -8  -6  -5    5.90    5.40
   8  -6   5    1.50    6.00
   8   6   5    2.70    6.40
  -8   6  -5    2.40    3.20
   8   6   5    2.30    4.90
  10  -6   5   10.70    8.90
  10  -6   5   18.20    8.40
  10   6   5   10.20   10.00
  10   6   5   12.90    7.20
 -10   6  -5   21.20    5.50
 -17  -7   5  208.68   24.00
  17  -7  -5  156.38   18.50
 -17  -7   5  180.38   13.60
 -17   7   5  165.68   13.00
 -17   7   5  165.08   13.50
  17   7  -5  172.88   18.00
  17   7  -5  189.68   13.40
 -17   7   5  186.48   15.30
 -15  -7   5  454.45   23.90
  15  -7  -5  458.25   27.30
 -15  -7   5  424.06   31.00
 -15   7   5  491.95   23.60
 -15   7   5  481.35   24.60
  15   7  -5  430.86   22.70
  15   7  -5  463.95   27.50
 -15   7   5  450.55   23.60
  13  -7  -5  564.74   30.10
 -13  -7   5  569.44   28.10
 -13  -7   5  644.14   34.70
 -13  -7   5  605.64   30.20
  13   7  -5  524.15   26.90
  13   7  -5  605.74   28.00
 -13   7   5  583.44   27.60
  13   7  -5  607.74   31.50
 -13   7   5  618.64   29.40
 -13   7   5  585.94   28.20
 -13   7   5  599.74   27.20
 -11  -7   5  765.12   38.30
 -11  -7   5  727.23   33.10
  11  -7  -5  778.02   38.90
 -11  -7   5  799.02   35.60
 -11   7   5  699.83   32.90
 -11   7   5  740.73   31.20
 -11   7   5  733.93   32.70
  11   7  -5  639.24   31.90
  11   7  -5  744.93   35.30
 -11   7   5  720.53   32.80
  11   7  -5  755.82   31.80
  -9  -7   5 1139.19   49.20
   9  -7  -5  976.70   55.89
   9  -7  -5 1197.18   51.99
  -9  -7   5 1097.29   47.30
  -9  -7   5 1109.59   45.90
  -9  -7   5 1024.80   45.30
  -9   7   5 1131.19   43.30
   9   7  -5 1118.39   42.90
  -9   7   5 1014.30   45.30
   9   7  -5 1040.50   44.60
  -9   7   5 1069.49   42.60
  -9   7   5 1012.20   44.70
  -7  -7   5  361.26   20.10
  -7  -7   5  358.76   19.90
   7  -7  -5  402.16   25.40
  -7  -7   5  370.86   20.60
  -7  -7   5  356.96   21.60
   7  -7  -5  344.97   18.90
  -7   7   5  371.96   20.40
  -7   7   5  364.66   19.30
   7   7  -5  382.96   17.00
   7   7  -5  339.27   18.90
  -7   7   5  356.06   16.10
   5  -7  -5  609.14   28.80
  -5  -7   5  634.74   31.20
   5  -7  -5  699.73   31.20
  -5  -7   5  659.13   31.10
  -5  -7   5  686.03   30.20
  -5  -7   5  619.44   31.00
   5  -7  -5  679.33   35.80
   5   7  -5  652.93   26.40
  -5   7   5  609.44   31.30
   5   7  -5  661.23   29.60
  -5   7   5  681.73   30.30
   5   7  -5  606.74   29.40
  -3  -7   5 1564.44   63.99
  -3  -7   5 1580.74   61.99
   3  -7  -5 1599.64   69.29
  -3  -7   5 1625.34   63.09
   3  -7  -5 1557.04   60.89
  -3  -7   5 1527.15   64.69
   3   7  -5 1641.64   62.39
   3   7  -5 1544.35   57.99
   3   7  -5 1547.05   62.39
  -3   7   5 1418.06   64.59
  -1  -7   5  820.32   39.60
  -1  -7   5  774.22   37.60
  -1  -7   5  960.00   45.90
   1   7  -5  797.62   34.80
   1   7  -5  805.32   32.20
   1   7  -5  813.42   36.50
   1   7  -5  829.12   36.80
  -1   7   5  803.82   40.20
   1  -7   5  555.74   29.30
   1  -7   5  554.94   31.20
   1   7   5  580.54   27.30
  -1   7  -5  558.94   23.60
  -1   7  -5  570.54   28.10
   1   7   5  561.34   31.90
  -1   7  -5  577.94   26.70
   3  -7   5  481.25   30.10
   3  -7   5  548.75   29.10
   3   7   5  536.85   31.60
   3   7   5  532.25   26.80
  -3   7  -5  545.25   22.90
  -3   7  -5  493.25   26.50
   5  -7   5  343.27   23.60
   5  -7   5  407.66   18.40
   5  -7   5  342.17   25.30
   5   7   5  369.36   22.50
  -5   7  -5  362.16   18.00
   5   7   5  383.46   26.30
  -7  -7  -5  201.18   10.50
   7  -7   5  186.98   19.30
   7  -7   5  189.68   18.00
   7   7   5  202.38   16.80
  -7   7  -5  185.08   12.20
   7   7   5  200.38   20.70
   9  -7   5  174.28   20.40
   9  -7   5  193.78   20.90
   9   7   5  203.18   20.60
   9   7   5  201.18   18.40
  -9   7  -5  185.78   13.10
  16  -8  -5  571.74   34.60
 -16  -8   5  555.14   28.90
 -16   8   5  554.54   29.60
  16   8  -5  617.14   29.10
 -16   8   5  580.64   29.10
  16   8  -5  621.94   34.40
  14  -8  -5  790.72   41.30
 -14  -8   5  819.52   45.60
 -14  -8   5  890.51   41.40
 -14  -8   5  796.82   37.40
  14   8  -5  825.72   37.40
 -14   8   5  840.32   38.30
  14   8  -5  849.32   41.60
 -14   8   5  866.61   38.00
 -14   8   5  815.22   36.60
 -12  -8   5  598.94   31.60
 -12  -8   5  556.04   34.10
  12  -8  -5  593.44   31.10
 -12  -8   5  560.84   28.20
 -12   8   5  569.04   28.40
  12   8  -5  532.85   27.80
 -12   8   5  594.14   28.70
 -12   8   5  587.94   28.30
  12   8  -5  643.84   28.50
 -12   8   5  575.44   26.70
  12   8  -5  591.84   31.00
 -10  -8   5  756.22   36.60
 -10  -8   5  791.52   34.60
  10  -8  -5  671.83   34.20
 -10  -8   5  742.73   38.30
 -10  -8   5  755.62   33.90
 -10   8   5  677.33   33.10
 -10   8   5  680.93   30.70
  10   8  -5  738.73   31.80
 -10   8   5  755.42   31.70
  10   8  -5  707.93   33.40
 -10   8   5  704.53   33.80
  -8  -8   5 1731.23   67.39
  -8  -8   5 1703.33   67.89
  -8  -8   5 1623.74   68.89
  -8  -8   5 1712.43   70.59
   8   8  -5 1754.22   63.79
  -8   8   5 1564.94   66.39
  -8   8   5 1639.24   62.59
  -8   8   5 1673.93   67.79
   8   8  -5 1553.64   66.29
  -6  -8   5 1692.13   71.19
  -6  -8   5 1754.52   71.69
  -6  -8   5 1784.72   73.09
  -6  -8   5 1792.12   72.09
  -6   8   5 1676.63   71.49
   6   8  -5 1931.71   66.89
   6   8  -5 1801.22   66.69
  -6   8   5 1750.22   64.09
   6   8  -5 1707.33   70.29
  -6   8   5 1738.13   70.49
  -4  -8   5 1141.29   48.60
  -4  -8   5 1082.29   48.60
  -4  -8   5 1106.59   48.80
   4   8  -5 1071.69   42.70
   4   8  -5 1081.39   47.10
  -4   8   5 1073.89   49.20
  -4   8   5 1138.69   47.40
  -2  -8   5  816.62   39.80
  -2  -8   5  844.52   39.10
  -2  -8   5  805.32   37.20
   2   8  -5  782.12   32.30
   2   8  -5  821.12   37.30
  -2   8   5  779.52   39.40
   0  -8   5  809.32   40.00
   0  -8   5  828.82   37.30
   0  -8   5  816.92   41.40
   0  -8  -5  841.22   35.60
   0   8  -5  827.02   33.40
   0   8   5  805.32   41.50
   0   8  -5  858.81   38.60
   2  -8   5 1003.00   47.80
   2  -8   5 1016.50   50.09
   2   8   5 1082.49   45.00
  -2   8  -5  999.20   40.70
  -2   8  -5  985.20   45.60
   2   8   5 1058.29   50.79
   4  -8   5 1034.30   50.19
   4  -8   5 1040.00   52.39
  -4   8  -5 1097.59   48.40
  -4   8  -5  992.40   42.40
   4   8   5 1115.79   53.59
   4   8   5 1086.69   47.60
   6  -8   5  600.74   34.90
   6  -8   5  518.55   35.20
   6   8   5  641.24   37.50
   6   8   5  612.94   32.00
  -6   8  -5  584.04   26.90
   8  -8   5  244.18   22.90
   8  -8   5  198.68   22.40
   8   8   5  276.17   25.10
   8   8   5  235.08   20.00
  -8   8  -5  238.18   15.10
  15  -9  -5    6.60    9.90
 -15  -9   5   31.90    7.10
 -15   9   5   23.70    6.60
 -15   9   5   36.80    7.70
  15   9  -5   51.49    8.80
  15   9  -5   48.50   10.20
  13  -9  -5   13.60    8.10
 -13  -9   5   33.00    7.00
  13   9  -5   38.10    7.40
 -13   9   5   25.20    5.90
 -13   9   5   34.20    7.30
  13   9  -5   33.60    7.70
 -13   9   5   36.00    7.40
 -11  -9   5   68.49    9.50
  11  -9  -5   51.99    9.90
 -11  -9   5   61.79    8.90
 -11  -9   5   55.29   13.20
 -11   9   5   76.29    8.20
 -11   9   5   75.39    9.60
 -11   9   5   73.29    9.70
  11   9  -5   69.79    9.80
 -11   9   5   78.89   10.10
  -9  -9   5  150.78   12.90
  -9  -9   5  178.78   14.20
   9  -9  -5  169.18   15.00
  -9  -9   5  146.39   17.70
   9   9  -5  194.28   12.90
  -9   9   5  152.18   12.70
  -9   9   5  177.48   14.00
   9   9  -5  152.28   13.00
  -9   9   5  156.88   10.70
   7  -9  -5  194.78   15.40
  -7  -9   5  202.38   15.70
  -7  -9   5  195.28   17.90
  -7  -9   5  180.88   14.40
  -7   9   5  186.08   14.20
  -7   9   5  197.38   15.20
   7   9  -5  211.58   12.60
  -7   9   5  194.98   10.00
   7   9  -5  200.38   12.00
   7   9  -5  193.78   14.70
  -5  -9   5   38.50    8.50
  -5  -9   5   31.50    7.40
   5  -9  -5   25.40    6.30
  -5  -9   5   34.70    7.30
   5   9  -5   25.50    4.50
  -5   9   5   31.30    7.40
   5   9  -5   23.80    6.00
  -5   9   5   34.20    6.90
  -3  -9   5  112.79   12.80
  -3  -9   5  114.09   12.70
   3  -9  -5   90.39   10.70
  -3  -9   5  136.49   13.70
  -3   9   5  144.09   13.10
   3   9  -5  133.39   12.20
  -3   9   5  125.79   11.60
   3   9  -5  120.79    8.70
  -1  -9   5  209.48   17.50
  -1  -9   5  201.38   16.80
   1  -9  -5  217.18   14.90
  -1  -9   5  224.68   18.10
   1   9  -5  213.58   15.80
  -1   9   5  210.28   17.70
   1   9  -5  219.48   12.40
  -1  -9  -5   24.50    5.50
   1  -9   5   29.20    8.10
   1  -9   5   45.80   10.60
   1  -9   5   20.00    6.50
  -1   9  -5   18.50    4.50
   1   9   5   25.50    7.70
  -1   9  -5   21.80    6.40
   3  -9   5   35.80    9.00
   3  -9   5   67.29   12.00
  -3  -9  -5   49.40    7.20
   3   9   5   64.39    9.30
  -3   9  -5   65.49    7.20
   3   9   5   65.89   12.90
  -3   9  -5   44.50    8.80
   5  -9   5   29.70   10.90
   5  -9   5   54.49   12.00
   5   9   5   43.40    8.50
  -5   9  -5   42.80    9.40
  -5   9  -5   49.80    6.90
   5   9   5   43.00   12.30
   7  -9   5    7.20    9.60
   7  -9   5   -2.60    8.70
  -7   9  -5   11.20    5.20
   7   9   5    1.40    8.90
   7   9   5    6.80    6.40
 -12 -10   5  186.18   14.90
 -12 -10   5  173.38   15.50
  12  10  -5  202.28   16.30
 -12  10   5  174.78   15.20
 -12  10   5  224.78   17.00
 -10 -10   5  382.46   22.60
  10 -10  -5  377.16   25.80
 -10 -10   5  408.26   24.40
  10  10  -5  409.76   23.80
 -10  10   5  362.36   19.80
 -10  10   5  415.76   24.30
 -10  10   5  362.86   22.80
  -8 -10   5  349.77   22.20
  -8 -10   5  303.47   19.70
   8 -10  -5  273.97   21.30
  -8  10   5  283.67   14.70
   8  10  -5  333.47   17.40
   8  10  -5  302.37   20.30
   8  10  -5  304.17   18.30
  -8  10   5  312.77   20.70
  -8  10   5  316.17   20.20
  -6 -10   5  414.06   40.40
   6 -10  -5  314.87   23.40
  -6 -10   5  388.86   23.50
  -6 -10   5  362.46   24.60
   6  10  -5  375.76   19.50
   6  10  -5  430.36   20.40
  -6  10   5  365.06   22.60
   6  10  -5  408.36   24.10
  -6  10   5  401.06   24.20
  -4 -10   5  419.46   38.20
  -4 -10   5  371.86   25.30
   4 -10  -5  390.46   24.10
  -4 -10   5  393.46   24.80
  -4  10   5  438.66   24.30
  -4  10   5  400.46   24.70
   4  10  -5  380.46   23.80
   4  10  -5  378.46   19.60
   2 -10  -5  262.97   18.60
  -2 -10   5  276.97   21.40
  -2 -10   5  283.07   20.70
  -2  10   5  275.07   20.40
   2  10  -5  241.28   18.60
   2  10  -5  272.07   15.10
  -2  10   5  256.57   18.20
   0 -10  -5  166.68   14.40
   0 -10   5  172.18   18.30
   0 -10   5  156.68   17.50
   0  10  -5  172.38   11.70
   0  10   5  163.38   16.70
   0  10  -5  193.48   15.90
   2 -10   5  237.48   21.60
   2 -10   5  247.68   21.80
  -2 -10  -5  236.68   16.80
  -2  10  -5  275.47   20.30
  -2  10  -5  239.68   14.80
   2  10   5  266.57   21.30
   4 -10   5  267.97   23.80
  -4 -10  -5  236.78   17.30
   4 -10   5  243.38   23.40
   4  10   5  256.17   18.60
   4  10   5  282.57   23.40
  -4  10  -5  276.07   16.10
  -4  10  -5  263.47   20.20
  -9 -11   5 1056.19   49.60
  -9 -11   5  951.50   46.10
  -9  11   5 1083.99   49.30
   9  11  -5 1021.60   48.30
  -9  11   5  934.01   46.90
   9  11  -5 1110.89   44.40
  -7 -11   5 1302.77   60.69
  -7 -11   5 1302.57   58.19
   7  11  -5 1279.97   59.19
   7  11  -5 1379.96   54.49
  -7  11   5 1325.37   58.69
  -7  11   5 1390.96   60.29
  -5 -11   5 1185.38   55.09
  -5 -11   5 1168.28   57.09
  -5  11   5 1166.18   54.09
   5  11  -5 1239.48   49.80
   5  11  -5 1234.48   56.09
  -5  11   5 1264.07   56.09
  -3 -11   5  892.61   46.50
  -3 -11   5  983.70   49.50
   3  11  -5 1046.00   48.10
   3  11  -5  977.70   41.10
  -3  11   5  938.91   45.40
  -3  11   5  948.21   46.50
  -1 -11   5  831.62   47.70
  -1 -11   5  918.01   47.50
   1  11  -5  938.61   39.50
   1  11  -5  925.51   45.60
  -1  11   5  949.71   44.30
   1 -11   5  736.33   43.00
   1 -11   5  783.82   43.30
  -1  11  -5  793.52   41.40
  -1  11  -5  791.42   34.70
   1  11   5  753.22   42.00
  22   0  -6  385.96   27.20
 -22   0   6  345.77   19.80
 -20   0   6  567.34   26.50
  20   0  -6  538.95   31.40
 -20   0   6  583.84   31.20
 -18   0   6 1287.47   54.99
 -18   0   6 1271.77   51.29
  18   0  -6 1304.77   55.79
  16   0  -6 2912.31  111.19
 -16   0   6 3002.50  110.89
  16   0  -6 2972.40  108.59
 -16   0   6 2787.22  107.39
  14   0  -6 2006.90   74.09
 -14   0   6 1913.01   73.19
 -14   0   6 1975.80   75.59
 -12   0   6 1892.51   71.69
  12   0  -6 1969.80   72.19
 -12   0   6 1978.30   73.49
  10   0  -6 2082.79   75.39
 -10   0   6 2074.49   75.99
  10   0  -6 2033.10   76.19
 -10   0   6 2063.19   75.09
   8   0  -6 1436.46   54.29
  -8   0   6 1506.25   54.99
   8   0  -6 1508.55   54.59
  -8   0   6 1490.15   54.39
  -8   0   6 1513.05   54.59
  -6   0   6 3706.03  125.29
  -6   0   6 3651.83  125.89
  -6   0   6 3427.26  128.59
  -6   0   6 3389.46  125.49
   4   0  -6 2605.04   99.39
  -4   0   6 2641.14   99.79
  -4   0   6 2737.23   97.09
   4   0  -6 2896.21   96.69
  -2   0   6 1990.80   71.29
  -2   0   6 1869.11   72.89
  -2   0   6 1924.81   70.09
   2   0  -6 1970.80   73.09
   2   0  -6 1966.00   70.69
   0   0  -6 1345.37   50.39
   0   0   6 1270.07   51.89
   0   0   6 1287.87   50.99
   0   0  -6 1388.86   52.59
   0   0   6 1322.57   49.00
  -2   0  -6  774.42   32.70
  -2   0  -6  850.01   35.30
   2   0   6  793.92   31.10
   2   0   6  739.23   33.80
   2   0   6  780.52   33.60
   4   0   6 2919.21  114.79
  -4   0  -6 3276.77  117.19
   4   0   6 2969.00  115.29
   4   0   6 3096.89  111.99
  -4   0  -6 2952.20  111.49
  -4   0  -6 3165.88  114.59
  -6   0  -6 2212.88   83.69
  -6   0  -6 1903.61   76.69
   6   0   6 2121.39   77.89
   6   0   6 2010.20   81.49
   6   0   6 2018.60   80.69
  -8   0  -6  519.25   24.30
   8   0   6  539.05   29.30
   8   0   6  541.55   28.00
 -10   0  -6  301.37   17.00
  10   0   6  333.97   23.20
  10   0   6  308.77   20.50
 -12   0  -6  165.48   13.10
  12   0   6  153.38   18.90
  12   0   6  202.38   17.70
  21  -1  -6   79.29   12.90
 -21  -1   6   73.29   13.00
 -21  -1   6   71.49    8.00
 -21   1   6  102.39   13.70
 -21   1   6   83.59    8.90
  21   1  -6   68.79   12.10
 -19  -1   6  225.88   13.30
  19  -1  -6  215.38   17.40
 -19  -1   6  236.58   18.10
 -19   1   6  219.88   13.70
 -19   1   6  241.48   17.40
  19   1  -6  205.88   17.60
 -17  -1   6   96.19   10.40
 -17  -1   6   90.79    7.20
  17  -1  -6   87.19   10.30
 -17   1   6   88.79    9.40
  17   1  -6   85.29   10.30
 -17   1   6   91.49    7.70
  15  -1  -6   31.50    5.10
  15  -1  -6   30.00    5.50
 -15  -1   6   30.00    4.40
 -15  -1   6   28.90    5.70
  15   1  -6   29.40    4.80
 -15   1   6   28.10    6.30
  15   1  -6   23.60    5.20
 -15   1   6   16.50    4.30
 -15   1   6   31.40    4.60
  13  -1  -6  456.55   21.90
 -13  -1   6  473.65   22.60
 -13  -1   6  471.35   20.20
  13  -1  -6  471.45   21.20
 -13   1   6  473.75   21.70
 -13   1   6  501.35   21.00
  13   1  -6  493.45   20.90
  13   1  -6  449.46   22.50
  11  -1  -6  685.33   27.00
 -11  -1   6  639.94   27.90
 -11  -1   6  658.83   25.90
  11  -1  -6  629.14   26.90
  11   1  -6  644.14   28.10
 -11   1   6  669.33   24.00
 -11   1   6  676.23   26.70
 -11   1   6  669.13   26.90
  11   1  -6  645.64   26.20
  -9  -1   6  381.96   14.30
  -9  -1   6  393.06   15.50
   9  -1  -6  393.96   16.00
   9  -1  -6  384.16   16.50
  -9  -1   6  391.96   14.90
  -9  -1   6  388.16   17.20
  -9   1   6  404.76   15.80
   9   1  -6  377.16   17.20
   9   1  -6  394.76   15.80
  -9   1   6  365.96   15.90
  -9   1   6  370.96   16.30
  -7  -1   6  540.55   23.90
  -7  -1   6  547.15   20.20
  -7  -1   6  522.05   21.90
  -7  -1   6  556.04   21.20
  -7  -1   6  557.44   20.90
  -7   1   6  536.35   21.40
  -7   1   6  508.65   22.80
   7   1  -6  538.65   20.40
  -7   1   6  564.74   23.20
  -5  -1   6  766.62   29.50
  -5  -1   6  785.52   31.80
  -5  -1   6  741.83   27.50
  -5  -1   6  767.12   28.90
  -5  -1   6  758.92   29.10
  -5   1   6  754.42   29.10
   5   1  -6  786.22   31.50
  -5   1   6  727.73   31.50
  -5   1   6  771.22   30.40
  -3  -1   6  667.23   23.20
  -3  -1   6  619.34   25.00
   3  -1  -6  599.44   23.50
   3  -1  -6  616.34   25.60
  -3  -1   6  628.74   27.40
   3   1  -6  626.74   24.50
   3   1  -6  649.14   27.10
  -3   1   6  648.24   24.20
  -3   1   6  622.14   25.80
  -1  -1   6  402.66   18.50
  -1  -1   6  443.26   16.60
   1  -1  -6  413.66   18.80
   1  -1  -6  439.36   17.80
  -1  -1   6  380.76   20.00
  -1   1   6  426.26   18.30
  -1   1   6  406.26   18.70
  -1   1   6  433.56   17.60
   1   1  -6  416.96   20.20
   1   1  -6  409.26   18.00
  -1  -1  -6  437.86   19.40
   1  -1   6  432.26   17.60
  -1  -1  -6  436.36   20.50
   1  -1   6  414.06   20.00
   1  -1   6  417.46   21.40
  -1   1  -6  426.96   19.50
   1   1   6  445.06   18.40
  -1   1  -6  415.36   21.50
  -1   1  -6  404.06   17.50
   1   1   6  448.66   20.10
   1   1   6  395.36   19.50
   3  -1   6  102.89    9.50
  -3  -1  -6  122.59   10.00
   3  -1   6  119.59    7.30
  -3  -1  -6  124.09    9.30
   3  -1   6  130.39    9.70
   3  -1   6  111.29    9.50
  -3   1  -6   94.39    6.60
   3   1   6  116.29    7.80
  -3   1  -6  116.49    9.00
   3   1   6  118.29    9.20
  -3   1  -6  132.39   11.10
   3   1   6  111.79    8.60
   5  -1   6   15.50    4.50
  -5  -1  -6   26.10    6.50
   5  -1   6   14.40    4.20
   5  -1   6   17.30    3.80
   5   1   6   20.90    4.70
  -5   1  -6   29.10    7.00
  -5   1  -6   20.20    3.40
   5   1   6   21.20    5.30
   5   1   6   20.70    4.20
  -5   1  -6   11.10    5.30
  -7  -1  -6  109.79   13.30
   7  -1   6  110.39   11.30
   7  -1   6  106.79    9.00
   7  -1   6  105.59   10.80
   7   1   6   95.29    9.50
  -7   1  -6   99.19    7.60
   7   1   6   75.19   10.50
   9  -1   6   84.89   10.90
   9  -1   6   78.79   11.80
   9   1   6   88.59   11.90
  -9   1  -6   73.49    7.50
   9   1   6   84.09    9.90
  11  -1   6   51.69   11.40
  11  -1   6   60.09   10.50
  11   1   6   59.79    9.80
  11   1   6   53.09   10.90
 -11   1  -6   52.59    7.60
 -22  -2   6   45.30    7.10
  22  -2  -6   50.79   11.60
 -22   2   6   43.00    7.80
  22   2  -6   43.40   12.30
 -20  -2   6   66.99   11.50
  20  -2  -6   29.60    8.70
  20  -2  -6   50.59    7.40
 -20  -2   6   52.29    7.00
  20   2  -6   56.39   11.00
 -20   2   6   56.49    9.30
 -20   2   6   69.29    7.90
 -18  -2   6  153.28   14.90
  18  -2  -6  145.59   13.40
 -18  -2   6  133.69    9.50
  18  -2  -6  123.59   10.00
 -18   2   6  143.39   12.50
  18   2  -6  135.89   13.70
 -18   2   6  145.89   10.50
  16  -2  -6  201.88   12.60
  16  -2  -6  255.57   16.00
 -16  -2   6  226.98   12.40
 -16  -2   6  264.07   17.00
  16   2  -6  245.98   14.00
  16   2  -6  219.48   15.90
 -16   2   6  256.57   13.80
 -16   2   6  252.07   14.90
 -14  -2   6  120.19   10.20
  14  -2  -6  116.59    9.50
  14  -2  -6  139.49    9.30
  14  -2  -6  102.59    7.90
 -14  -2   6  122.99    7.50
  14   2  -6  124.29   10.30
 -14   2   6  128.49   10.20
 -14   2   6  113.69    8.10
  14   2  -6  111.79    8.20
 -14   2   6  123.09    8.70
  12  -2  -6  411.66   18.60
 -12  -2   6  420.16   17.20
  12  -2  -6  413.06   18.20
  12  -2  -6  395.56   18.80
 -12  -2   6  327.27   19.30
  12   2  -6  408.96   17.70
  12   2  -6  393.46   20.20
 -12   2   6  430.16   16.20
 -12   2   6  412.76   19.90
 -12   2   6  407.06   18.40
 -12   2   6  399.46   18.10
 -10  -2   6  697.93   26.80
  10  -2  -6  707.83   28.50
 -10  -2   6  685.53   29.80
  10  -2  -6  723.73   28.80
  10  -2  -6  689.93   27.70
 -10   2   6  707.83   28.40
  10   2  -6  720.83   27.20
 -10   2   6  703.93   27.30
 -10   2   6  677.33   27.00
  -8  -2   6  488.05   18.20
  -8  -2   6  488.15   21.40
  -8  -2   6  488.05   22.40
  -8  -2   6  484.45   18.60
   8  -2  -6  452.55   18.10
   8   2  -6  467.15   20.30
  -8   2   6  464.45   21.30
   8   2  -6  493.35   18.40
  -8   2   6  489.05   18.10
  -8   2   6  494.55   20.20
  -6  -2   6 1659.73   59.89
  -6  -2   6 1659.63   60.49
  -6  -2   6 1580.34   63.09
  -6  -2   6 1609.04   61.39
  -6   2   6 1689.73   60.79
  -6   2   6 1613.14   60.59
  -4  -2   6 1841.12   69.99
  -4  -2   6 1919.01   70.29
  -4  -2   6 1903.21   72.89
   4   2  -6 1984.70   72.59
  -4   2   6 1927.21   69.79
   4   2  -6 1932.11   69.59
  -4   2   6 1864.21   67.89
  -4   2   6 1874.41   73.39
   2  -2  -6  643.74   26.30
  -2  -2   6  658.33   29.80
  -2  -2   6  660.03   27.70
  -2  -2   6  643.34   27.50
  -2  -2   6  697.83   24.50
   2  -2  -6  657.13   26.00
  -2   2   6  686.03   30.80
   2   2  -6  674.53   26.90
   2   2  -6  715.23   29.80
  -2   2   6  676.23   26.80
  -2   2   6  665.03   26.40
   0  -2   6  177.08   12.00
   0  -2  -6  174.78    9.80
   0  -2   6  182.18   10.80
   0  -2  -6  152.98    9.30
   0  -2   6  178.48    8.00
   0  -2   6  173.08   10.50
   0   2  -6  174.08   10.00
   0   2  -6  216.48   12.70
   0   2   6  176.88    9.60
   0   2  -6  163.48    7.90
   0   2   6  175.48   12.70
   0   2   6  160.38    9.80
   0   2   6  169.88    9.50
  -2  -2  -6  240.68   13.70
   2  -2   6  227.08   13.60
  -2  -2  -6  245.58   13.70
   2  -2   6  240.48   15.60
   2  -2   6  255.47   14.60
   2  -2   6  245.38   11.40
  -2   2  -6  259.57   14.00
  -2   2  -6  235.28   11.20
   2   2   6  242.18   12.70
   2   2   6  237.38   13.90
  -2   2  -6  256.57   16.10
   2   2   6  227.58   12.60
   4  -2   6  372.06   20.90
  -4  -2  -6  414.66   20.90
  -4  -2  -6  388.46   20.50
   4  -2   6  390.76   20.40
   4  -2   6  377.76   17.40
   4  -2   6  362.66   21.60
  -4   2  -6  389.86   22.50
   4   2   6  428.36   19.20
  -4   2  -6  369.26   17.10
   4   2   6  376.36   18.80
   4   2   6  380.76   20.60
  -4   2  -6  384.96   20.10
   6  -2   6  163.48   13.80
   6  -2   6  160.98   10.40
   6  -2   6  160.78   13.50
  -6  -2  -6  159.38   13.80
   6   2   6  160.68   11.30
   6   2   6  172.68   13.30
  -6   2  -6  154.18    9.70
  -8  -2  -6   82.09   12.70
   8  -2   6   94.79   11.80
   8  -2   6   66.79   10.70
   8   2   6   90.69   11.10
   8   2   6   93.59    9.30
  -8   2  -6   79.69    7.40
  10  -2   6   41.00    9.10
  10  -2   6   43.20   10.10
  10   2   6   39.20    7.70
 -10   2  -6   34.90    5.70
  10   2   6   65.39   12.40
  10   2   6   32.00    8.20
  12  -2   6   24.50   10.30
  12  -2   6   20.40    8.10
  12   2   6   10.90    8.60
 -12   2  -6   14.70    5.00
  12   2   6   19.50   10.20
  21  -3  -6  354.96   26.30
 -21  -3   6  387.36   19.50
 -21   3   6  352.56   20.50
  21   3  -6  318.07   25.40
  19  -3  -6  430.26   23.90
 -19  -3   6  468.35   22.30
 -19  -3   6  472.65   29.00
  19  -3  -6  475.75   27.80
 -19   3   6  490.15   25.80
 -19   3   6  479.75   23.90
  19   3  -6  466.85   27.90
 -17  -3   6  946.51   43.40
 -17  -3   6  865.81   37.00
  17  -3  -6  918.91   41.80
  17  -3  -6  908.01   39.30
 -17   3   6  898.81   38.80
  17   3  -6  922.51   42.80
 -17   3   6  960.70   40.30
 -15  -3   6 1314.07   54.69
  15  -3  -6 1181.68   51.19
 -15  -3   6 1232.08   48.90
  15   3  -6 1265.67   53.99
  15   3  -6 1341.77   50.59
 -15   3   6 1293.07   50.89
 -15   3   6 1308.67   48.00
 -15   3   6 1284.37   53.19
 -15   3   6 1265.97   51.09
 -13  -3   6 1512.45   59.79
  13  -3  -6 1513.05   56.89
 -13  -3   6 1461.85   54.49
  13  -3  -6 1361.76   57.39
  13  -3  -6 1398.06   56.89
  13   3  -6 1352.36   58.79
 -13   3   6 1583.74   54.29
 -13   3   6 1484.75   56.59
  13   3  -6 1445.16   55.29
 -13   3   6 1464.35   57.99
 -13   3   6 1432.66   55.89
  11  -3  -6 1991.60   78.49
  11  -3  -6 2105.39   77.09
 -11  -3   6 1988.00   78.69
 -11  -3   6 2104.79   74.79
 -11  -3   6 1988.20   74.59
 -11  -3   6 2096.99   79.59
  11  -3  -6 1955.80   76.29
 -11   3   6 2114.09   75.39
  11   3  -6 2032.20   78.99
 -11   3   6 2066.59   77.59
 -11   3   6 2113.39   75.69
  11   3  -6 2093.99   73.59
  11   3  -6 2023.50   75.19
 -11   3   6 2102.99   76.99
   9  -3  -6 3395.66  122.49
  -9  -3   6 3383.46  120.79
   9  -3  -6 3472.25  124.89
  -9  -3   6 3335.67  119.69
   9  -3  -6 3377.76  120.89
  -9  -3   6 3461.55  124.89
  -9  -3   6 3347.96  124.59
  -9   3   6 3247.97  122.59
  -9   3   6 3332.87  122.39
  -9   3   6 3437.26  122.39
   9   3  -6 3433.56  120.09
  -9   3   6 3450.05  120.29
   9   3  -6 3473.65  120.49
   9   3  -6 3006.20  122.99
  -7  -3   6 1729.73   66.49
   7  -3  -6 1662.03   61.39
   7  -3  -6 1815.32   61.69
  -7  -3   6 1675.23   65.59
  -7  -3   6 1748.53   64.19
   7  -3  -6 1723.63   66.79
  -7  -3   6 1705.33   62.69
   7   3  -6 1774.72   63.29
   7   3  -6 1703.93   60.79
  -7   3   6 1706.63   63.99
  -7   3   6 1576.64   66.19
  -5  -3   6 1921.11   71.59
   5  -3  -6 2021.80   68.79
  -5  -3   6 1840.52   73.79
  -5  -3   6 1991.30   70.79
   5  -3  -6 1860.41   68.29
  -5  -3   6 1961.30   71.89
  -5   3   6 1815.62   71.39
  -5   3   6 1923.91   69.69
   5   3  -6 1985.80   73.39
  -5   3   6 1872.81   74.69
   3  -3  -6 4255.57  148.09
  -3  -3   6 4126.49  149.49
  -3  -3   6 4152.08  150.38
  -3  -3   6 4114.19  153.08
   3   3  -6 4124.89  151.88
  -3   3   6 4175.18  148.29
  -3   3   6 4102.39  153.78
  -3   3   6 4257.67  147.69
   3   3  -6 4033.50  149.09
  -1  -3   6 2302.67   87.59
   1  -3  -6 2312.27   84.89
  -1  -3   6 2353.96   84.09
  -1  -3   6 2347.07   88.59
  -1  -3   6 2289.57   91.09
   1  -3  -6 2495.25   86.99
   1   3  -6 2275.87   84.09
  -1   3   6 2417.06   85.39
  -1   3   6 2231.18   91.69
   1   3  -6 2409.06   87.29
   1   3  -6 2582.84   90.59
  -1   3   6 2300.07   86.79
  -1  -3  -6 1196.78   46.80
   1  -3   6 1267.57   49.20
  -1  -3  -6 1258.27   48.90
   1  -3   6 1169.18   51.99
   1  -3   6 1220.98   45.60
   1  -3   6 1221.78   50.09
   1   3   6 1245.98   48.30
  -1   3  -6 1275.47   49.00
  -1   3  -6 1307.47   51.89
   1   3   6 1187.08   52.99
   1   3   6 1247.68   46.60
  -1   3  -6 1211.08   45.60
   1   3   6 1218.98   48.90
  -3  -3  -6 1479.75   58.69
   3  -3   6 1517.45   56.69
   3  -3   6 1520.95   61.69
   3  -3   6 1510.45   60.09
  -3  -3  -6 1540.15   60.39
   3  -3   6 1472.45   63.29
  -3   3  -6 1553.14   60.09
   3   3   6 1523.35   57.49
   3   3   6 1525.35   58.99
   3   3   6 1570.44   65.19
  -3   3  -6 1541.05   62.99
   3   3   6 1544.15   60.89
  -3   3  -6 1437.46   56.39
  -5  -3  -6 1080.89   44.20
   5  -3   6 1002.10   47.50
   5  -3   6 1024.60   46.30
   5  -3   6 1072.79   41.20
   5   3   6 1075.79   42.00
  -5   3  -6 1009.90   40.80
   5   3   6 1036.80   45.50
   5   3   6 1015.90   48.70
   7  -3   6  559.54   25.40
   7  -3   6  605.04   31.70
   7  -3   6  505.75   29.90
  -7  -3  -6  571.64   29.10
   7   3   6  554.74   29.80
   7   3   6  579.44   25.90
   7   3   6  521.95   32.00
  -7   3  -6  578.24   24.90
   9  -3   6  366.36   24.90
   9  -3   6  370.06   25.20
  -9   3  -6  368.16   18.90
   9   3   6  406.76   27.60
   9   3   6  360.26   24.20
  11  -3   6  256.47   22.30
  11  -3   6  218.18   20.10
  11   3   6  260.57   23.20
  11   3   6  242.68   20.60
 -11   3  -6  198.78   14.10
  20  -4  -6  181.38   18.90
 -20  -4   6  208.98   13.30
 -20  -4   6  226.78   23.70
  20  -4  -6  214.08   20.00
 -20   4   6  235.88   18.30
  20   4  -6  208.18   19.90
 -20   4   6  222.68   15.00
 -18  -4   6  254.07   13.80
  18  -4  -6  243.08   17.90
  18  -4  -6  216.78   18.10
 -18  -4   6  249.88   21.30
 -18   4   6  249.28   16.70
 -18   4   6  255.57   15.50
  18   4  -6  240.18   18.80
 -16  -4   6  375.46   17.40
 -16  -4   6  423.46   24.30
  16  -4  -6  357.66   21.30
 -16   4   6  362.06   16.90
 -16   4   6  358.46   19.30
  16   4  -6  360.26   14.70
  16   4  -6  361.66   19.20
  16   4  -6  372.06   22.60
 -16   4   6  353.36   19.00
 -14  -4   6  554.04   23.00
  14  -4  -6  533.95   26.00
  14  -4  -6  537.35   27.30
 -14  -4   6  562.24   28.80
 -14   4   6  552.34   24.50
 -14   4   6  566.94   26.80
  14   4  -6  540.15   27.90
 -14   4   6  532.65   22.90
  14   4  -6  520.85   21.10
 -14   4   6  554.54   25.10
  14   4  -6  512.85   23.80
  12  -4  -6  738.03   32.20
 -12  -4   6  780.72   35.60
 -12  -4   6  758.32   33.60
 -12  -4   6  743.83   29.70
  12  -4  -6  769.72   35.20
 -12  -4   6  742.43   30.80
  12  -4  -6  761.52   32.30
  12   4  -6  766.72   34.60
  12   4  -6  776.82   30.60
 -12   4   6  793.92   31.10
 -12   4   6  753.72   32.80
  12   4  -6  751.72   29.20
 -12   4   6  754.22   30.70
 -12   4   6  769.92   32.30
  10  -4  -6 1252.77   47.50
  10  -4  -6 1201.28   48.20
  10  -4  -6 1161.48   51.29
 -10  -4   6 1270.87   47.90
 -10  -4   6 1260.87   50.29
 -10  -4   6 1253.57   51.39
 -10   4   6 1193.78   47.80
 -10   4   6 1245.38   46.40
  10   4  -6 1220.38   46.20
  10   4  -6 1248.28   45.90
 -10   4   6 1241.68   48.10
  10   4  -6 1234.08   50.09
 -10   4   6 1211.58   48.30
  -8  -4   6  816.72   33.90
  -8  -4   6  831.02   32.60
   8  -4  -6  836.12   31.40
   8  -4  -6  824.32   31.90
  -8  -4   6  793.22   35.40
  -8  -4   6  819.32   35.80
   8  -4  -6  850.11   37.40
  -8   4   6  844.12   32.60
  -8   4   6  781.52   34.80
  -8   4   6  791.52   33.50
  -8   4   6  832.92   31.10
   8   4  -6  860.81   32.50
   8   4  -6  820.62   30.50
   6  -4  -6  878.11   34.40
   6  -4  -6  950.10   35.30
  -6  -4   6  986.60   36.10
   6  -4  -6  923.61   40.70
  -6  -4   6  934.51   38.10
  -6  -4   6  912.91   37.20
  -6  -4   6  881.81   38.80
  -6   4   6  893.91   34.50
   6   4  -6  925.41   36.30
  -6   4   6  903.11   37.00
   6   4  -6  914.81   38.30
  -6   4   6  884.21   39.80
   4  -4  -6 1068.59   39.80
  -4  -4   6 1030.30   40.40
   4  -4  -6 1035.70   38.70
  -4  -4   6  968.00   43.60
  -4  -4   6 1059.49   41.80
  -4  -4   6 1011.20   41.10
  -4   4   6 1029.60   37.60
  -4   4   6 1031.90   45.10
   4   4  -6 1052.49   41.20
   4   4  -6 1039.80   42.70
   2  -4  -6  816.32   30.40
  -2  -4   6  724.63   30.30
  -2  -4   6  742.43   31.60
  -2  -4   6  663.13   33.20
  -2   4   6  680.73   34.30
   2   4  -6  734.13   30.10
  -2   4   6  730.13   29.70
   2   4  -6  739.43   32.60
   2   4  -6  726.93   26.60
   0  -4   6  972.00   39.30
   0  -4   6  932.71   42.80
   0  -4   6  949.31   35.50
   0  -4  -6  927.01   34.90
   0  -4   6  916.81   40.30
   0  -4  -6 1004.30   39.40
   0   4  -6 1032.90   42.10
   0   4   6  895.81   38.70
   0   4  -6  956.10   39.00
   0   4   6  966.80   44.00
   0   4   6  980.60   35.10
   0   4  -6  936.81   35.50
   0   4   6  973.70   39.00
   2  -4   6  698.93   35.40
   2  -4   6  760.32   28.10
   2  -4   6  695.93   32.90
  -2  -4  -6  684.33   28.00
  -2  -4  -6  739.13   32.20
   2  -4   6  693.03   31.30
  -2   4  -6  714.93   31.30
  -2   4  -6  733.93   34.10
   2   4   6  743.83   27.60
   2   4   6  739.13   31.10
  -2   4  -6  662.23   27.70
   2   4   6  698.03   35.90
   2   4   6  682.63   31.50
   4  -4   6  288.17   19.00
   4  -4   6  320.97   14.70
  -4  -4  -6  319.87   15.90
   4  -4   6  307.97   20.70
   4   4   6  288.37   20.80
  -4   4  -6  299.77   14.40
   4   4   6  324.97   18.60
   6  -4   6  173.28   11.10
  -6  -4  -6  173.88   12.90
   6  -4   6  159.98   15.30
   6  -4   6  193.18   15.60
   6   4   6  198.88   14.80
   6   4   6  175.48   16.90
  -6   4  -6  170.18   10.30
   8  -4   6  225.48   18.70
  -8  -4  -6  253.57   17.80
   8  -4   6  220.68   18.90
   8   4   6  197.68   19.60
   8   4   6  199.78   17.10
  -8   4  -6  206.58   12.70
  10  -4   6  178.88   18.50
  10  -4   6  204.08   19.70
  10   4   6  179.98   20.20
  10   4   6  139.89   16.40
 -10   4  -6  158.88   11.60
  19  -5  -6   -2.70    6.80
 -19  -5   6   -1.30   10.90
 -19  -5   6    8.70    3.70
  19  -5  -6    1.00    9.70
  19   5  -6    1.40    7.60
  19   5  -6    6.00    3.20
 -19   5   6    5.80    5.80
 -19   5   6    3.20    4.10
  17  -5  -6   75.09   10.60
 -17  -5   6   80.29   12.10
 -17  -5   6   69.99    6.70
  17  -5  -6   63.19   11.10
 -17   5   6   65.79    6.70
  17   5  -6   78.09   11.80
  17   5  -6   64.19    5.80
 -17   5   6   65.49    8.50
 -17   5   6   65.59    7.80
 -15  -5   6  119.89   10.60
  15  -5  -6  104.39   13.00
 -15  -5   6  130.89   14.10
  15   5  -6  128.49    9.90
  15   5  -6  139.09   13.00
 -15   5   6  121.09    8.40
 -15   5   6  116.19    9.30
 -15   5   6  117.19    9.50
  15   5  -6  106.39    7.30
 -13  -5   6   65.79    9.70
  13  -5  -6   59.09    7.50
 -13  -5   6   56.99    6.90
 -13  -5   6   62.89    7.40
  13  -5  -6   78.29   11.00
  13   5  -6   66.19    9.50
 -13   5   6   67.99    6.80
 -13   5   6   62.19    8.10
 -13   5   6   69.39    6.40
  13   5  -6   57.19    6.10
 -13   5   6   57.79    5.80
  11  -5  -6  242.08   13.70
 -11  -5   6  231.28   14.30
 -11  -5   6  238.78   13.70
  11  -5  -6  224.98   16.70
 -11  -5   6  243.48   16.70
  11  -5  -6  226.28   13.10
  11   5  -6  232.58   11.60
 -11   5   6  212.88   12.90
  11   5  -6  224.58   11.70
 -11   5   6  222.48   12.60
 -11   5   6  216.28   11.60
 -11   5   6  233.28   13.30
  11   5  -6  229.78   14.90
   9  -5  -6  149.09    9.10
   9  -5  -6  159.18   13.60
  -9  -5   6  152.28   10.00
  -9  -5   6  151.28   12.20
  -9  -5   6  141.79    9.50
  -9  -5   6  150.48   10.80
  -9   5   6  135.29   10.00
   9   5  -6  153.18    8.90
  -9   5   6  149.29    9.90
   9   5  -6  130.69    7.40
  -9   5   6  146.99    7.80
  -9   5   6  134.49    8.70
  -7  -5   6  141.89   10.50
   7  -5  -6  139.59    8.20
  -7  -5   6  129.59    8.40
  -7  -5   6  106.29    8.60
   7  -5  -6  122.89    7.70
  -7  -5   6  130.19   10.40
   7  -5  -6  130.59   12.40
   7   5  -6  125.79    8.20
  -7   5   6  127.29    7.10
   7   5  -6  123.49    6.10
  -7   5   6  125.39   10.30
  -7   5   6  119.19    8.80
   5  -5  -6  545.55   29.00
   5  -5  -6  578.64   23.70
  -5  -5   6  563.04   23.70
  -5  -5   6  518.25   26.40
  -5  -5   6  536.75   25.10
   5  -5  -6  531.65   22.50
  -5  -5   6  538.65   25.20
  -5   5   6  526.85   27.60
  -5   5   6  543.95   24.80
   5   5  -6  506.85   23.90
   5   5  -6  537.65   20.10
   5   5  -6  581.24   25.80
   5   5  -6  538.15   20.10
   3  -5  -6  466.15   20.40
   3  -5  -6  419.06   24.70
  -3  -5   6  449.76   21.60
   3  -5  -6  403.76   18.30
  -3  -5   6  413.76   19.70
  -3  -5   6  419.36   23.00
  -3   5   6  404.46   23.70
   3   5  -6  422.26   19.60
   3   5  -6  420.86   20.50
   3   5  -6  468.25   22.20
   3   5  -6  417.86   16.10
  -1  -5   6  141.09    9.40
  -1  -5   6  137.79   10.50
   1  -5  -6  163.78   10.70
  -1  -5   6  122.39   11.80
  -1   5   6  129.89    9.00
   1   5  -6  138.49   10.00
   1   5  -6  127.69    6.50
   1   5  -6  142.79    9.60
   1   5  -6  113.99   10.70
  -1   5   6  131.39   12.40
   1  -5   6   19.20    4.20
  -1  -5  -6   12.30    4.80
   1  -5   6   33.20    6.00
   1  -5   6   23.30    2.90
   1  -5   6    8.30    4.40
  -1   5  -6   27.40    6.70
   1   5   6    8.10    4.80
  -1   5  -6   18.60    4.60
   1   5   6   10.90    4.10
  -1   5  -6   21.90    2.90
   3  -5   6   95.79    6.40
   3  -5   6   66.19   10.50
  -3  -5  -6   85.89    5.50
   3  -5   6   86.59   10.10
  -3   5  -6   86.29    6.20
   3   5   6   89.49    9.00
   3   5   6  104.99   12.10
  -5  -5  -6  102.29    8.10
   5  -5   6  101.39    7.90
   5  -5   6  108.69   11.90
   5  -5   6  113.69   13.30
   5   5   6   96.79   12.40
  -5   5  -6  104.89    7.60
   5   5   6  118.69   11.10
   7  -5   6   12.80    7.10
   7  -5   6   25.00    7.30
  -7  -5  -6   14.90    5.90
   7   5   6   15.10    6.30
  -7   5  -6    9.70    3.70
   7   5   6   34.40   10.00
   9  -5   6   26.90    9.90
   9  -5   6   15.20    9.20
  -9  -5  -6   27.70    8.90
  -9   5  -6   17.70    4.80
   9   5   6   37.80   11.40
   9   5   6   18.90    8.20
  20   6  -6  381.46   28.40
  20   6  -6  361.96   17.80
  18  -6  -6  508.45   31.80
 -18  -6   6  523.35   26.00
 -18  -6   6  459.85   32.80
  18  -6  -6  465.55   28.60
 -18   6   6  510.35   25.30
 -18   6   6  434.46   22.50
  18   6  -6  387.96   20.60
  18   6  -6  476.35   30.00
 -18   6   6  453.25   24.60
 -16  -6   6  710.63   32.90
  16  -6  -6  743.53   37.80
  16  -6  -6  565.94   34.60
 -16  -6   6  767.42   39.70
  16   6  -6  669.83   29.20
 -16   6   6  704.13   30.50
  16   6  -6  738.33   36.60
 -16   6   6  606.64   30.80
 -16   6   6  736.63   32.70
  14  -6  -6  944.61   42.90
  14  -6  -6  987.40   46.70
 -14  -6   6  980.20   42.40
 -14  -6   6 1010.50   47.40
 -14  -6   6  990.70   41.60
 -14   6   6  950.10   40.10
  14   6  -6  997.70   44.90
  14   6  -6  897.11   39.00
  14   6  -6 1015.50   40.60
 -14   6   6  911.31   41.30
 -14   6   6 1021.10   40.50
 -14   6   6  985.00   42.60
 -12  -6   6  987.10   45.70
 -12  -6   6  978.40   41.80
 -12  -6   6  977.40   41.50
  12  -6  -6 1045.90   46.70
  12  -6  -6  939.71   41.20
 -12   6   6  919.11   39.80
 -12   6   6  989.90   40.70
  12   6  -6  955.10   43.00
  12   6  -6  966.40   38.70
 -12   6   6  970.60   38.80
 -12   6   6  953.10   40.80
  12   6  -6  903.81   38.80
 -10  -6   6 2326.37   89.79
 -10  -6   6 2221.08   85.79
 -10  -6   6 2312.77   86.49
  10  -6  -6 2374.76   91.99
  10  -6  -6 2203.38   84.69
 -10  -6   6 2226.38   86.79
 -10   6   6 2294.27   83.99
  10   6  -6 2317.57   82.49
 -10   6   6 2153.18   82.39
  10   6  -6 2116.69   83.79
 -10   6   6 2185.88   85.39
 -10   6   6 2165.38   85.39
  -8  -6   6 1595.14   63.69
   8  -6  -6 1567.54   59.39
  -8  -6   6 1495.55   62.09
   8  -6  -6 1550.74   58.69
  -8  -6   6 1594.94   60.59
   8  -6  -6 1630.64   66.89
  -8  -6   6 1526.95   61.39
  -8   6   6 1562.24   57.69
   8   6  -6 1456.95   59.49
   8   6  -6 1520.95   56.79
  -8   6   6 1527.75   60.69
  -8   6   6 1442.56   61.59
  -6  -6   6  293.37   16.90
  -6  -6   6  293.17   15.50
   6  -6  -6  308.37   21.40
  -6  -6   6  294.27   17.80
   6  -6  -6  293.17   15.40
  -6  -6   6  298.87   17.50
   6  -6  -6  300.97   14.90
   6   6  -6  289.57   12.50
  -6   6   6  295.07   18.30
   6   6  -6  296.37   15.80
   6   6  -6  295.97   12.50
  -6   6   6  305.47   12.10
   6   6  -6  295.97   16.70
  -6   6   6  266.87   16.00
   4  -6  -6 1312.07   57.99
   4  -6  -6 1348.86   51.49
  -4  -6   6 1275.17   52.99
  -4  -6   6 1325.17   52.49
  -4  -6   6 1204.28   54.09
   4  -6  -6 1274.57   49.70
  -4  -6   6 1310.77   50.99
  -4   6   6 1153.48   54.89
   4   6  -6 1334.87   52.89
   4   6  -6 1326.97   46.90
   4   6  -6 1238.48   51.49
  -2  -6   6 1782.72   68.29
  -2  -6   6 1786.92   70.59
   2  -6  -6 1830.22   69.29
  -2  -6   6 1740.53   72.89
   2  -6  -6 1818.62   75.59
   2  -6  -6 1678.23   66.19
  -2   6   6 1688.83   73.59
   2   6  -6 1806.22   67.89
   2   6  -6 1872.71   70.59
   2   6  -6 1764.32   69.29
   2   6  -6 1648.04   63.79
   0  -6   6 1059.09   46.40
   0  -6   6 1015.30   48.70
   0   6  -6 1102.69   45.60
   0   6  -6 1080.19   43.90
   0   6   6 1058.29   50.19
   0   6  -6 1100.89   40.20
   0   6   6 1022.00   43.90
   2  -6   6 1303.17   60.39
   2  -6   6 1392.26   57.69
   2  -6   6 1415.96   50.59
   2   6   6 1261.67   60.29
   2   6   6 1286.27   54.99
  -2   6  -6 1349.96   50.59
   4  -6   6  754.22   37.20
   4  -6   6  709.13   29.90
   4  -6   6  710.93   39.00
  -4   6  -6  720.83   30.00
   4   6   6  750.82   35.30
   4   6   6  747.13   40.10
   6  -6   6  354.16   23.60
   6  -6   6  374.46   26.10
  -6  -6  -6  342.77   15.90
   6  -6   6  307.87   17.10
  -6   6  -6  338.77   17.00
   6   6   6  326.57   25.20
   6   6   6  360.76   22.40
   8  -6   6  408.36   28.40
   8  -6   6  377.86   28.20
  -8   6  -6  400.66   20.20
   8   6   6  406.66   26.10
   8   6   6  399.76   29.80
 -19  -7   6  214.48   16.30
 -17  -7   6  305.77   28.20
 -17  -7   6  288.77   18.50
  17  -7  -6  271.67   22.20
 -17   7   6  303.37   17.30
  17   7  -6  327.27   22.90
 -17   7   6  306.77   18.40
  17   7  -6  249.08   16.10
 -17   7   6  288.57   18.60
 -15  -7   6  470.95   24.80
 -15  -7   6  467.95   30.70
 -15   7   6  438.76   24.00
 -15   7   6  467.65   23.10
  15   7  -6  470.45   27.20
  15   7  -6  434.86   22.10
 -15   7   6  462.65   22.80
 -13  -7   6  467.95   23.90
 -13  -7   6  450.05   24.80
  13  -7  -6  405.46   24.20
 -13  -7   6  456.85   28.80
 -13   7   6  457.55   23.30
 -13   7   6  463.65   22.80
  13   7  -6  461.75   22.20
  13   7  -6  441.06   21.90
 -13   7   6  454.25   21.40
  13   7  -6  427.26   25.10
 -13   7   6  451.25   23.40
 -11  -7   6  588.24   28.50
  11  -7  -6  611.64   34.70
  11  -7  -6  612.14   28.80
 -11  -7   6  635.54   32.90
 -11  -7   6  585.44   29.80
 -11  -7   6  585.24   28.90
 -11   7   6  584.44   28.30
 -11   7   6  631.74   27.40
 -11   7   6  576.44   28.00
  11   7  -6  563.44   27.20
 -11   7   6  580.44   25.50
  11   7  -6  614.24   26.20
   9  -7  -6 1876.11   73.39
  -9  -7   6 1785.12   74.69
  -9  -7   6 2078.19   78.79
   9  -7  -6 1918.61   80.99
  -9  -7   6 1877.71   75.19
  -9  -7   6 1947.31   75.49
  -9   7   6 1870.81   74.29
  -9   7   6 1931.61   75.09
  -9   7   6 1968.40   71.09
   9   7  -6 1849.02   70.39
   9   7  -6 1743.03   72.99
   7  -7  -6 1715.43   65.09
   7  -7  -6 1755.82   73.29
  -7  -7   6 1721.53   68.89
  -7  -7   6 1665.43   67.39
  -7  -7   6 1442.26   66.59
  -7  -7   6 1739.23   66.39
  -7   7   6 1698.83   66.59
   7   7  -6 1598.64   65.39
  -7   7   6 1561.44   67.39
   7   7  -6 1634.64   61.59
   7   7  -6 1737.13   61.89
  -7   7   6 1700.13   60.79
   5  -7  -6 1621.54   63.29
  -5  -7   6 1500.95   66.59
  -5  -7   6 1670.93   66.19
  -5  -7   6 1645.14   64.29
  -5  -7   6 1634.54   66.49
   5   7  -6 1523.35   64.19
   5   7  -6 1680.73   59.99
  -5   7   6 1639.74   65.29
   5   7  -6 1571.24   59.69
  -5   7   6 1622.24   67.79
   5   7  -6 1795.02   76.19
  -3  -7   6 1821.02   72.09
  -3  -7   6 1727.13   74.29
  -3  -7   6 1799.92   72.99
   3  -7  -6 1805.72   69.19
  -3  -7   6 1869.81   71.79
  -3   7   6 1835.52   75.99
   3   7  -6 1881.51   66.09
   3   7  -6 1676.53   70.89
  -1  -7   6  710.93   36.30
   1  -7  -6  701.63   29.90
  -1  -7   6  711.33   34.30
  -1   7   6  690.33   36.90
   1   7  -6  706.13   32.90
   1   7  -6  660.13   27.30
   1  -7   6  664.93   37.10
   1  -7   6  720.23   35.30
  -1   7  -6  744.13   34.00
   1   7   6  680.93   38.00
   1   7   6  708.93   32.40
  -1   7  -6  683.93   28.20
   3  -7   6  653.63   38.10
   3  -7   6  731.73   36.70
  -3   7  -6  681.73   29.00
   3   7   6  728.23   33.90
   3   7   6  722.33   39.60
   5  -7   6  258.07   13.90
   5  -7   6  246.18   21.80
   5  -7   6  250.27   20.00
   5   7   6  234.58   17.60
   5   7   6  227.48   20.90
  -5   7  -6  219.98   13.10
   7  -7   6  174.48   19.90
   7  -7   6  186.88   19.50
   7   7   6  227.38   23.00
   7   7   6  228.88   18.50
  -7   7  -6  194.08   12.80
 -16  -8   6    6.90   15.30
  16  -8  -6   -0.60    8.10
 -16  -8   6    5.40    5.00
 -16   8   6    8.40    6.40
  16   8  -6   10.30    5.40
  16   8  -6    8.90    7.40
 -16   8   6    6.00    4.60
 -16   8   6    3.10    4.40
 -14  -8   6    8.30    8.70
 -14  -8   6    9.70   11.00
 -14  -8   6    6.30    4.20
 -14   8   6    3.60    4.40
  14   8  -6    9.80    4.90
 -14   8   6    4.50    3.60
 -14   8   6   12.00    4.90
  14   8  -6   11.00    6.30
 -12  -8   6   20.40    9.90
 -12  -8   6   19.10    8.40
 -12  -8   6   12.10    4.80
 -12  -8   6   13.50    4.80
  12  -8  -6   10.00    5.80
 -12   8   6   14.30    5.90
  12   8  -6   19.10    6.20
 -12   8   6   17.40    4.10
 -12   8   6   15.80    5.20
 -12   8   6   12.30    4.90
  12   8  -6   18.10    5.10
 -10  -8   6   36.60    6.70
 -10  -8   6   31.80    9.00
 -10  -8   6   33.60    6.50
  10  -8  -6   28.80    6.30
 -10  -8   6   25.60    8.20
 -10   8   6   38.70    7.10
  10   8  -6   34.10    6.20
 -10   8   6   33.50    6.90
 -10   8   6   26.80    5.10
  10   8  -6   47.00    6.20
  -8  -8   6   82.79   11.00
  -8  -8   6   96.59   10.10
  -8  -8   6   83.69   11.30
  -8  -8   6  102.19   10.60
   8  -8  -6   96.29   10.10
   8   8  -6  111.39   10.30
  -8   8   6   94.59   10.20
  -8   8   6   92.09    6.40
   8   8  -6  106.49    7.90
  -8   8   6   88.19    9.40
  -6  -8   6   -1.40    5.30
  -6  -8   6   11.30    5.10
   6  -8  -6    1.80    4.00
  -6  -8   6    2.80    3.50
   6   8  -6    7.40    4.00
  -6   8   6    2.90    4.40
   6   8  -6    6.00    2.90
  -6   8   6    6.30    3.80
   6   8  -6    9.80    2.90
  -4  -8   6   57.79    9.60
  -4  -8   6   40.50    8.30
  -4  -8   6   59.19    9.30
   4  -8  -6   48.00    7.20
  -4   8   6   72.59   10.50
   4   8  -6   56.89    8.20
   4   8  -6   52.39    4.90
  -4   8   6   47.30    7.80
  -2  -8   6   67.79    9.90
  -2  -8   6   98.79   12.10
  -2  -8   6   79.89   10.30
   2  -8  -6   81.89    8.70
   2   8  -6   73.59    5.90
  -2   8   6   74.79   11.60
   2   8  -6   75.19    9.00
   0  -8   6   14.60    6.60
   0  -8   6    7.00    5.50
   0   8  -6   14.10    3.30
   0   8   6   15.10    6.30
   0   8  -6   17.00    5.30
   2  -8   6    7.20    6.30
   2  -8   6    7.10    5.80
   2   8   6    7.80    6.40
  -2   8  -6   11.80    5.40
   2   8   6   14.60    4.80
  -2   8  -6    9.60    3.20
   4  -8   6    6.50    6.80
   4  -8   6    4.80    7.60
  -4   8  -6    5.80    3.50
   4   8   6    2.50    6.80
   4   8   6    1.40    4.30
   6  -8   6   -0.90    8.60
   6  -8   6    7.70    8.00
  -6   8  -6   -0.20    3.80
   6   8   6   -5.30    4.70
   6   8   6    1.80    8.70
 -15  -9   6  541.25   28.50
  15   9  -6  536.85   27.80
 -15   9   6  526.75   28.60
  15   9  -6  513.25   31.10
 -15   9   6  549.05   28.60
 -13  -9   6  386.36   31.50
 -13  -9   6  417.56   23.50
 -13  -9   6  373.86   22.40
 -13   9   6  395.66   22.80
 -13   9   6  386.66   22.70
  13   9  -6  357.46   21.80
 -13   9   6  382.96   20.00
  11  -9  -6  521.35   29.50
 -11  -9   6  525.75   34.00
 -11  -9   6  579.64   29.50
 -11  -9   6  539.95   28.30
  11   9  -6  532.15   28.00
 -11   9   6  501.55   28.00
 -11   9   6  585.64   29.30
  11   9  -6  590.04   26.90
 -11   9   6  532.75   25.10
  -9  -9   6  716.53   36.80
   9  -9  -6  746.53   37.30
  -9  -9   6  811.42   41.40
  -9  -9   6  832.22   38.80
  -9   9   6  759.42   36.90
   9   9  -6  732.93   36.50
  -9   9   6  824.22   31.70
  -9   9   6  753.42   37.40
   9   9  -6  847.22   33.90
  -7  -9   6  600.94   33.60
  -7  -9   6  586.04   31.50
   7  -9  -6  569.64   30.50
  -7  -9   6  615.94   32.70
  -7   9   6  675.13   32.70
   7   9  -6  613.24   26.60
   7   9  -6  670.13   27.30
  -7   9   6  634.84   31.30
   7   9  -6  583.24   30.70
   5  -9  -6  623.94   32.30
  -5  -9   6  702.03   35.60
  -5  -9   6  681.03   35.60
  -5  -9   6  677.03   35.70
   5   9  -6  747.73   29.10
  -5   9   6  700.23   35.60
   5   9  -6  702.53   34.20
  -5   9   6  691.23   34.00
   5   9  -6  650.03   28.40
  -3  -9   6  544.15   31.70
  -3  -9   6  570.24   31.00
   3  -9  -6  547.95   28.50
  -3  -9   6  559.34   32.30
   3   9  -6  642.64   25.20
   3   9  -6  575.94   30.40
  -3   9   6  618.14   32.60
  -3   9   6  566.74   29.90
  -1  -9   6  410.56   27.20
  -1  -9   6  386.76   25.70
  -1  -9   6  418.16   24.60
   1   9  -6  398.26   24.30
   1   9  -6  413.66   19.00
  -1   9   6  437.76   27.20
   1  -9   6  480.55   30.00
  -1  -9  -6  467.25   24.30
   1  -9   6  474.05   31.80
   1   9   6  526.95   31.90
  -1   9  -6  487.45   22.20
  -1   9  -6  513.15   28.40
   3  -9   6  501.05   32.40
   3  -9   6  519.85   34.30
   3   9   6  579.24   35.70
  -3   9  -6  536.45   30.90
   3   9   6  583.84   29.00
  -3   9  -6  539.25   24.80
   5  -9   6  330.17   29.00
   5  -9   6  421.66   29.60
   5   9   6  386.56   24.40
  -5   9  -6  406.16   20.30
 -12 -10   6  319.87   20.90
 -12 -10   6  356.06   22.60
  12  10  -6  314.77   21.10
 -12  10   6  361.46   22.30
 -12  10   6  302.37   21.10
 -10 -10   6  437.36   26.50
 -10 -10   6  478.95   28.00
  10  10  -6  440.06   26.40
 -10  10   6  490.65   27.20
 -10  10   6  507.95   27.80
  10  10  -6  507.75   25.30
   8 -10  -6  427.86   27.70
  -8 -10   6  489.15   29.30
  -8 -10   6  494.25   28.00
  -8 -10   6  440.26   32.10
  -8  10   6  496.75   28.10
   8  10  -6  538.15   24.50
   8  10  -6  522.95   23.80
  -8  10   6  529.35   28.20
   8  10  -6  503.15   28.10
  -6 -10   6  309.27   25.40
  -6 -10   6  349.37   23.20
  -6 -10   6  367.86   24.80
   6 -10  -6  319.37   22.40
  -6  10   6  373.16   23.40
   6  10  -6  372.16   18.10
   6  10  -6  325.27   22.20
  -6  10   6  348.27   22.20
   6  10  -6  375.26   18.40
  -4 -10   6  358.16   26.00
  -4 -10   6  369.86   25.20
   4 -10  -6  345.57   27.10
  -4 -10   6  392.66   25.90
  -4  10   6  374.26   23.00
  -4  10   6  368.36   24.10
   4  10  -6  387.36   24.10
   4  10  -6  368.46   18.30
  -2 -10   6  382.56   26.70
  -2 -10   6  401.76   27.90
  -2  10   6  417.76   24.20
   2  10  -6  376.66   19.20
   2  10  -6  416.26   25.50
  -2  10   6  422.36   27.00
   0 -10   6  274.47   23.40
   0 -10   6  291.67   25.00
   0  10   6  311.67   23.30
   0  10  -6  323.97   16.60
   0  10  -6  322.47   22.40
   2 -10   6  231.28   22.50
   2 -10   6  229.98   23.00
  -2  10  -6  247.78   19.70
  -2  10  -6  281.47   15.50
   2  10   6  270.37   23.10
  -9 -11   6   48.40   10.30
  -9 -11   6   38.30    9.00
   9  11  -6   31.00    9.50
   9  11  -6   54.09    8.00
  -9  11   6   47.90   10.10
  -9  11   6   35.10    9.30
  -7 -11   6    1.70    7.30
  -7 -11   6    3.60    6.60
  -7  11   6    4.90    6.50
   7  11  -6   12.70    5.10
   7  11  -6    2.90    6.60
  -7  11   6    5.40    6.00
  -5 -11   6    5.50    6.90
  -5 -11   6   -7.30    6.70
  -5  11   6   -0.80    5.70
   5  11  -6    2.40    4.80
  -5  11   6   -3.70    6.00
   5  11  -6    0.60    6.60
  -3 -11   6   -6.90    7.20
  -3 -11   6    5.80    8.40
  -3  11   6   13.20    6.60
   3  11  -6    9.60    6.50
  -3  11   6    9.40    6.70
   3  11  -6   10.00    5.10
  22   0  -7   -8.10    8.20
 -22   0   7    4.90    4.00
 -20   0   7    8.40    6.00
  20   0  -7    4.60    6.10
 -20   0   7   -1.70    2.90
 -18   0   7    2.00    3.70
  18   0  -7    1.90    4.40
 -18   0   7    0.90    2.40
  16   0  -7   11.10    4.00
 -16   0   7    2.70    3.20
 -16   0   7    6.00    2.60
 -14   0   7    3.40    2.10
  14   0  -7    8.40    3.00
  14   0  -7    2.50    2.70
 -14   0   7    0.00    2.30
  12   0  -7   -0.70    1.60
 -12   0   7    2.60    1.50
 -12   0   7    3.30    1.90
  12   0  -7    0.80    2.00
 -10   0   7    2.20    1.30
 -10   0   7    4.60    1.50
 -10   0   7    3.70    1.70
  10   0  -7    3.20    1.80
  10   0  -7    2.90    1.50
  -8   0   7    3.50    1.90
  -8   0   7    2.40    0.80
  -8   0   7    0.80    1.00
  -8   0   7    1.50    1.00
  -8   0   7    5.40    2.30
  -6   0   7    2.60    0.80
  -6   0   7    2.30    1.80
  -6   0   7    3.00    1.10
  -6   0   7    7.10    1.30
   4   0  -7    0.60    1.90
  -4   0   7    5.40    1.40
   4   0  -7    5.00    1.30
  -4   0   7    3.00    2.00
  -4   0   7    3.00    1.20
   2   0  -7    1.50    2.20
  -2   0   7    2.40    1.20
  -2   0   7    1.00    2.00
   2   0  -7    1.60    1.60
  -2   0   7    0.70    1.30
   0   0   7    1.30    1.60
   0   0   7    2.80    2.40
   0   0  -7    2.70    3.00
   0   0  -7    5.20    2.20
   0   0   7    1.50    1.70
   2   0   7    2.10    2.10
  -2   0  -7    2.70    4.00
  -2   0  -7    2.60    2.80
   2   0   7    4.60    2.90
   2   0   7    3.60    2.60
   4   0   7   -3.90    2.60
  -4   0  -7    0.90    5.40
   4   0   7    4.00    3.30
   4   0   7   -0.10    2.80
   6   0   7    4.70    3.70
   6   0   7    3.00    4.00
   8   0   7    2.90    4.90
   8   0   7    0.10    5.40
  10   0   7    0.60    6.40
  10   0   7   -0.20    5.70
 -21  -1   7  180.38   18.10
  21  -1  -7  172.38   17.80
 -21  -1   7  200.48   12.70
  21   1  -7  191.68   18.30
 -21   1   7  182.58   13.00
 -21   1   7  219.48   17.50
 -19  -1   7  294.07   19.60
 -19  -1   7  276.97   15.30
  19  -1  -7  294.97   19.60
 -19   1   7  292.17   16.00
 -19   1   7  268.27   18.30
  19   1  -7  298.87   20.10
 -17  -1   7  886.11   38.70
 -17  -1   7  845.12   34.80
  17   1  -7  867.11   36.20
  17   1  -7  788.52   38.20
 -17   1   7  829.02   35.40
 -17   1   7  881.51   37.50
  15  -1  -7 1225.18   51.29
  15  -1  -7 1293.87   50.49
 -15  -1   7 1237.78   49.00
 -15  -1   7 1287.47   52.19
 -15   1   7 1255.17   49.80
 -15   1   7 1332.67   53.19
 -15   1   7 1301.77   51.09
  15   1  -7 1311.57   50.09
  13  -1  -7  405.46   19.10
  13  -1  -7  447.16   19.10
 -13  -1   7  386.16   17.40
 -13  -1   7  392.86   19.60
  13   1  -7  370.76   19.60
  13   1  -7  434.76   18.30
 -13   1   7  428.26   18.80
 -13   1   7  402.96   18.20
  11  -1  -7  896.51   34.40
 -11  -1   7  863.21   33.10
 -11  -1   7  861.91   35.10
  11  -1  -7  859.31   33.80
 -11   1   7  862.01   32.10
 -11   1   7  882.81   33.50
 -11   1   7  885.91   34.10
  11   1  -7  844.82   35.10
  11   1  -7  879.51   33.50
  -9  -1   7 1329.17   50.39
  -9  -1   7 1325.37   52.99
  -9  -1   7 1343.77   48.50
   9  -1  -7 1351.46   50.19
  -9  -1   7 1368.66   48.70
  -9   1   7 1299.17   51.19
   9   1  -7 1334.57   49.00
  -9   1   7 1310.67   48.10
  -9   1   7 1371.36   49.99
  -7  -1   7 2066.79   77.89
  -7  -1   7 2136.59   74.29
  -7  -1   7 1985.50   74.89
  -7  -1   7 2047.00   74.59
  -7  -1   7 2064.79   72.99
  -7   1   7 2079.39   74.59
  -7   1   7 2015.70   76.49
  -7   1   7 2004.10   77.19
  -5  -1   7 3489.25  124.19
  -5  -1   7 3557.14  124.29
  -5  -1   7 3639.14  126.19
  -5  -1   7 3449.16  126.99
  -5  -1   7 3557.14  129.59
  -5   1   7 3554.14  127.89
  -5   1   7 3441.16  126.19
   5   1  -7 3538.05  128.99
  -5   1   7 3454.75  129.79
  -3  -1   7 1340.07   50.69
   3  -1  -7 1371.06   49.10
  -3  -1   7 1298.57   53.09
   3  -1  -7 1295.07   51.19
  -3  -1   7 1363.66   48.40
   3   1  -7 1346.37   49.90
   3   1  -7 1370.56   53.09
  -3   1   7 1369.16   49.80
  -3   1   7 1309.27   49.80
  -3   1   7 1311.67   51.49
  -1  -1   7  926.21   33.70
  -1  -1   7  870.61   36.30
   1  -1  -7  875.31   36.70
  -1  -1   7  870.31   38.30
   1  -1  -7  896.21   35.10
  -1   1   7  847.72   36.40
   1   1  -7  940.11   38.70
  -1   1   7  916.01   34.80
   1   1  -7  899.91   35.60
  -1   1   7  914.41   35.90
   1  -1   7  795.52   35.10
  -1  -1  -7  829.42   33.90
  -1  -1  -7  803.12   35.20
   1  -1   7  788.12   36.60
   1  -1   7  815.72   35.10
   1  -1   7  819.52   31.90
  -1   1  -7  818.72   34.10
  -1   1  -7  870.11   37.30
   1   1   7  787.22   34.60
   1   1   7  844.42   34.90
   1   1   7  826.02   32.70
   3  -1   7  502.65   21.70
   3  -1   7  465.35   25.40
  -3  -1  -7  537.75   26.00
   3  -1   7  518.55   25.50
  -3   1  -7  498.15   26.90
  -3   1  -7  474.95   21.40
   3   1   7  506.25   25.00
   3   1   7  514.25   24.20
   3   1   7  503.05   22.40
   5  -1   7  748.63   36.40
   5  -1   7  824.72   32.70
   5  -1   7  820.32   37.10
  -5  -1  -7  790.72   37.00
   5   1   7  703.13   35.80
   5   1   7  789.82   35.00
   5   1   7  766.32   33.10
  -5   1  -7  717.73   31.50
   7  -1   7  309.87   20.50
   7  -1   7  314.17   21.00
   7   1   7  306.67   20.60
  -7   1  -7  289.67   16.10
   7   1   7  361.06   20.10
   9  -1   7   60.59   10.60
   9  -1   7   70.99   11.00
   9   1   7   69.09   11.90
   9   1   7   75.39   10.50
  -9   1  -7   78.69    8.10
 -22  -2   7  252.07   15.30
  22  -2  -7  224.58   21.80
 -22   2   7  281.87   16.90
  22   2  -7  248.28   22.40
 -20  -2   7  303.37   22.50
 -20  -2   7  319.47   16.80
  20  -2  -7  286.17   21.30
  20   2  -7  333.37   22.40
 -20   2   7  305.27   20.00
 -20   2   7  308.17   17.60
 -18  -2   7  749.53   33.60
 -18  -2   7  872.81   39.60
  18   2  -7  835.52   39.00
 -18   2   7  834.52   36.70
 -18   2   7  824.82   35.30
 -16  -2   7  657.43   28.70
  16  -2  -7  650.23   31.60
 -16  -2   7  741.03   33.40
  16  -2  -7  696.33   27.40
  16   2  -7  734.83   30.30
  16   2  -7  710.03   33.30
 -16   2   7  704.93   30.20
 -16   2   7  722.23   31.00
  14  -2  -7  761.82   31.00
  14  -2  -7  626.94   30.40
 -14  -2   7  727.63   29.00
 -14  -2   7  778.22   33.10
  14  -2  -7  717.73   28.60
  14   2  -7  715.33   29.70
 -14   2   7  769.92   30.70
 -14   2   7  752.32   32.70
  14   2  -7  658.53   32.20
 -14   2   7  741.23   30.30
 -14   2   7  734.93   27.20
 -12  -2   7 1664.43   64.79
  12  -2  -7 1711.53   63.39
  12  -2  -7 1684.93   62.59
 -12  -2   7 1677.43   61.29
  12   2  -7 1613.24   64.79
 -12   2   7 1656.93   61.89
  12   2  -7 1674.03   61.79
 -12   2   7 1652.03   60.69
 -12   2   7 1695.63   63.09
 -10  -2   7 1683.03   65.59
 -10  -2   7 1704.33   64.19
  10  -2  -7 1709.43   62.79
  10  -2  -7 1666.23   60.69
 -10  -2   7 1658.43   60.19
 -10  -2   7 1727.33   60.59
  10   2  -7 1660.83   60.89
 -10   2   7 1654.43   62.69
 -10   2   7 1671.43   62.59
  10   2  -7 1601.04   63.09
 -10   2   7 1680.23   60.49
  -8  -2   7 1985.20   69.19
  -8  -2   7 2017.10   70.79
  -8  -2   7 1925.81   74.99
  -8  -2   7 1896.81   73.09
  -8  -2   7 1899.51   71.69
   8   2  -7 1886.61   69.39
  -8   2   7 1936.81   71.99
  -8   2   7 1965.50   72.99
  -8   2   7 2045.90   74.89
  -6  -2   7 1306.27   50.29
  -6  -2   7 1308.97   49.80
  -6  -2   7 1304.97   49.50
  -6  -2   7 1332.17   53.09
  -6   2   7 1410.56   50.39
   6   2  -7 1365.66   52.69
  -6   2   7 1244.38   52.79
  -6   2   7 1312.27   49.99
  -4  -2   7  824.12   36.50
   4  -2  -7  904.11   30.70
  -4  -2   7  833.92   33.70
  -4  -2   7  806.82   33.50
  -4   2   7  844.32   31.40
   4   2  -7  851.71   35.90
  -4   2   7  821.52   37.00
   4   2  -7  865.91   32.80
  -4   2   7  845.92   33.40
  -2  -2   7 1493.85   56.29
  -2  -2   7 1428.26   55.99
   2  -2  -7 1458.25   54.09
  -2  -2   7 1465.05   52.39
   2  -2  -7 1379.86   54.59
  -2  -2   7 1453.35   58.89
  -2   2   7 1439.66   59.89
   2   2  -7 1506.95   58.59
  -2   2   7 1476.65   54.69
   2   2  -7 1491.65   55.19
  -2   2   7 1452.75   55.09
  -2   2   7 1433.46   55.09
   0  -2   7 1241.38   46.90
   0  -2   7 1270.17   50.89
   0  -2   7 1233.88   52.89
   0  -2  -7 1246.58   49.50
   0  -2  -7 1244.68   49.20
   0  -2   7 1290.17   50.79
   0   2   7 1204.68   49.20
   0   2  -7 1349.07   53.39
   0   2   7 1337.87   49.30
   0   2  -7 1287.57   49.80
   0   2   7 1292.27   49.99
   2  -2   7 1059.49   44.90
   2  -2   7 1034.60   46.50
  -2  -2  -7 1031.10   43.20
   2  -2   7 1052.29   44.20
  -2  -2  -7 1083.59   43.70
   2  -2   7 1070.49   40.60
   2   2   7 1068.09   42.80
  -2   2  -7 1043.40   43.40
   2   2   7 1020.60   44.00
   2   2   7 1087.19   42.40
  -2   2  -7  986.20   40.30
  -2   2  -7 1171.78   47.60
   4  -2   7  637.94   32.30
   4  -2   7  637.84   31.40
  -4  -2  -7  639.94   30.40
   4  -2   7  632.24   26.80
   4   2   7  664.03   28.60
   4   2   7  660.83   28.80
   4   2   7  592.54   30.30
  -4   2  -7  614.64   26.30
   6  -2   7  445.66   20.40
   6  -2   7  390.46   24.10
   6  -2   7  418.56   24.80
  -6  -2  -7  395.16   23.70
   6   2   7  382.76   23.40
   6   2   7  391.36   21.10
  -6   2  -7  399.46   19.00
   8  -2   7  283.77   21.70
   8  -2   7  296.07   21.40
   8   2   7  316.07   18.50
  -8   2  -7  278.17   15.80
   8   2   7  306.27   21.30
  10  -2   7  169.28   18.50
  10  -2   7  161.58   17.30
  10   2   7  190.08   15.30
  10   2   7  151.28   18.30
 -10   2  -7  169.48   12.30
  10   2   7  189.28   18.40
 -21  -3   7   35.10    5.90
  21  -3  -7    6.80    6.80
  21  -3  -7   19.20    8.50
 -21   3   7   17.00    5.10
 -21   3   7   17.70    6.70
  21   3  -7    5.90    8.10
 -19  -3   7   11.40    3.50
 -19  -3   7    6.20    7.30
  19  -3  -7   15.70    6.20
  19   3  -7   25.00    7.50
 -19   3   7   17.60    4.90
 -19   3   7   15.30    5.60
  17  -3  -7   12.60    5.10
 -17  -3   7   16.40    3.50
  17  -3  -7   18.20    5.00
 -17  -3   7   13.70    6.10
 -17   3   7   19.30    4.40
  17   3  -7   13.10    4.90
 -17   3   7   16.80    4.40
  17   3  -7   15.30    5.40
 -15  -3   7   19.00    5.50
  15  -3  -7   21.10    4.90
  15  -3  -7   13.40    7.10
 -15  -3   7   16.20    3.10
  15  -3  -7   17.60    4.80
  15   3  -7   22.50    5.40
  15   3  -7   22.50    4.30
 -15   3   7   24.80    3.10
 -15   3   7   31.50    6.30
 -15   3   7   17.30    3.70
 -15   3   7   21.60    4.00
 -13  -3   7  211.58   10.00
 -13  -3   7  198.38   13.30
  13  -3  -7  179.68   11.40
 -13  -3   7  193.78   13.80
  13  -3  -7  203.38   12.10
  13  -3  -7  204.48   12.60
  13   3  -7  193.68   13.40
 -13   3   7  202.68   11.70
  13   3  -7  225.78   10.90
 -13   3   7  213.38   12.90
 -13   3   7  216.18   10.10
 -13   3   7  203.38   10.80
 -11  -3   7   66.29    7.00
 -11  -3   7   54.19    3.80
 -11  -3   7   50.99    4.40
  11  -3  -7   54.59    4.70
  11  -3  -7   61.29    6.80
 -11  -3   7   51.49    7.00
  11  -3  -7   60.79    5.70
 -11   3   7   49.30    5.20
  11   3  -7   60.69    4.30
 -11   3   7   60.19    4.20
 -11   3   7   64.79    5.20
 -11   3   7   63.79    6.10
  -9  -3   7  114.99    7.80
  -9  -3   7  129.59    9.80
   9  -3  -7  120.59    9.50
   9  -3  -7  139.59    5.90
   9  -3  -7  124.29    5.80
  -9  -3   7  136.19    6.90
  -9  -3   7  122.29    9.30
  -9   3   7  118.99    9.10
   9   3  -7  132.19    5.90
  -9   3   7  119.79    5.60
  -9   3   7  128.99    8.00
  -7  -3   7  147.99    8.90
  -7  -3   7  160.58    8.30
  -7  -3   7  156.18   11.10
  -7  -3   7  156.98   10.10
  -7   3   7  157.78    9.10
  -7   3   7  148.99    8.40
  -7   3   7  147.89   11.20
  -5  -3   7   40.10    4.40
  -5  -3   7   38.50    4.30
  -5  -3   7   35.50    5.90
  -5  -3   7   43.10    4.20
  -5   3   7   40.70    3.60
   5   3  -7   37.60    5.80
  -5   3   7   38.90    6.40
  -3  -3   7  278.57   14.40
   3  -3  -7  295.67   12.90
  -3  -3   7  275.97   17.00
  -3  -3   7  280.57   14.90
   3   3  -7  277.27   13.90
   3   3  -7  325.27   17.10
  -3   3   7  298.27   13.30
  -3   3   7  301.87   13.20
  -3   3   7  295.37   18.10
   1  -3  -7  422.26   18.20
  -1  -3   7  444.96   16.90
  -1  -3   7  451.25   20.70
  -1  -3   7  417.96   21.00
  -1  -3   7  398.16   23.10
   1  -3  -7  453.45   19.70
  -1   3   7  459.85   20.30
   1   3  -7  443.56   20.20
   1   3  -7  455.85   23.20
   1   3  -7  424.56   17.10
  -1   3   7  431.36   19.80
  -1   3   7  447.56   18.70
  -1   3   7  425.26   24.30
  -1  -3  -7   78.59    7.70
   1  -3   7   83.39    5.30
   1  -3   7   77.09    7.90
  -1  -3  -7   77.39    6.40
   1  -3   7   89.19    9.70
   1  -3   7   70.29    7.80
   1   3   7   78.59    6.10
  -1   3  -7   78.39    7.80
  -1   3  -7   79.69    5.20
  -1   3  -7   78.69    9.50
   1   3   7   79.99    9.70
   1   3   7   78.59    7.30
   1   3   7   65.19    7.00
  -3  -3  -7   12.60    4.30
   3  -3   7    6.10    2.60
   3  -3   7   12.10    4.80
   3  -3   7    4.90    4.40
   3   3   7   11.20    5.20
  -3   3  -7    6.70    2.20
   3   3   7    6.60    3.00
   3   3   7    8.30    3.60
   3   3   7    5.10    3.70
   5  -3   7   34.90    6.80
   5  -3   7   38.80    8.20
  -5  -3  -7   41.20    7.60
   5  -3   7   40.20    5.60
   5   3   7   45.20    9.60
   5   3   7   38.70    5.70
  -5   3  -7   45.80    5.20
   5   3   7   34.20    6.70
   7  -3   7   54.99   10.30
  -7  -3  -7   38.10    8.80
   7  -3   7   41.20    8.90
   7   3   7   38.00    6.40
   7   3   7   40.70    9.70
   7   3   7   25.20    7.00
  -7   3  -7   33.60    5.10
   9  -3   7   12.60    8.20
   9  -3   7   18.20    7.40
   9   3   7   13.00    7.20
   9   3   7   12.20    8.70
  -9   3  -7   12.70    4.30
 -20  -4   7  280.97   23.80
  20  -4  -7  222.38   20.00
 -20  -4   7  244.58   14.30
 -20   4   7  249.58   16.30
  20   4  -7  265.87   21.30
 -20   4   7  244.98   17.60
  18  -4  -7  466.05   26.70
 -18  -4   7  519.95   23.10
 -18  -4   7  511.15   30.10
  18  -4  -7  500.75   27.80
 -18   4   7  520.15   25.30
  18   4  -7  503.15   28.80
 -18   4   7  547.05   25.70
 -16  -4   7 1236.48   53.09
 -16  -4   7 1183.38   45.60
  16  -4  -7 1041.30   49.40
  16  -4  -7 1136.89   49.20
 -16   4   7 1122.09   47.90
 -16   4   7 1176.88   45.10
  16   4  -7 1226.08   47.30
 -16   4   7 1234.88   47.80
  16   4  -7 1230.68   52.09
  14  -4  -7  702.13   31.90
  14  -4  -7  692.03   33.90
 -14  -4   7  748.63   29.40
 -14  -4   7  710.23   33.50
 -14  -4   7  838.62   36.50
  14   4  -7  778.52   27.50
  14   4  -7  742.13   30.40
 -14   4   7  734.13   30.60
 -14   4   7  740.93   32.00
 -14   4   7  759.92   33.30
  14   4  -7  673.63   33.90
 -14   4   7  730.23   29.70
 -12  -4   7  877.71   38.80
  12  -4  -7  850.91   34.60
  12  -4  -7  854.71   35.70
 -12  -4   7  892.71   37.90
 -12  -4   7  865.51   34.20
 -12  -4   7  834.22   32.50
  12  -4  -7  822.72   38.10
 -12   4   7  866.11   35.90
  12   4  -7  829.22   33.10
 -12   4   7  835.02   34.30
 -12   4   7  870.51   35.70
  12   4  -7  839.42   32.50
  12   4  -7  839.92   37.30
 -12   4   7  885.21   33.60
 -10  -4   7 1437.56   58.69
  10  -4  -7 1420.16   54.09
 -10  -4   7 1447.06   54.89
 -10  -4   7 1453.65   59.09
  10  -4  -7 1497.35   59.99
 -10   4   7 1473.55   56.49
  10   4  -7 1461.75   53.09
 -10   4   7 1398.66   56.79
 -10   4   7 1473.55   55.79
 -10   4   7 1449.15   53.29
  10   4  -7 1502.65   54.49
  -8  -4   7  897.61   36.30
  -8  -4   7  926.31   40.50
  -8  -4   7  931.11   39.80
   8  -4  -7 1006.40   35.30
  -8  -4   7  922.01   38.20
   8  -4  -7  924.81   41.30
   8  -4  -7  935.21   34.70
  -8   4   7  928.71   36.20
  -8   4   7  897.91   40.30
  -8   4   7  949.11   38.00
   8   4  -7  947.51   37.00
  -6  -4   7  952.30   39.80
  -6  -4   7  956.00   40.20
  -6  -4   7  988.80   42.50
   6  -4  -7  961.40   36.00
  -6  -4   7 1015.20   38.60
   6  -4  -7 1057.99   36.80
  -6   4   7  964.70   43.30
   6   4  -7  992.90   41.40
  -6   4   7  973.90   36.80
  -6   4   7  931.41   39.50
  -4  -4   7 1120.69   43.90
  -4  -4   7 1095.49   47.90
   4  -4  -7 1133.49   41.40
   4  -4  -7 1171.28   42.30
  -4  -4   7 1112.09   45.10
  -4   4   7 1050.99   48.50
   4   4  -7 1125.59   46.60
  -4   4   7 1101.29   41.00
  -2  -4   7  627.54   28.60
   2  -4  -7  657.63   26.70
  -2  -4   7  627.94   27.50
  -2  -4   7  621.54   31.30
   2   4  -7  621.74   27.00
   2   4  -7  655.33   30.20
  -2   4   7  604.64   31.70
   2   4  -7  612.64   23.20
  -2   4   7  599.14   26.40
  -2   4   7  671.23   24.00
   0  -4   7  625.24   32.30
   0  -4  -7  621.84   24.60
   0  -4   7  661.33   24.60
   0  -4   7  619.14   29.80
   0  -4  -7  650.73   28.40
   0  -4   7  645.54   28.80
   0   4   7  624.54   33.20
   0   4   7  679.83   28.60
   0   4  -7  618.74   28.20
   0   4   7  682.03   25.00
   0   4   7  629.44   28.20
   0   4  -7  598.74   24.50
   0   4  -7  666.53   31.50
   2  -4   7  517.85   29.60
  -2  -4  -7  521.25   22.30
   2  -4   7  567.74   22.00
   2  -4   7  521.85   27.30
   2   4   7  544.85   22.10
   2   4   7  512.65   25.70
  -2   4  -7  524.95   21.90
   2   4   7  549.35   31.00
  -4  -4  -7  404.46   19.70
   4  -4   7  386.26   24.80
   4  -4   7  405.26   23.90
   4  -4   7  421.56   18.50
   4   4   7  427.46   22.80
  -4   4  -7  383.86   18.00
   4   4   7  400.66   26.80
   6  -4   7  418.36   26.80
   6  -4   7  437.06   26.30
  -6  -4  -7  400.66   21.90
   6  -4   7  424.16   20.30
   6   4   7  409.66   24.50
  -6   4  -7  409.86   19.40
   6   4   7  388.66   27.90
   8  -4   7  188.78   19.00
  -8  -4  -7  189.48   17.80
   8  -4   7  213.18   19.40
  -8   4  -7  206.28   12.70
   8   4   7  239.28   18.90
   8   4   7  203.78   21.00
 -21  -5   7  285.57   16.30
  21   5  -7  283.27   25.00
 -19  -5   7  496.85   22.70
  19  -5  -7  439.36   29.80
 -19  -5   7  544.65   33.00
 -19   5   7  476.45   24.90
  19   5  -7  457.35   29.30
 -19   5   7  458.45   24.80
  17  -5  -7  535.25   29.30
 -17  -5   7  574.74   33.50
 -17  -5   7  566.24   24.80
 -17  -5   7  592.34   29.10
  17  -5  -7  576.14   31.70
  17   5  -7  574.24   21.80
 -17   5   7  556.64   27.50
 -17   5   7  562.64   26.80
  17   5  -7  575.54   31.40
 -17   5   7  591.64   25.20
  15  -5  -7  354.66   24.60
  15  -5  -7  416.56   22.40
 -15  -5   7  447.06   26.50
 -15  -5   7  437.06   23.00
 -15   5   7  445.76   20.60
 -15   5   7  426.56   21.70
 -15   5   7  433.26   19.80
  15   5  -7  439.36   24.50
 -15   5   7  435.06   25.40
  15   5  -7  421.16   17.80
  15   5  -7  445.16   20.60
  13  -5  -7  751.92   37.80
  13  -5  -7  788.82   33.80
 -13  -5   7  792.92   38.10
 -13  -5   7  818.22   36.10
 -13  -5   7  799.22   33.10
 -13   5   7  780.22   34.20
 -13   5   7  791.42   31.90
 -13   5   7  767.12   32.50
  13   5  -7  794.32   30.90
 -13   5   7  762.02   33.90
  13   5  -7  761.42   31.60
  13   5  -7  791.42   36.30
 -11  -5   7 1997.70   75.99
 -11  -5   7 1873.21   73.99
  11  -5  -7 1756.92   75.79
  11  -5  -7 1909.71   70.49
 -11  -5   7 1921.41   71.49
 -11   5   7 1903.21   71.09
 -11   5   7 1824.22   71.49
  11   5  -7 1868.61   68.39
 -11   5   7 1893.61   71.99
  11   5  -7 1733.23   72.59
 -11   5   7 1826.62   68.69
  11   5  -7 1897.41   69.59
  -9  -5   7 1499.95   57.49
   9  -5  -7 1541.15   63.79
  -9  -5   7 1460.25   60.89
  -9  -5   7 1535.05   61.59
   9  -5  -7 1524.85   56.09
  -9  -5   7 1502.75   59.29
   9  -5  -7 1485.95   56.19
   9   5  -7 1510.65   57.29
  -9   5   7 1541.55   56.69
  -9   5   7 1427.46   59.89
   9   5  -7 1449.15   54.19
  -9   5   7 1506.65   58.79
  -7  -5   7  640.94   29.90
  -7  -5   7  625.44   30.60
  -7  -5   7  624.94   27.00
   7  -5  -7  655.63   33.00
   7  -5  -7  640.04   25.60
  -7  -5   7  629.24   28.90
   7  -5  -7  674.53   26.50
  -7   5   7  630.04   25.10
  -7   5   7  656.53   25.00
   7   5  -7  662.63   27.80
  -7   5   7  604.64   28.30
   7   5  -7  669.63   30.20
  -7   5   7  629.14   31.30
  -5  -5   7 1162.08   52.09
  -5  -5   7 1209.08   47.90
  -5  -5   7 1200.78   49.30
   5  -5  -7 1310.27   47.40
   5  -5  -7 1191.38   46.00
  -5  -5   7 1261.27   50.19
  -5   5   7 1187.28   49.40
  -5   5   7 1190.28   53.19
   5   5  -7 1239.98   49.00
   5   5  -7 1249.57   50.89
   3  -5  -7 1460.15   53.59
  -3  -5   7 1370.46   55.69
  -3  -5   7 1366.46   58.49
  -3  -5   7 1388.56   53.79
   3  -5  -7 1392.66   51.49
   3   5  -7 1337.87   56.19
   3   5  -7 1339.87   53.29
  -3   5   7 1324.47   52.29
  -3   5   7 1341.57   59.29
  -1  -5   7  912.81   43.60
  -1  -5   7  907.81   38.90
   1  -5  -7  987.50   39.30
  -1  -5   7  921.01   40.90
  -1   5   7  890.51   44.20
   1   5  -7  924.01   38.70
  -1   5   7  962.70   38.70
   1   5  -7  936.11   34.50
   1  -5   7  996.10   43.60
   1  -5   7  999.20   36.90
   1  -5   7  944.91   46.20
   1   5   7  946.71   41.30
  -1   5  -7  974.40   36.90
   1   5   7  948.41   46.80
   3  -5   7  432.96   25.30
   3  -5   7  443.36   19.10
  -3  -5  -7  432.86   18.10
   3  -5   7  403.26   26.60
   3   5   7  439.16   23.50
   3   5   7  513.15   29.60
  -3   5  -7  416.26   18.90
  -5  -5  -7  159.08   10.40
   5  -5   7  164.28   10.40
   5  -5   7  150.48   16.30
   5  -5   7  130.09   14.30
   5   5   7  154.68   13.70
   5   5   7  163.28   17.80
  -5   5  -7  144.89    9.50
   7  -5   7  208.18   19.40
   7  -5   7  203.98   19.50
  -7  -5  -7  205.88   14.90
  -7   5  -7  212.28   12.80
   7   5   7  214.48   17.80
   7   5   7  217.78   21.90
   9  -5   7  181.98   20.30
   9  -5   7  142.89   18.90
   9   5   7  141.89   16.90
 -20  -6   7   25.80    6.60
 -20   6   7    8.20    5.40
  20   6  -7   23.40   10.40
 -18  -6   7   46.20    8.00
 -18  -6   7   51.19   13.90
  18  -6  -7   58.09   14.30
  18  -6  -7   59.49   10.90
  18   6  -7   78.09   13.30
  18   6  -7   64.49    6.10
 -18   6   7   56.19    7.10
 -18   6   7   61.29    8.20
 -18   6   7   43.10    7.40
  16  -6  -7   29.60   11.30
 -16  -6   7   37.00    7.20
  16  -6  -7   27.50    7.40
 -16  -6   7   52.39   11.60
  16   6  -7   33.30    4.80
  16   6  -7   28.50    6.50
 -16   6   7   37.10    6.00
 -16   6   7   29.10    6.00
 -16   6   7   30.20    5.20
  16   6  -7   32.40    8.20
 -14  -6   7   84.19    9.20
  14  -6  -7   70.99   12.60
 -14  -6   7   94.89   10.00
 -14  -6   7   77.29   12.30
  14  -6  -7   70.99    9.00
  14   6  -7   79.39    6.70
 -14   6   7   84.49    7.50
 -14   6   7   73.29    8.30
  14   6  -7   93.39    8.10
 -14   6   7   86.19    7.10
  14   6  -7   60.09    9.40
 -14   6   7   82.19    9.70
  12  -6  -7  113.89   14.90
 -12  -6   7  112.99   10.80
 -12  -6   7  115.79   10.20
 -12  -6   7  106.09   13.00
  12  -6  -7  108.29    9.40
 -12   6   7  106.79    8.90
  12   6  -7   93.29    7.20
 -12   6   7  102.59    7.20
 -12   6   7  111.89    9.20
 -12   6   7   98.79    8.80
  12   6  -7  102.49    8.00
  12   6  -7  111.79   10.50
  10  -6  -7   15.10    7.40
 -10  -6   7    7.70    3.40
 -10  -6   7    8.20    4.30
  10  -6  -7    5.90    3.10
 -10  -6   7    7.60    5.30
 -10  -6   7    6.50    3.40
 -10   6   7    5.20    3.00
  10   6  -7    8.30    2.40
 -10   6   7    3.60    2.90
 -10   6   7   12.90    4.20
  10   6  -7    7.40    3.00
  -8  -6   7   40.50    6.90
  -8  -6   7   51.29    6.10
  -8  -6   7   53.09    8.40
  -8  -6   7   34.60    5.90
   8  -6  -7   46.60    5.70
   8  -6  -7   40.70    9.20
   8  -6  -7   49.10    5.60
  -8   6   7   49.80    7.90
   8   6  -7   34.50    3.20
   8   6  -7   44.30    5.40
  -8   6   7   50.69    7.10
  -8   6   7   50.49    4.50
   8   6  -7   43.40    3.40
  -6  -6   7    5.50    3.00
   6  -6  -7   11.20    3.70
  -6  -6   7    7.20    3.40
  -6  -6   7    2.00    3.30
   6  -6  -7   -0.20    6.20
  -6  -6   7    9.60    4.10
   6  -6  -7   16.10    3.50
   6   6  -7    0.20    4.20
   6   6  -7    2.80    2.80
  -6   6   7   11.40    4.80
  -6   6   7    3.40    2.90
   4  -6  -7   10.00    4.10
   4  -6  -7   10.30    3.00
   4  -6  -7    8.90    6.50
  -4  -6   7    0.80    2.60
  -4  -6   7    9.60    3.60
  -4  -6   7    4.60    3.30
  -4  -6   7   10.50    4.30
   4   6  -7    3.70    2.60
  -4   6   7   -2.70    3.90
   2  -6  -7   32.50    4.20
  -2  -6   7   19.40    5.10
  -2  -6   7   38.10    8.70
  -2   6   7   26.80    4.30
   2   6  -7   27.10    2.60
  -2   6   7   16.10    6.80
   2   6  -7   26.20    5.50
   0  -6   7    3.10    3.50
   0  -6   7    5.10    4.60
   0   6   7    5.70    5.00
   0   6   7    1.70    2.60
   0   6  -7    3.50    1.70
   2  -6   7   17.80    7.10
   2  -6   7   12.10    5.20
   2  -6   7   21.20    3.50
   2   6   7    6.60    6.10
   2   6   7   10.10    4.30
  -2   6  -7   13.40    3.00
   4  -6   7   11.70    5.80
   4  -6   7   11.70    4.10
   4  -6   7    6.90    7.10
   4   6   7   12.20    5.20
  -4   6  -7    8.10    3.00
   4   6   7   23.10    8.50
   6  -6   7    9.70    6.50
   6  -6   7   15.30    8.50
  -6  -6  -7    1.20    3.60
   6   6   7   14.40    9.10
   6   6   7   14.30    6.50
  -6   6  -7   14.40    3.90
   8  -6   7   32.40   12.90
   8  -6   7   30.20   10.20
   8   6   7   21.40   11.30
   8   6   7    7.70    7.40
  -8   6  -7   27.40    5.80
 -19  -7   7  198.88   15.70
  19   7  -7  185.58   19.80
  19   7  -7  176.78   12.00
 -19   7   7  182.08   13.50
 -19   7   7  155.18   14.50
 -17  -7   7  241.48   25.90
 -17  -7   7  253.07   18.10
  17   7  -7  288.67   21.80
 -17   7   7  262.17   17.70
 -17   7   7  282.47   16.50
  17   7  -7  245.48   14.70
 -17   7   7  273.97   16.20
 -15  -7   7  258.07   16.60
 -15  -7   7  269.27   17.60
 -15  -7   7  230.18   22.60
  15  -7  -7  213.58   17.50
  15   7  -7  235.08   15.60
  15   7  -7  232.98   13.90
 -15   7   7  238.98   14.80
  15   7  -7  244.48   18.30
 -15   7   7  220.18   13.70
 -15   7   7  224.98   15.30
 -13  -7   7  503.35   30.30
 -13  -7   7  515.55   26.30
  13  -7  -7  461.45   25.00
 -13  -7   7  462.05   25.40
  13   7  -7  488.65   22.50
 -13   7   7  516.55   24.60
 -13   7   7  503.05   24.50
  13   7  -7  453.55   22.90
  13   7  -7  502.75   26.70
 -13   7   7  482.95   25.00
 -13   7   7  483.25   22.00
  11  -7  -7  710.83   32.00
 -11  -7   7  744.83   37.10
 -11  -7   7  714.23   33.60
 -11  -7   7  723.83   33.40
 -11  -7   7  694.43   33.80
  11   7  -7  658.83   31.00
 -11   7   7  733.93   33.00
 -11   7   7  651.73   32.20
  11   7  -7  716.63   29.00
 -11   7   7  718.83   30.30
  -9  -7   7 1042.70   46.90
  -9  -7   7  995.90   44.60
  -9  -7   7 1013.70   45.30
  -9  -7   7 1062.99   43.80
   9  -7  -7 1010.70   41.90
  -9   7   7 1035.10   39.40
  -9   7   7 1023.30   43.80
   9   7  -7 1003.00   38.70
   9   7  -7 1001.50   42.60
  -9   7   7  970.70   44.40
   7  -7  -7  603.24   26.80
  -7  -7   7  598.64   28.00
  -7  -7   7  593.34   29.90
  -7  -7   7  643.24   31.10
  -7  -7   7  596.14   30.70
  -7   7   7  577.44   28.70
  -7   7   7  569.64   30.30
   7   7  -7  586.24   23.10
   7   7  -7  592.14   27.90
   7   7  -7  596.04   23.10
  -5  -7   7  200.88   15.50
  -5  -7   7  183.58   14.00
  -5  -7   7  171.38   12.30
   5  -7  -7  167.38   11.50
  -5  -7   7  180.08   14.00
   5   7  -7  173.08   12.50
  -5   7   7  171.18   15.10
   5   7  -7  185.08    8.40
   5   7  -7  187.88    8.20
  -5   7   7  178.98   13.10
  -3  -7   7  614.64   31.50
  -3  -7   7  624.04   29.90
  -3  -7   7  599.64   33.30
   3  -7  -7  610.84   27.50
  -3   7   7  668.13   35.10
   3   7  -7  636.04   24.00
   3   7  -7  637.24   30.40
   1  -7  -7  831.32   33.70
  -1  -7   7  765.02   40.80
  -1  -7   7  878.51   39.50
  -1   7   7  790.92   42.00
   1   7  -7  839.62   37.70
  -1   7   7  805.22   35.00
   1   7  -7  729.13   30.60
   1  -7   7  457.75   30.00
   1  -7   7  448.06   27.00
  -1   7  -7  469.05   20.10
   1   7   7  505.65   24.80
   1   7   7  495.45   31.30
   3  -7   7  241.98   21.90
   3  -7   7  293.17   21.20
   3   7   7  261.07   23.60
   3   7   7  288.17   18.40
  -3   7  -7  282.17   14.10
   5  -7   7  159.38   11.40
   5  -7   7  165.38   18.80
   5  -7   7  138.29   17.00
   5   7   7  156.18   14.40
   5   7   7  124.59   18.70
  -5   7  -7  139.49   10.10
 -16  -8   7  707.93   35.30
 -16   8   7  719.23   32.30
 -16   8   7  714.63   35.00
  16   8  -7  671.73   32.30
  16   8  -7  788.92   38.40
 -16   8   7  735.33   33.90
 -14  -8   7  676.03   34.50
 -14  -8   7  652.83   32.90
 -14  -8   7  700.33   33.20
 -14  -8   7  728.93   40.40
  14  -8  -7  621.04   33.60
 -14   8   7  695.83   32.40
  14   8  -7  620.64   30.60
 -14   8   7  665.53   32.80
  14   8  -7  664.33   30.80
 -14   8   7  650.13   29.20
 -14   8   7  697.93   32.10
 -12  -8   7  958.90   46.70
 -12  -8   7  864.31   42.20
 -12  -8   7  926.91   41.90
 -12  -8   7  930.61   41.70
  12  -8  -7  884.41   40.90
  12   8  -7  839.42   39.20
 -12   8   7  903.71   40.70
 -12   8   7  922.71   41.20
  12   8  -7  936.91   37.60
 -12   8   7  908.41   38.10
 -10  -8   7  957.30   46.20
 -10  -8   7  939.71   43.20
  10  -8  -7  928.51   41.30
 -10  -8   7  915.51   43.40
 -10  -8   7 1004.20   43.70
 -10   8   7  925.41   42.10
 -10   8   7  961.50   37.50
 -10   8   7  954.40   42.70
  10   8  -7  969.40   37.70
  10   8  -7  889.01   41.00
   8  -8  -7  648.54   30.60
  -8  -8   7  653.03   33.30
  -8  -8   7  625.04   33.30
  -8  -8   7  686.13   35.20
  -8   8   7  635.04   31.80
   8   8  -7  690.83   26.90
  -8   8   7  703.63   33.70
   8   8  -7  661.13   26.70
   8   8  -7  646.54   31.30
  -6  -8   7  983.90   45.10
   6  -8  -7  963.00   41.30
  -6  -8   7  986.90   45.20
  -6  -8   7  977.30   45.60
   6   8  -7  955.10   42.90
   6   8  -7  944.31   36.80
   6   8  -7  979.60   37.20
  -6   8   7 1021.20   46.00
  -6   8   7  934.31   43.20
  -4  -8   7 1336.17   62.69
  -4  -8   7 1380.96   61.69
  -4  -8   7 1505.55   61.09
   4  -8  -7 1388.76   57.39
  -4   8   7 1548.45   60.99
  -4   8   7 1465.25   63.59
   4   8  -7 1454.05   60.29
   4   8  -7 1415.76   52.99
   2  -8  -7  692.13   31.30
  -2  -8   7  691.93   36.10
  -2  -8   7  702.23   38.00
  -2  -8   7  718.63   34.20
   2   8  -7  716.73   27.90
   2   8  -7  711.33   34.70
  -2   8   7  710.63   38.70
   0  -8   7  456.25   27.10
   0  -8   7  449.16   29.20
   0  -8  -7  433.76   21.50
   0   8  -7  408.56   18.80
   0   8  -7  416.56   24.70
   0   8   7  469.25   23.00
   0   8   7  442.96   29.70
   2  -8   7  584.44   35.50
   2  -8   7  559.54   32.60
  -2   8  -7  542.85   24.20
   2   8   7  570.54   28.90
   2   8   7  599.54   36.50
   4  -8   7  377.26   27.10
   4  -8   7  378.86   29.30
   4   8   7  399.26   30.60
  -4   8  -7  372.06   18.70
   4   8   7  394.76   23.60
 -15  -9   7   85.79   11.50
 -15  -9   7   69.29   10.90
 -15   9   7   63.49    9.80
 -15   9   7   69.89   10.40
  15   9  -7   87.69   11.00
 -13  -9   7   20.70    6.50
 -13  -9   7   19.00   13.30
  13  -9  -7   10.30    8.20
 -13  -9   7    7.50    5.70
 -13   9   7   18.10    6.30
 -13   9   7   28.50    7.40
  13   9  -7   19.00    6.50
 -13   9   7   30.20    7.40
  13   9  -7   21.40    7.60
 -11  -9   7   64.89   10.00
 -11  -9   7   50.89   13.00
 -11  -9   7   53.29    9.10
  11  -9  -7   47.30    9.80
 -11   9   7   59.49    7.60
  11   9  -7   50.99    8.50
 -11   9   7   66.29    9.80
 -11   9   7   51.09    8.70
  11   9  -7   59.79    7.90
  -9  -9   7   70.49   13.20
   9  -9  -7   88.29   11.10
  -9  -9   7   92.89   11.90
  -9  -9   7  103.09   12.10
  -9   9   7   91.49   11.10
  -9   9   7  102.29    6.00
   9   9  -7   87.49    7.60
  -9   9   7   99.69   12.40
   9   9  -7   92.39    8.70
   9   9  -7   85.89   10.80
  -7  -9   7  101.79   13.80
   7  -9  -7   87.69   11.00
  -7  -9   7   87.49   11.80
  -7  -9   7   86.19   11.70
  -7   9   7   93.89   11.00
  -7   9   7  112.79   11.60
   7   9  -7  104.59    7.90
   7   9  -7   98.09    7.30
   7   9  -7   97.19   10.80
  -5  -9   7  206.08   17.10
  -5  -9   7  168.78   17.40
   5  -9  -7  168.68   14.50
  -5  -9   7  192.68   17.00
   5   9  -7  201.58   15.30
   5   9  -7  177.08   10.00
   5   9  -7  173.68   10.30
  -5   9   7  189.68   15.20
  -5   9   7  203.88   17.00
  -3  -9   7   65.89   11.60
   3  -9  -7   45.40    7.90
  -3  -9   7   26.00    8.30
  -3  -9   7   47.80    9.90
  -3   9   7   46.70    8.60
   3   9  -7   44.40    8.80
  -3   9   7   45.20    9.90
   3   9  -7   46.70    5.30
  -1  -9   7   66.49   11.50
   1  -9  -7   45.30    7.30
  -1  -9   7   25.80    9.20
  -1  -9   7   35.70   10.20
  -1   9   7   31.90    9.30
   1   9  -7   47.50    9.00
   1   9  -7   47.50    5.30
   1  -9   7   78.59   14.00
   1  -9   7   79.59   12.70
   1   9   7   99.79   16.10
  -1   9  -7   78.99   11.90
  -1   9  -7   80.89    7.50
   3  -9   7   40.00   11.70
   3  -9   7   22.40    8.90
  -3   9  -7   23.80    5.30
   3   9   7   23.20   10.50
   3   9   7   24.50    6.70
 -12 -10   7   77.49   11.50
 -12 -10   7   89.99   12.20
  12  10  -7   94.89   12.50
 -12  10   7   97.79   12.10
 -12  10   7   78.09   11.20
 -10 -10   7  242.78   19.90
 -10 -10   7  229.78   18.80
  10  10  -7  248.78   14.30
  10  10  -7  248.08   18.70
 -10  10   7  259.67   18.70
 -10  10   7  223.48   18.00
  -8 -10   7  374.16   25.00
  -8 -10   7  334.27   23.20
  -8 -10   7  328.17   27.90
   8  10  -7  348.37   22.60
   8  10  -7  359.66   17.40
  -8  10   7  339.07   22.80
  -8  10   7  315.67   21.60
  -6 -10   7  176.28   17.20
  -6 -10   7  184.58   18.80
  -6 -10   7  219.58   22.50
  -6  10   7  211.48   16.40
   6  10  -7  160.38   15.80
   6  10  -7  186.78   11.20
  -6  10   7  170.98   16.40
  -4 -10   7  235.68   22.00
  -4 -10   7  204.28   19.60
  -4 -10   7  195.68   19.30
  -4  10   7  223.78   19.20
   4  10  -7  215.38   17.90
   4  10  -7  220.78   12.20
  -4  10   7  200.68   16.90
  -2 -10   7  279.87   23.50
  -2 -10   7  276.57   23.80
  -2  10   7  291.17   23.10
  -2  10   7  320.77   21.40
   2  10  -7  319.47   15.40
   2  10  -7  294.87   21.60
   0 -10   7  212.98   21.30
   0 -10   7  224.88   23.30
   0  10   7  212.78   21.30
   0  10  -7  193.58   17.70
   0  10  -7  237.38   13.30
 -22   0   8  300.87   16.90
  22   0  -8  247.38   21.70
  20   0  -8  859.31   41.80
 -20   0   8  882.81   41.20
 -20   0   8  937.91   38.10
 -18   0   8 1088.49   45.60
 -18   0   8 1024.40   42.50
  18   0  -8 1060.29   46.00
  16   0  -8 2383.46   88.89
  16   0  -8 2322.67   90.49
 -16   0   8 2449.05   90.19
 -16   0   8 2333.87   87.89
 -14   0   8 3744.03  138.59
  14   0  -8 3887.61  139.39
 -14   0   8 3990.80  140.29
  14   0  -8 3757.72  140.39
 -12   0   8 1562.14   58.79
 -12   0   8 1643.04   59.59
  12   0  -8 1524.05   59.39
  12   0  -8 1619.24   59.39
 -10   0   8 2079.69   71.79
 -10   0   8 2056.49   76.29
 -10   0   8 1669.53   71.59
 -10   0   8 2118.89   73.69
  -8   0   8 3513.45  117.19
  -8   0   8 3192.88  117.99
  -8   0   8 3240.18  117.19
  -8   0   8 3274.57  122.09
  -6   0   8 1854.51   71.29
  -6   0   8 1885.11   67.39
  -6   0   8 1958.60   67.09
  -6   0   8 1744.63   66.89
  -4   0   8 1391.56   56.69
  -4   0   8 1443.86   52.99
  -4   0   8 1453.75   53.99
   4   0  -8 1528.25   53.09
   4   0  -8 1413.76   56.59
  -2   0   8 1224.78   44.80
  -2   0   8 1176.98   48.90
   2   0  -8 1192.88   45.70
   2   0  -8 1204.68   48.80
  -2   0   8 1189.28   46.70
   0   0   8 1263.77   54.49
   0   0  -8 1334.07   52.19
   0   0  -8 1369.96   54.99
   0   0   8 1365.96   53.39
   0   0   8 1358.86   50.59
   2   0   8  586.34   28.40
   2   0   8  578.04   27.80
  -2   0  -8  600.64   29.60
   2   0   8  567.84   24.80
   4   0   8  561.24   28.80
   4   0   8  588.94   25.60
   4   0   8  539.85   28.20
   6   0   8  952.00   44.60
   6   0   8  922.81   43.20
   8   0   8  396.96   26.00
   8   0   8  386.86   24.60
 -23  -1   8  153.68   11.80
 -23   1   8  159.18   12.60
 -21  -1   8  187.78   17.10
  21  -1  -8  172.38   16.80
 -21  -1   8  170.68   11.70
 -21   1   8  211.08   16.20
 -21   1   8  177.58   12.60
  21   1  -8  180.88   17.30
  19  -1  -8  161.18   14.40
 -19  -1   8  177.68   11.20
 -19  -1   8  176.18   14.80
 -19   1   8  200.68   12.10
  19   1  -8  191.38   15.20
 -19   1   8  199.98   14.10
 -17  -1   8  339.97   16.10
 -17  -1   8  321.77   18.70
  17  -1  -8  307.57   18.30
  17  -1  -8  332.37   22.00
  17   1  -8  319.37   17.00
  17   1  -8  303.67   19.90
 -17   1   8  338.67   16.60
 -17   1   8  326.27   17.70
 -15  -1   8  164.68   11.20
  15  -1  -8  152.68   10.60
  15  -1  -8  159.78   10.20
 -15  -1   8  138.69    8.60
  15   1  -8  157.88    9.80
 -15   1   8  155.58    9.40
  15   1  -8  147.19   11.20
 -15   1   8  153.28    9.90
  13  -1  -8  142.79    8.60
  13  -1  -8  133.79    8.80
 -13  -1   8  127.99    9.00
 -13  -1   8  137.09    7.70
 -13   1   8  132.69    8.20
 -13   1   8  155.38    8.30
  13   1  -8  143.19    9.70
  13   1  -8  143.89    8.30
 -11  -1   8  478.75   18.70
 -11  -1   8  462.55   20.10
 -11  -1   8  413.86   17.20
  11  -1  -8  470.25   19.80
 -11  -1   8  449.76   22.50
  11  -1  -8  443.46   17.70
 -11  -1   8  460.65   18.40
 -11   1   8  480.95   18.10
 -11   1   8  484.25   19.60
  11   1  -8  482.75   18.90
 -11   1   8  439.96   19.60
  11   1  -8  444.06   19.30
  -9  -1   8  865.41   32.80
  -9  -1   8  835.22   31.00
  -9  -1   8  820.32   31.80
  -9  -1   8  859.01   31.90
  -9  -1   8  823.52   35.90
  -9   1   8  813.82   34.70
  -9   1   8  842.92   32.40
  -9   1   8  837.72   35.10
  -7  -1   8  714.93   26.10
  -7  -1   8  724.83   27.60
  -7  -1   8  736.53   31.70
  -7  -1   8  699.63   28.40
  -7  -1   8  662.33   28.10
  -7   1   8  757.72   30.40
  -7   1   8  712.83   27.90
  -7   1   8  700.43   31.20
  -5  -1   8  294.27   11.60
  -5  -1   8  306.07   13.50
  -5  -1   8  298.17   14.60
  -5  -1   8  283.57   11.70
  -5  -1   8  294.07   16.30
   5   1  -8  287.67   15.90
  -5   1   8  309.37   11.90
  -5   1   8  298.17   15.10
  -3  -1   8  476.45   24.40
  -3  -1   8  511.65   19.60
  -3  -1   8  495.25   22.00
   3  -1  -8  508.95   22.80
   3  -1  -8  518.65   20.50
  -3   1   8  517.85   21.10
   3   1  -8  523.85   21.30
  -3   1   8  483.05   22.90
   3   1  -8  523.55   24.50
  -3   1   8  509.75   21.30
  -1  -1   8  531.05   26.50
  -1  -1   8  514.25   24.50
   1  -1  -8  539.75   25.00
  -1  -1   8  546.25   21.70
   1  -1  -8  559.24   23.30
  -1  -1   8  551.14   25.50
   1   1  -8  554.94   23.80
  -1   1   8  545.35   24.10
  -1   1   8  549.95   22.80
  -1   1   8  527.85   24.90
   1   1  -8  551.24   26.90
   1  -1   8  194.38   12.90
   1  -1   8  178.28   13.70
  -1  -1  -8  186.18   13.20
   1  -1   8  188.18   10.10
  -1   1  -8  214.68   15.10
   1   1   8  188.28   12.50
   1   1   8  183.28   10.80
   1   1   8  205.28   12.90
   3  -1   8  179.68   14.20
   3  -1   8  179.78   10.60
  -3  -1  -8  174.68   14.40
   3  -1   8  182.48   13.60
   3   1   8  182.98   11.30
   3   1   8  184.78   13.50
   3   1   8  169.08   12.60
   5  -1   8   56.49    8.90
   5  -1   8   62.99    7.30
   5  -1   8   60.69    9.30
   5   1   8   61.49    9.30
   5   1   8   53.49    8.50
   7  -1   8    7.70    6.20
   7  -1   8    4.90    5.30
   7   1   8    8.90    6.10
   7   1   8    7.30    5.20
   9  -1   8   21.00    9.10
   9  -1   8   20.70    8.20
   9   1   8   24.70    7.50
   9   1   8    0.90    7.00
  22  -2  -8   -4.70    7.50
 -22  -2   8   18.40    5.00
 -22   2   8   33.20    6.40
  22   2  -8   35.40   11.10
  20  -2  -8   45.80    9.10
 -20  -2   8   52.99    9.30
 -20  -2   8   40.20    5.70
 -20   2   8   51.49    7.10
 -20   2   8   46.20    8.20
  20   2  -8   66.09   10.20
 -18  -2   8  157.58   13.80
  18  -2  -8  159.78   13.20
 -18  -2   8  160.98    9.90
  18   2  -8  155.88   13.70
 -18   2   8  166.58   11.10
  18   2  -8  154.68   11.90
 -18   2   8  176.58   12.10
 -16  -2   8  246.58   12.60
 -16  -2   8  256.17   16.20
  16  -2  -8  234.08   14.70
  16  -2  -8  268.47   14.90
 -16   2   8  267.37   14.20
  16   2  -8  268.67   14.00
 -16   2   8  240.48   13.70
 -14  -2   8   53.69    4.40
  14  -2  -8   61.29    6.30
  14  -2  -8   51.59    5.90
 -14  -2   8   44.10    6.60
 -14   2   8   49.20    5.10
  14   2  -8   43.10    6.50
 -14   2   8   54.59    5.00
  14   2  -8   56.99    5.20
 -14   2   8   48.60    3.30
 -12  -2   8   56.19    4.10
 -12  -2   8   58.09    6.40
  12  -2  -8   65.69    5.90
  12  -2  -8   55.59    4.60
 -12  -2   8   54.69    6.80
 -12   2   8   58.49    4.10
  12   2  -8   63.09    4.70
  12   2  -8   66.69    6.40
 -12   2   8   68.09    5.60
 -12   2   8   69.59    4.90
 -10  -2   8  505.35   19.20
 -10  -2   8  477.35   20.60
 -10  -2   8  491.35   18.50
 -10  -2   8  471.65   21.90
 -10  -2   8  472.65   23.80
 -10   2   8  501.15   22.70
 -10   2   8  468.25   22.50
 -10   2   8  510.35   21.00
  10   2  -8  464.75   18.80
  -8  -2   8  423.26   19.20
  -8  -2   8  430.36   21.50
  -8  -2   8  422.96   18.00
  -8  -2   8  401.66   17.50
  -8   2   8  386.26   20.70
  -8   2   8  405.26   18.10
  -8   2   8  438.86   19.30
  -6  -2   8  578.64   24.00
  -6  -2   8  557.54   23.80
  -6  -2   8  556.74   27.00
  -6  -2   8  584.24   23.90
  -6   2   8  524.55   27.00
  -6   2   8  555.54   23.80
   6   2  -8  627.54   27.10
  -6   2   8  587.94   24.40
  -4  -2   8  612.54   29.70
  -4  -2   8  634.74   26.90
   4  -2  -8  679.93   23.90
  -4  -2   8  600.74   27.00
  -4   2   8  597.84   30.40
   4   2  -8  647.84   29.40
  -4   2   8  636.14   26.70
  -4   2   8  662.43   24.70
   4   2  -8  650.13   26.00
  -2  -2   8  225.58   13.20
   2  -2  -8  204.38   11.90
  -2  -2   8  220.18   15.20
  -2  -2   8  219.08   13.40
  -2  -2   8  229.68    9.90
   2  -2  -8  249.68   11.70
  -2   2   8  250.07   12.30
   2   2  -8  244.68   12.60
  -2   2   8  243.58   16.40
  -2   2   8  250.77   12.50
  -2   2   8  227.58   12.60
   2   2  -8  271.07   16.00
   0  -2   8  389.56   15.40
   0  -2   8  325.17   18.60
   0  -2  -8  333.57   17.60
   0  -2   8  350.66   20.90
   0  -2  -8  352.26   17.30
   0  -2   8  364.66   19.20
   0   2  -8  395.56   21.40
   0   2   8  340.27   17.50
   0   2   8  374.16   17.30
   0   2   8  334.07   17.70
  -2  -2  -8  233.38   14.50
   2  -2   8  222.78   16.30
   2  -2   8  236.88   15.30
   2  -2   8  227.98   11.70
   2   2   8  240.68   13.60
   2   2   8  207.68   14.10
   2   2   8  217.88   13.30
   4  -2   8   68.99   10.30
   4  -2   8   60.19    9.50
  -4  -2  -8   88.89   11.10
   4  -2   8   72.49    7.30
  -4   2  -8   70.99    6.50
   4   2   8   73.89    9.70
   4   2   8   80.99    8.30
   6  -2   8   65.49   10.20
   6  -2   8   58.59   10.20
  -6   2  -8   63.69    7.00
   6   2   8   68.19    9.00
   6   2   8   61.99    9.70
   8  -2   8   27.40    8.50
   8  -2   8   17.80    8.60
  -8   2  -8   32.90    6.20
   8   2   8   28.00   10.20
   8   2   8   34.40    9.00
   8   2   8   32.60    7.30
 -21  -3   8  482.55   33.90
 -21  -3   8  473.85   23.10
 -21   3   8  508.65   26.90
  21   3  -8  513.95   30.30
 -21   3   8  491.35   25.20
  19  -3  -8  578.64   30.20
 -19  -3   8  668.93   33.10
 -19  -3   8  597.54   26.00
  19  -3  -8  544.55   24.40
 -19   3   8  596.04   28.00
  19   3  -8  562.14   31.40
 -19   3   8  623.84   28.80
  17  -3  -8  816.72   38.10
  17  -3  -8  835.82   35.30
 -17  -3   8  938.21   41.20
 -17  -3   8  879.41   35.30
  17   3  -8  823.52   40.30
  17   3  -8  942.81   37.10
 -17   3   8  911.41   37.20
 -17   3   8  908.01   37.60
 -17   3   8  882.21   33.30
 -15  -3   8  827.72   40.20
 -15  -3   8  906.51   35.60
  15  -3  -8  957.70   37.50
  15  -3  -8  955.50   39.10
  15  -3  -8  912.61   37.90
 -15  -3   8  925.51   40.90
  15   3  -8  925.31   36.70
 -15   3   8  933.81   39.90
  15   3  -8  883.31   40.40
 -15   3   8  854.21   37.70
 -15   3   8  930.11   34.90
 -15   3   8  976.60   37.00
  13  -3  -8 1273.07   49.30
 -13  -3   8 1339.87   48.30
 -13  -3   8 1289.97   53.29
 -13  -3   8 1221.08   53.39
  13  -3  -8 1304.97   51.19
 -13   3   8 1307.67   51.89
 -13   3   8 1320.87   50.99
 -13   3   8 1273.97   48.90
 -13   3   8 1327.87   48.70
  13   3  -8 1323.27   48.90
 -11  -3   8 1576.24   57.79
 -11  -3   8 1601.84   62.39
 -11  -3   8 1563.54   56.79
 -11  -3   8 1500.65   63.09
  11   3  -8 1621.84   57.29
 -11   3   8 1573.94   60.59
 -11   3   8 1550.44   56.59
 -11   3   8 1602.24   60.19
  -9  -3   8 1655.33   66.89
  -9  -3   8 1706.73   61.69
  -9  -3   8 1651.53   64.99
  -9  -3   8 1671.83   63.29
  -9   3   8 1596.04   66.09
  -9   3   8 1712.03   63.39
  -9   3   8 1695.33   63.39
  -7  -3   8 2381.26   94.59
  -7  -3   8 2450.05   91.89
  -7  -3   8 2523.95   90.19
  -7  -3   8 2391.36   90.89
   7   3  -8 2636.14   94.49
  -7   3   8 2467.95   91.09
  -7   3   8 2309.17   94.69
  -7   3   8 2515.55   90.29
  -5  -3   8 1121.39   44.40
  -5  -3   8 1162.18   49.00
  -5  -3   8 1125.99   45.10
  -5  -3   8 1103.69   44.50
  -5   3   8 1140.79   43.50
  -5   3   8 1094.99   49.00
   5   3  -8 1232.48   48.30
   3  -3  -8  892.81   33.30
  -3  -3   8  813.92   39.00
  -3  -3   8  865.81   35.80
  -3  -3   8  836.72   36.20
   3   3  -8  923.41   39.00
  -3   3   8  864.11   33.90
  -3   3   8  863.91   40.50
  -3   3   8  868.01   34.10
   3   3  -8  846.02   34.80
  -1  -3   8 1731.53   71.69
  -1  -3   8 1600.94   68.19
  -1  -3   8 1718.83   63.09
  -1  -3   8 1711.93   67.79
   1  -3  -8 1831.02   66.19
   1  -3  -8 1697.73   64.89
  -1   3   8 1715.03   66.59
   1   3  -8 1846.52   69.59
   1   3  -8 1876.61   71.59
  -1   3   8 1697.23   65.49
  -1   3   8 1742.13   73.19
  -1   3   8 1822.52   67.09
   1  -3   8 1237.78   43.90
   1  -3   8 1145.49   49.40
  -1  -3  -8 1141.39   45.80
   1  -3   8 1102.19   51.79
   1   3   8 1175.68   47.90
   1   3   8 1196.78   47.00
   1   3   8 1165.18   45.50
   1   3   8 1167.58   53.79
  -1   3  -8 1106.69   43.90
  -3  -3  -8  490.45   24.50
   3  -3   8  501.15   27.60
   3  -3   8  537.05   29.80
   3  -3   8  527.95   22.50
   3   3   8  540.25   31.70
  -3   3  -8  510.45   22.30
   3   3   8  529.45   26.80
   3   3   8  539.35   24.00
  -5  -3  -8  472.65   25.70
   5  -3   8  516.25   28.80
   5  -3   8  501.65   29.80
   5  -3   8  514.75   23.20
  -5   3  -8  474.85   22.40
   5   3   8  496.45   27.40
   5   3   8  512.25   32.30
   5   3   8  519.25   24.10
   7  -3   8  335.57   24.00
   7  -3   8  359.26   24.90
   7   3   8  356.06   19.40
  -7   3  -8  324.17   17.60
   7   3   8  337.37   23.30
   7   3   8  329.47   26.90
  22   4  -8  124.99   16.00
 -20  -4   8  182.08   11.20
 -20  -4   8  187.18   19.70
  20   4  -8  168.98   17.70
 -20   4   8  160.18   12.60
 -20   4   8  158.68   13.50
 -18  -4   8  304.47   21.50
  18  -4  -8  276.77   17.70
  18  -4  -8  262.07   18.40
 -18  -4   8  273.07   14.20
 -18   4   8  290.27   16.80
  18   4  -8  286.97   20.40
  18   4  -8  272.97   16.80
 -18   4   8  293.17   13.50
 -18   4   8  281.87   16.20
 -16  -4   8  242.08   11.90
  16  -4  -8  226.78   15.60
 -16  -4   8  259.47   18.10
  16  -4  -8  236.98   14.80
 -16  -4   8  236.08   15.80
  16   4  -8  211.88   16.00
 -16   4   8  237.28   13.00
 -16   4   8  215.38   11.40
 -16   4   8  226.68   14.10
  16   4  -8  232.88   13.30
 -14  -4   8  584.04   29.70
 -14  -4   8  608.64   24.70
 -14  -4   8  648.44   31.30
  14  -4  -8  623.74   26.90
  14  -4  -8  612.64   29.70
 -14   4   8  634.74   28.70
 -14   4   8  621.34   25.80
  14   4  -8  638.14   25.80
  14   4  -8  604.84   29.70
 -14   4   8  636.84   25.70
 -14   4   8  611.44   27.70
 -12  -4   8  862.01   37.90
  12  -4  -8  811.42   32.30
 -12  -4   8  819.02   37.30
 -12  -4   8  867.21   33.40
  12  -4  -8  887.61   37.70
 -12   4   8  837.12   34.80
  12   4  -8  836.52   31.60
  12   4  -8  755.12   35.10
 -12   4   8  810.42   34.70
 -12   4   8  779.22   31.40
 -12   4   8  850.91   34.30
  10  -4  -8  719.53   24.80
 -10  -4   8  632.54   31.00
  10  -4  -8  663.93   31.20
 -10  -4   8  618.84   28.30
 -10  -4   8  654.43   26.50
 -10  -4   8  657.63   30.50
 -10   4   8  644.34   29.80
 -10   4   8  650.33   27.30
  10   4  -8  624.64   23.90
 -10   4   8  660.73   28.40
  -8  -4   8  652.43   31.50
  -8  -4   8  669.83   30.30
  -8  -4   8  688.13   27.30
  -8  -4   8  673.13   29.00
  -8   4   8  671.33   32.10
  -8   4   8  677.83   28.90
  -8   4   8  619.14   26.70
  -6  -4   8  513.25   23.70
  -6  -4   8  494.75   22.20
  -6  -4   8  519.55   23.60
  -6  -4   8  489.65   26.20
   6   4  -8  546.35   25.60
  -6   4   8  497.65   23.40
  -6   4   8  514.05   20.60
  -6   4   8  490.35   26.80
  -4  -4   8  764.52   33.00
   4  -4  -8  823.42   29.60
   4  -4  -8  761.52   28.60
  -4  -4   8  710.53   35.60
  -4  -4   8  748.83   31.80
  -4   4   8  731.83   36.70
   4   4  -8  746.73   31.30
  -4   4   8  715.63   29.30
  -4   4   8  733.83   28.90
   4   4  -8  810.52   35.10
  -2  -4   8  733.83   32.50
   2  -4  -8  689.23   29.50
  -2  -4   8  701.33   35.50
  -2  -4   8  712.53   31.20
  -2   4   8  743.93   27.70
  -2   4   8  707.43   29.90
  -2   4   8  690.23   36.00
   0  -4   8  360.96   14.50
   0  -4   8  338.27   19.80
   0  -4  -8  347.37   15.00
   0  -4   8  343.77   22.40
   0   4   8  323.47   22.60
   0   4   8  368.96   15.40
   0   4   8  352.96   18.40
   0   4   8  336.17   18.00
   0   4  -8  338.67   14.70
   2  -4   8  218.88   17.90
   2  -4   8  221.28   11.10
  -2  -4  -8  212.98   11.80
   2  -4   8  224.68   16.10
  -2   4  -8  215.98   11.00
   2   4   8  210.78   14.40
   2   4   8  237.38   11.80
   2   4   8  223.08   18.90
   4  -4   8  212.38   18.30
   4  -4   8  224.58   12.40
   4  -4   8  207.78   17.30
  -4  -4  -8  212.78   13.40
   4   4   8  238.48   12.70
   4   4   8  245.18   21.20
  -4   4  -8  213.78   12.00
   4   4   8  237.18   16.60
  -6  -4  -8  174.18   14.60
   6  -4   8  165.18   17.40
   6  -4   8  146.39   16.20
   6   4   8  170.28   19.70
  -6   4  -8  148.59   10.40
   6   4   8  152.78   14.80
   8  -4   8   55.29   11.50
   8  -4   8   67.69   13.40
  -8   4  -8   95.79    8.80
   8   4   8   82.39   16.20
   8   4   8   68.19   11.10
 -21  -5   8    7.90    4.30
 -21  -5   8    9.00    5.80
 -21   5   8   14.90    5.30
  21   5  -8   14.60    9.90
 -19  -5   8   14.80    5.80
 -19  -5   8   24.00    4.50
  19  -5  -8    4.10    6.90
 -19  -5   8   18.40   10.40
  19  -5  -8   24.70   10.30
 -19   5   8   23.00    4.50
  19   5  -8   21.70    8.20
 -19   5   8   29.80    6.20
 -19   5   8   25.70    5.80
 -17  -5   8   37.50    7.30
 -17  -5   8   42.30    9.50
  17  -5  -8   43.40    9.80
  17  -5  -8   25.20    7.00
 -17   5   8   39.70    6.90
 -17   5   8   28.70    4.70
 -17   5   8   39.80    5.70
  17   5  -8   38.50    8.40
  17   5  -8   40.50    7.10
 -15  -5   8   57.19   10.80
 -15  -5   8   52.59    8.40
  15  -5  -8   62.49    7.60
  15  -5  -8   64.89   10.60
 -15   5   8   53.99    5.70
 -15   5   8   68.19    8.80
 -15   5   8   53.49    5.80
 -15   5   8   46.40    6.50
  15   5  -8   48.10    7.90
  15   5  -8   59.79    6.60
  13  -5  -8   34.60    5.00
 -13  -5   8   40.20    7.80
 -13  -5   8   32.00    5.40
 -13  -5   8   28.10    6.00
  13  -5  -8   22.70    7.50
 -13   5   8   31.70    5.00
 -13   5   8   30.70    3.80
  13   5  -8   29.50    5.90
  13   5  -8   30.50    4.20
  13   5  -8   25.70    3.70
 -13   5   8   30.20    5.60
 -13   5   8   33.10    5.60
  11  -5  -8  163.88    8.80
 -11  -5   8  157.78   10.10
 -11  -5   8  153.78   13.30
  11  -5  -8  151.08   14.30
 -11  -5   8  159.88   12.40
 -11  -5   8  167.98   11.20
  11  -5  -8  143.89    8.70
 -11   5   8  160.08   10.80
 -11   5   8  150.58   11.10
  11   5  -8  144.39    7.30
  11   5  -8  149.79    9.30
 -11   5   8  155.28    9.90
  -9  -5   8  185.88   12.50
   9  -5  -8  193.68    9.40
   9  -5  -8  186.48   16.30
  -9  -5   8  199.38   14.40
   9  -5  -8  192.98   10.00
  -9  -5   8  213.08   11.40
  -9  -5   8  211.58   14.70
  -9   5   8  187.18   10.40
  -9   5   8  208.78   14.50
  -9   5   8  214.18   10.60
  -9   5   8  210.98   12.70
   9   5  -8  198.38   11.60
   7  -5  -8   54.69    4.40
   7  -5  -8   71.39    5.30
  -7  -5   8   48.40    8.00
  -7  -5   8   63.69    6.30
  -7  -5   8   68.29    7.00
  -7  -5   8   74.19    7.80
  -7   5   8   60.89    4.40
  -7   5   8   59.49    4.20
  -7   5   8   63.79    6.90
  -7   5   8   71.09    9.20
   5  -5  -8  206.08   10.50
  -5  -5   8  203.08   11.90
  -5  -5   8  184.98   12.80
   5  -5  -8  200.68    9.70
  -5  -5   8  179.08   14.30
  -5  -5   8  193.68   12.50
  -5   5   8  196.48   15.90
   3  -5  -8  161.38   10.20
   3  -5  -8  145.39    8.30
  -3  -5   8  151.68   13.60
  -3  -5   8  134.49   10.30
  -3  -5   8  156.18   11.70
  -3   5   8  159.18    9.30
  -3   5   8  153.68   14.60
  -1  -5   8   93.69   11.50
  -1  -5   8  109.39   10.30
  -1   5   8  111.09   12.90
   1   5  -8   97.29    5.20
  -1   5   8   92.39    8.20
   1  -5   8  137.49   12.60
   1  -5   8  140.89   15.10
   1  -5   8  139.29    7.70
  -1   5  -8  132.39    7.60
   1   5   8  139.29   15.50
   1   5   8  146.99   11.30
  -3  -5  -8   10.40    3.00
   3  -5   8   19.50    3.90
   3  -5   8   18.00    6.50
   3  -5   8    8.50    6.10
   3   5   8   11.90    7.50
   3   5   8    7.90    4.30
  -3   5  -8   20.70    3.60
   5  -5   8   27.70    5.70
   5  -5   8   18.80    7.10
  -5  -5  -8   16.30    5.20
   5  -5   8    2.80    7.20
  -5   5  -8   22.90    4.70
   5   5   8   26.10   10.20
   5   5   8    9.80    5.60
   7  -5   8   38.30   10.60
   7  -5   8   23.50   10.40
   7   5   8   23.00   11.10
   7   5   8   23.10    8.20
  -7   5  -8   24.40    5.30
 -20  -6   8  284.07   19.50
  20   6  -8  294.07   23.70
 -20   6   8  304.67   16.40
 -20   6   8  276.67   18.60
 -18  -6   8  580.14   30.80
 -18  -6   8  579.94   37.40
  18  -6  -8  553.84   35.60
 -18   6   8  605.04   27.90
 -18   6   8  633.24   27.20
 -18   6   8  608.64   29.80
  18   6  -8  606.94   33.30
 -16  -6   8  583.84   33.70
  16  -6  -8  536.95   32.90
 -16  -6   8  545.65   29.00
  16  -6  -8  553.44   28.30
 -16   6   8  543.45   25.40
  16   6  -8  575.24   26.00
 -16   6   8  555.34   27.60
 -16   6   8  599.04   25.50
  16   6  -8  560.14   30.30
  16   6  -8  559.54   23.30
  14  -6  -8  655.13   29.90
 -14  -6   8  629.04   32.00
 -14  -6   8  683.73   30.10
  14  -6  -8  640.94   35.60
 -14  -6   8  638.64   35.10
  14   6  -8  687.93   32.70
  14   6  -8  633.94   27.40
 -14   6   8  650.53   29.30
 -14   6   8  661.83   27.30
 -14   6   8  666.63   30.70
 -14   6   8  675.93   30.50
  14   6  -8  654.03   27.50
  12  -6  -8 1352.56   52.69
 -12  -6   8 1419.76   54.79
 -12  -6   8 1281.67   55.19
 -12  -6   8 1284.87   56.79
 -12  -6   8 1468.55   59.59
  12  -6  -8 1286.17   60.09
  12   6  -8 1292.87   50.19
 -12   6   8 1397.96   53.29
 -12   6   8 1348.47   54.99
 -12   6   8 1335.77   54.49
  12   6  -8 1347.77   52.49
  10  -6  -8 1056.59   50.09
 -10  -6   8 1076.89   47.70
 -10  -6   8 1102.29   43.80
  10  -6  -8 1087.89   41.70
 -10  -6   8 1028.90   46.80
 -10  -6   8 1044.60   45.40
  10   6  -8 1070.69   43.20
  10   6  -8 1061.39   38.80
 -10   6   8 1055.89   46.00
 -10   6   8 1054.89   41.50
 -10   6   8 1032.30   44.60
  -8  -6   8 1049.99   48.30
  -8  -6   8 1123.69   44.30
  -8  -6   8 1110.29   47.90
   8  -6  -8 1098.49   42.10
   8  -6  -8 1251.07   46.90
  -8  -6   8 1084.09   46.70
   8  -6  -8 1069.19   51.29
   8   6  -8 1075.99   44.80
  -8   6   8 1074.49   48.40
  -8   6   8 1039.90   45.60
  -8   6   8 1051.09   40.70
  -8   6   8 1072.59   40.40
  -6  -6   8  956.20   39.70
  -6  -6   8  883.51   37.10
   6  -6  -8  912.11   34.90
  -6  -6   8  851.11   39.20
  -6  -6   8  885.81   42.00
  -6   6   8  845.42   42.30
   6   6  -8  842.02   37.80
  -6   6   8  862.21   38.60
  -4  -6   8  359.46   20.80
   4  -6  -8  350.26   16.80
  -4  -6   8  368.96   23.10
  -4  -6   8  364.06   19.60
  -4   6   8  371.96   24.30
   2  -6  -8  629.44   25.90
  -2  -6   8  607.94   30.80
  -2  -6   8  649.24   34.40
  -2   6   8  591.24   34.10
  -2   6   8  594.44   27.00
   0  -6   8  862.71   40.20
   0  -6   8  794.32   42.60
   0   6  -8  832.62   31.90
   0   6   8  856.91   36.80
   0   6   8  821.72   44.10
   2  -6   8  515.25   31.80
   2  -6   8  486.15   28.30
   2  -6   8  487.25   20.80
   2   6   8  503.95   26.00
  -2   6  -8  484.85   20.90
   2   6   8  474.95   32.00
   4  -6   8  389.96   25.60
   4  -6   8  308.67   25.60
   4  -6   8  367.86   17.60
   4   6   8  311.67   27.10
  -4   6  -8  359.56   17.10
   4   6   8  357.56   22.30
   6  -6   8  285.57   25.50
   6  -6   8  292.47   24.50
  -6   6  -8  294.57   16.00
   6   6   8  312.47   21.90
   6   6   8  276.47   26.90
 -19  -7   8  163.78   15.20
 -19   7   8  173.78   15.10
  19   7  -8  185.08   19.60
 -19   7   8  200.48   13.50
 -17  -7   8  405.06   33.30
 -17  -7   8  373.96   22.60
  17   7  -8  377.06   24.70
 -17   7   8  388.56   20.10
 -17   7   8  360.46   19.20
  17   7  -8  366.66   17.90
 -17   7   8  348.37   21.10
 -15  -7   8  263.07   18.10
 -15  -7   8  246.28   17.90
 -15  -7   8  257.17   23.20
  15  -7  -8  235.38   17.60
  15   7  -8  242.28   14.40
 -15   7   8  266.07   14.30
 -15   7   8  266.67   17.20
 -15   7   8  286.77   16.20
  15   7  -8  275.47   15.50
  15   7  -8  285.77   19.10
 -13  -7   8  538.75   32.00
 -13  -7   8  578.44   28.40
 -13  -7   8  552.44   28.90
  13  -7  -8  534.55   26.50
 -13  -7   8  520.85   27.80
  13   7  -8  556.14   23.60
 -13   7   8  565.24   27.10
 -13   7   8  522.35   27.10
  13   7  -8  554.34   25.30
 -13   7   8  536.85   25.60
 -11  -7   8  544.15   27.80
 -11  -7   8  535.25   28.50
 -11  -7   8  525.85   27.10
  11  -7  -8  537.35   25.10
 -11  -7   8  581.54   31.40
  11   7  -8  528.05   21.70
  11   7  -8  505.85   25.20
 -11   7   8  538.75   26.90
 -11   7   8  567.14   24.00
 -11   7   8  519.35   26.90
  -9  -7   8  298.57   17.40
   9  -7  -8  292.57   15.40
  -9  -7   8  284.57   19.10
  -9  -7   8  299.47   18.60
  -9  -7   8  325.67   20.70
  -9   7   8  270.57   12.20
  -9   7   8  276.37   18.60
   9   7  -8  264.87   16.30
  -9   7   8  295.67   12.90
  -9   7   8  277.47   17.30
   9   7  -8  277.67   11.50
  -7  -7   8 1101.59   47.70
  -7  -7   8 1017.80   46.80
   7  -7  -8 1078.59   42.60
  -7  -7   8 1025.10   48.40
  -7  -7   8 1059.49   44.40
  -7   7   8 1055.09   48.60
  -7   7   8 1088.39   46.30
   7   7  -8 1040.60   45.00
   5  -7  -8 1346.07   52.89
  -5  -7   8 1480.65   57.59
  -5  -7   8 1306.37   59.79
  -5  -7   8 1363.46   57.99
   5   7  -8 1360.06   56.29
  -5   7   8 1312.67   56.59
  -5   7   8 1284.87   60.29
  -3  -7   8 1022.00   46.40
  -3  -7   8  997.40   44.20
   3  -7  -8  976.60   40.80
  -3  -7   8  992.70   49.20
  -3   7   8 1047.40   50.39
   3   7  -8 1048.10   45.30
  -1  -7   8  721.93   40.00
  -1  -7   8  759.32   37.50
   1  -7  -8  732.03   31.30
  -1   7   8  754.02   41.30
   1   7  -8  706.93   28.10
  -1   7   8  776.12   33.10
   1  -7   8  349.07   23.40
   1  -7   8  345.87   26.20
   1   7   8  326.17   19.50
  -1   7  -8  346.37   15.40
   1   7   8  351.16   26.50
   3  -7   8  243.08   22.60
   3  -7   8  255.57   21.00
  -3   7  -8  244.98   13.00
   3   7   8  272.47   24.00
   3   7   8  235.48   17.30
   5  -7   8  182.68   22.70
   5  -7   8  210.48   20.90
   5   7   8  236.18   25.30
  -5   7  -8  195.18   12.60
   5   7   8  222.28   18.60
 -16  -8   8    8.20    5.40
 -16  -8   8   12.00    5.70
 -16   8   8    7.00    5.80
 -16   8   8   18.20    5.60
  16   8  -8   14.60    5.50
 -16   8   8   13.90    4.50
  16   8  -8    7.40   11.70
 -14  -8   8    6.50    5.00
 -14  -8   8    5.20    8.70
 -14  -8   8   -2.50   10.90
  14  -8  -8    0.00    6.70
 -14  -8   8   -3.00    4.00
  14   8  -8   -5.90    5.50
  14   8  -8   -6.70    4.20
 -14   8   8    6.70    6.50
 -14   8   8   -3.50    4.20
 -14   8   8   -2.50    4.10
 -12  -8   8   33.40   10.40
 -12  -8   8   37.50    9.40
 -12  -8   8   29.50    7.50
  12  -8  -8   19.50    7.20
 -12  -8   8   29.50    6.70
 -12   8   8   30.40    6.70
 -12   8   8   30.60    5.90
 -12   8   8   25.50    6.50
  12   8  -8   28.00    5.00
  12   8  -8   31.70    6.30
 -10  -8   8   36.60   10.40
  10  -8  -8   26.30    6.50
 -10  -8   8   38.90    7.80
 -10  -8   8   29.90    7.50
 -10   8   8   24.30    6.40
  10   8  -8   26.70    4.10
  10   8  -8   30.80    4.00
 -10   8   8   30.30    7.20
 -10   8   8   28.80    4.10
  10   8  -8   31.30    6.40
  -8  -8   8   83.79   11.00
   8  -8  -8   77.89    9.30
  -8  -8   8   70.49   11.20
  -8  -8   8   70.09   10.70
  -8   8   8   58.89   10.10
  -8   8   8   74.89   10.40
   8   8  -8   79.89    5.00
   8   8  -8   77.99    9.00
   8   8  -8   87.29    5.00
  -6  -8   8   52.79    9.70
   6  -8  -8   45.80    7.10
  -6  -8   8   40.60    9.10
  -6  -8   8   32.30    7.50
   6   8  -8   45.40    7.60
  -6   8   8   36.80    7.10
  -6   8   8   56.09   10.50
  -4  -8   8   12.20    6.60
  -4  -8   8    3.10    6.10
  -4  -8   8   -5.10    4.30
   4  -8  -8    3.00    4.70
  -4   8   8    7.10    6.80
  -4   8   8    3.50    4.90
   4   8  -8    4.80    4.30
  -2  -8   8  126.69   14.90
  -2  -8   8  117.89   13.70
   2  -8  -8  110.89   10.30
  -2  -8   8  119.29   13.60
  -2   8   8  128.79   15.20
   2   8  -8  117.09    6.50
   2   8  -8  112.69   12.30
   0  -8   8   42.00    9.30
   0  -8   8   28.20   10.60
   0   8   8   46.30   11.40
   0   8   8   36.60    6.30
   0   8  -8   41.50    4.90
   2  -8   8   12.40    7.70
   2  -8   8    5.60    8.10
   2   8   8    1.90    4.30
  -2   8  -8   -0.20    3.40
   2   8   8    4.50    8.30
 -15  -9   8  739.33   36.70
 -15  -9   8  702.13   36.70
  15   9  -8  719.03   34.50
 -15   9   8  651.23   35.70
 -15   9   8  796.92   36.20
 -13  -9   8  779.92   37.80
 -13  -9   8  806.92   38.40
 -13   9   8  734.43   36.70
 -13   9   8  737.53   36.40
  13   9  -8  681.53   34.80
 -11  -9   8  520.25   29.70
 -11  -9   8  514.45   33.70
 -11  -9   8  503.25   29.20
  11   9  -8  493.55   27.20
 -11   9   8  514.65   28.40
 -11   9   8  522.05   21.90
 -11   9   8  523.65   28.50
  11   9  -8  553.54   22.80
  -9  -9   8  495.55   32.50
  -9  -9   8  544.95   31.20
  -9  -9   8  552.04   31.10
   9   9  -8  565.34   29.10
  -9   9   8  561.54   29.60
  -9   9   8  541.15   29.90
   9   9  -8  540.35   22.40
   7  -9  -8  535.95   28.10
  -7  -9   8  593.74   32.50
  -7  -9   8  563.94   32.20
  -7  -9   8  585.24   33.40
   7   9  -8  547.65   29.60
   7   9  -8  582.14   22.00
   7   9  -8  491.45   21.90
  -7   9   8  574.54   30.00
  -7   9   8  570.94   31.80
  -5  -9   8  559.34   33.40
  -5  -9   8  583.14   32.80
  -5  -9   8  574.34   32.20
  -5   9   8  546.95   29.90
  -5   9   8  582.84   33.00
   5   9  -8  542.65   21.80
   5   9  -8  586.74   30.70
  -3  -9   8  566.94   34.30
  -3  -9   8  579.84   32.10
  -3  -9   8  578.04   33.20
   3   9  -8  543.75   22.20
   3   9  -8  567.34   31.10
  -3   9   8  544.95   30.30
  -3   9   8  569.54   34.10
  -1  -9   8  346.27   25.30
  -1  -9   8  387.86   28.10
  -1   9   8  344.87   27.30
   1   9  -8  314.07   22.70
   1   9  -8  359.86   15.80
   1  -9   8  181.58   19.90
   1  -9   8  174.08   21.40
  -1   9  -8  188.38   11.20
   1   9   8  211.98   22.40
 -10 -10   8  409.16   25.80
 -10 -10   8  334.07   25.40
  10  10  -8  392.36   18.10
 -10  10   8  409.46   25.30
 -10  10   8  374.16   24.30
  10  10  -8  341.27   23.40
  -8 -10   8  409.86   28.20
  -8 -10   8  398.36   27.50
   8  10  -8  440.26   26.60
  -8  10   8  481.45   28.00
   8  10  -8  456.05   19.50
  -8  10   8  447.76   26.60
  -6 -10   8  480.75   30.90
  -6 -10   8  448.46   30.30
   6  10  -8  487.25   20.00
  -6  10   8  462.55   27.70
   6  10  -8  454.95   28.10
  -6  10   8  494.95   29.80
  -4 -10   8  266.37   23.60
  -4 -10   8  283.07   24.00
   4  10  -8  287.17   13.30
  -4  10   8  256.87   20.30
  -4  10   8  328.57   24.20
   4  10  -8  294.37   21.90
 -22   0   9    3.10    6.20
 -22   0   9    6.00    3.90
 -20   0   9    3.60    4.70
 -20   0   9   -0.20    2.80
  20   0  -9    5.40    5.40
  18   0  -9   -4.90    4.90
  18   0  -9    0.50    4.00
 -18   0   9    1.50    2.40
 -18   0   9    1.20    3.40
  16   0  -9    1.10    3.40
  16   0  -9    7.90    3.80
 -16   0   9    4.60    2.20
 -16   0   9    2.50    2.90
 -14   0   9    4.50    2.30
 -14   0   9    3.00    1.90
  14   0  -9    0.60    2.60
  14   0  -9    1.60    2.50
 -12   0   9    5.00    2.20
 -12   0   9    5.00    1.80
 -12   0   9    1.50    2.40
 -12   0   9    0.70    1.40
 -12   0   9    2.80    1.30
  12   0  -9    2.70    2.20
 -10   0   9    3.00    2.70
 -10   0   9    2.80    1.00
 -10   0   9    2.60    1.50
 -10   0   9    2.30    1.10
 -10   0   9    2.40    2.60
  -8   0   9    4.40    1.40
  -8   0   9    4.30    2.60
  -6   0   9    2.30    1.30
  -6   0   9    4.10    2.80
  -6   0   9    4.30    1.50
  -6   0   9    0.30    1.30
  -6   0   9    6.40    1.60
   4   0  -9   -0.50    2.90
   4   0  -9    4.80    2.00
  -4   0   9   -1.90    2.40
  -4   0   9    1.00    1.50
  -4   0   9    0.20    1.60
  -2   0   9    1.80    2.20
   2   0  -9   -0.10    3.40
   2   0  -9    2.30    2.50
  -2   0   9    1.20    1.90
  -2   0   9   -0.80    2.60
   0   0  -9   -1.30    4.50
   0   0   9   -2.20    3.30
   0   0   9    0.60    2.40
   0   0   9    2.30    2.40
  -2   0  -9    3.00    6.40
   2   0   9    1.90    3.90
   2   0   9   -0.30    3.10
   2   0   9   -4.40    3.30
   4   0   9   -3.80    3.70
   4   0   9    1.30    4.50
   6   0   9    4.30    5.70
   6   0   9   -4.40    5.10
 -23  -1   9  231.38   15.00
 -23   1   9  254.07   15.90
 -21  -1   9  254.87   14.90
 -21  -1   9  310.97   19.90
 -21   1   9  265.57   15.70
 -21   1   9  244.18   17.60
 -19  -1   9  369.86   18.20
 -19  -1   9  375.96   21.60
  19  -1  -9  387.76   21.80
  19   1  -9  347.67   21.80
 -19   1   9  397.86   20.60
 -19   1   9  374.56   18.90
  17  -1  -9  269.87   16.30
  17  -1  -9  305.57   16.20
 -17  -1   9  296.37   17.10
 -17  -1   9  272.67   14.10
  17   1  -9  260.17   17.10
 -17   1   9  320.77   15.40
 -17   1   9  289.67   15.70
  17   1  -9  291.37   15.60
  15  -1  -9  966.70   40.30
 -15  -1   9 1026.40   41.60
 -15  -1   9  982.00   39.00
  15  -1  -9 1022.60   40.80
 -15   1   9 1042.60   40.20
  15   1  -9 1049.00   40.10
 -15   1   9 1030.20   39.80
  15   1  -9  960.80   41.60
 -13  -1   9  964.00   43.30
  13  -1  -9 1010.00   37.80
 -13  -1   9 1001.60   40.10
  13  -1  -9  979.20   39.80
 -13  -1   9 1054.49   38.40
 -13   1   9 1052.49   38.10
  13   1  -9  966.30   39.30
 -13   1   9  993.00   37.50
  13   1  -9 1058.49   39.00
 -13   1   9 1001.40   39.40
 -11  -1   9  381.26   15.40
 -11  -1   9  373.96   17.20
 -11  -1   9  382.76   16.00
 -11  -1   9  368.86   16.80
 -11  -1   9  380.26   15.50
 -11  -1   9  375.86   20.40
 -11   1   9  381.06   18.60
 -11   1   9  393.56   19.70
 -11   1   9  375.26   16.60
  -9  -1   9 1113.59   43.60
  -9  -1   9 1165.18   43.80
  -9  -1   9 1137.39   41.90
  -9  -1   9 1195.88   43.10
  -9  -1   9 1150.78   48.10
  -9   1   9 1138.79   46.60
  -9   1   9 1173.28   43.70
  -9   1   9 1143.89   47.10
  -7  -1   9  672.33   28.00
  -7  -1   9  706.43   29.10
  -7  -1   9  687.93   25.90
  -7  -1   9  700.23   31.90
  -7  -1   9  714.23   25.90
  -7  -1   9  745.33   27.80
  -7   1   9  693.63   27.90
  -7   1   9  717.83   30.50
  -7   1   9  705.33   32.30
  -5  -1   9  666.43   28.70
  -5  -1   9  676.53   24.90
   5  -1  -9  669.23   28.60
  -5  -1   9  682.13   27.20
  -5  -1   9  589.94   30.00
  -5  -1   9  660.33   24.70
  -5   1   9  658.13   26.50
   5   1  -9  699.83   26.20
  -5   1   9  625.94   28.80
   5   1  -9  686.63   30.40
  -5   1   9  660.23   25.40
  -3  -1   9 1519.35   59.99
  -3  -1   9 1547.65   58.69
   3  -1  -9 1473.45   59.29
  -3  -1   9 1535.55   55.49
   3  -1  -9 1577.64   56.59
  -3  -1   9 1457.45   61.69
  -3   1   9 1501.15   56.99
  -3   1   9 1490.45   59.89
  -3   1   9 1507.25   57.49
   3   1  -9 1554.64   57.39
   3   1  -9 1531.05   61.39
  -1  -1   9  808.42   38.30
   1  -1  -9  803.32   36.30
  -1  -1   9  853.81   32.70
  -1  -1   9  820.52   36.10
  -1   1   9  871.41   33.90
  -1   1   9  867.81   35.80
  -1   1   9  812.02   36.70
   1   1  -9  909.41   39.20
  -1  -1  -9  379.56   21.50
   1  -1   9  398.36   17.80
   1  -1   9  392.66   22.70
   1  -1   9  373.66   21.20
   1   1   9  389.86   20.90
   1   1   9  385.16   20.70
   1   1   9  397.06   18.70
   3  -1   9  222.98   15.90
  -3  -1  -9  192.48   17.00
   3  -1   9  219.18   12.70
   3  -1   9  224.28   16.80
   3   1   9  206.28   15.50
   3   1   9  218.28   14.90
   5  -1   9  178.18   15.80
   5  -1   9  198.88   16.00
   5   1   9  146.99   14.40
   5   1   9  182.58   14.30
   7  -1   9  201.68   18.50
   7  -1   9  167.78   17.80
   7   1   9  187.68   18.10
   7   1   9  212.38   16.70
 -22  -2   9  293.47   16.40
 -22   2   9  280.47   17.20
 -22   2   9  281.67   21.90
 -20  -2   9  404.36   24.60
 -20  -2   9  417.66   19.80
  20  -2  -9  427.86   24.20
  20   2  -9  381.76   24.60
 -20   2   9  443.86   22.60
 -20   2   9  414.36   21.20
  18  -2  -9  332.57   19.10
 -18  -2   9  339.47   16.50
 -18  -2   9  358.66   20.70
  18   2  -9  329.37   20.90
 -18   2   9  343.87   18.00
  18   2  -9  375.06   18.40
 -18   2   9  353.76   18.10
 -16  -2   9  954.40   37.20
  16  -2  -9  933.31   38.90
  16  -2  -9  944.91   39.60
 -16  -2   9  986.90   41.20
 -16   2   9  928.51   38.80
  16   2  -9  916.81   41.10
  16   2  -9  974.90   38.30
 -16   2   9  976.50   38.10
 -14  -2   9  757.92   34.20
  14  -2  -9  695.93   30.60
 -14  -2   9  740.03   32.00
  14  -2  -9  692.93   28.70
 -14  -2   9  757.52   28.40
 -14   2   9  741.53   30.40
  14   2  -9  731.43   29.00
 -14   2   9  706.13   27.60
 -14   2   9  740.83   28.30
  14   2  -9  686.13   31.20
 -12  -2   9  556.74   27.80
 -12  -2   9  583.74   21.60
 -12  -2   9  563.94   23.90
 -12  -2   9  581.44   25.30
 -12  -2   9  601.74   21.90
  12   2  -9  583.24   22.40
 -12   2   9  565.94   24.10
 -12   2   9  472.95   23.80
 -10  -2   9 1367.36   54.19
 -10  -2   9 1452.65   52.99
 -10  -2   9 1391.06   51.99
 -10  -2   9 1393.06   49.99
 -10  -2   9 1359.26   57.39
 -10   2   9 1374.26   53.19
 -10   2   9 1403.46   56.59
 -10   2   9 1472.75   55.59
  -8  -2   9 1436.46   58.19
  -8  -2   9 1445.56   53.69
  -8  -2   9 1383.56   54.59
  -8  -2   9 1402.96   53.59
  -8   2   9 1398.06   53.79
  -8   2   9 1405.16   57.89
  -8   2   9 1462.05   55.29
  -6  -2   9  722.53   33.30
  -6  -2   9  713.43   29.10
  -6  -2   9  716.83   29.40
  -6  -2   9  695.23   29.70
  -6   2   9  722.03   33.90
   6   2  -9  719.83   32.50
  -6   2   9  690.43   29.30
  -6   2   9  729.73   30.10
  -4  -2   9  489.45   22.40
  -4  -2   9  484.75   21.80
   4  -2  -9  499.05   18.50
  -4  -2   9  436.36   24.30
  -4   2   9  476.05   20.90
  -4   2   9  476.85   19.40
  -4   2   9  438.26   21.40
  -4   2   9  451.05   25.60
   4   2  -9  477.95   20.50
   4   2  -9  468.35   24.30
  -2  -2   9  656.53   33.00
  -2  -2   9  701.03   26.00
  -2  -2   9  684.73   30.50
   2  -2  -9  719.93   28.10
   2  -2  -9  688.13   29.20
  -2  -2   9  678.33   30.80
  -2   2   9  629.64   34.10
  -2   2   9  686.23   28.80
  -2   2   9  661.93   28.60
   2   2  -9  672.63   33.00
  -2   2   9  712.13   30.10
   0  -2  -9  527.35   24.60
   0  -2   9  480.75   27.50
   0  -2   9  527.05   26.00
   0  -2   9  531.85   21.40
   0   2   9  491.75   24.40
   0   2   9  543.45   23.90
   0   2   9  540.05   30.20
   0   2   9  511.35   24.40
   2  -2   9  363.16   17.20
  -2  -2  -9  371.56   20.60
   2  -2   9  355.56   23.00
   2  -2   9  383.96   22.20
   2   2   9  364.16   24.80
   2   2   9  420.56   21.50
   2   2   9  356.86   19.50
  -4  -2  -9  410.06   24.30
   4  -2   9  430.16   25.50
   4  -2   9  419.96   20.30
   4  -2   9  397.86   25.70
   4   2   9  409.66   22.10
   4   2   9  406.06   28.40
   4   2   9  425.76   24.30
   6  -2   9  152.58   16.40
   6  -2   9  192.08   17.00
   6   2   9  141.69   14.90
   6   2   9  152.38   19.10
   6   2   9  152.98   13.50
 -21  -3   9   20.20    9.40
  21  -3  -9   -1.50    7.30
 -21  -3   9   14.20    4.10
 -21   3   9   17.50    5.20
 -21   3   9   17.40    6.10
  21   3  -9    6.00    7.40
 -19  -3   9    6.40    6.00
  19  -3  -9   -3.70    5.20
 -19  -3   9   -1.00    2.50
 -19   3   9    0.30    3.00
 -19   3   9    9.00    4.20
  19   3  -9    3.30    5.70
 -17  -3   9    1.40    4.60
 -17  -3   9    0.90    2.10
  17  -3  -9    6.30    4.10
 -17  -3   9    0.70    3.40
 -17   3   9    3.20    1.70
 -17   3   9   -1.50    2.50
  17   3  -9    4.70    3.90
 -17   3   9    5.40    2.70
  15  -3  -9    0.30    4.10
 -15  -3   9    4.50    3.90
 -15  -3   9    2.60    3.60
 -15  -3   9    5.50    1.90
  15  -3  -9    0.80    2.80
 -15   3   9    8.70    5.00
 -15   3   9    5.10    2.50
 -15   3   9    4.20    1.80
  15   3  -9   12.10    4.40
  15   3  -9   14.20    3.30
 -15   3   9    6.60    2.20
 -13  -3   9   13.10    4.20
 -13  -3   9    7.10    3.70
 -13  -3   9   14.30    2.20
 -13  -3   9   17.00    2.70
 -13   3   9   17.60    3.60
 -13   3   9   11.70    3.30
  13   3  -9   16.90    2.80
 -13   3   9   16.40    2.00
 -11  -3   9   22.20    5.30
 -11  -3   9    8.40    2.20
 -11  -3   9   14.00    3.80
 -11  -3   9    8.40    2.60
 -11   3   9   12.90    3.20
 -11   3   9   11.00    4.10
 -11   3   9    8.90    3.20
  -9  -3   9   22.20    4.70
  -9  -3   9   23.90    5.70
  -9  -3   9   29.80    3.70
  -9  -3   9   26.00    4.00
  -9   3   9   26.30    4.30
  -9   3   9   24.50    5.80
  -9   3   9   15.20    3.40
  -7  -3   9   29.80    6.20
  -7  -3   9   44.80    5.40
  -7  -3   9   37.20    5.00
  -7  -3   9   44.20    4.90
  -7   3   9   33.70    7.00
   7   3  -9   52.69    7.60
  -7   3   9   51.99    5.00
  -7   3   9   40.90    5.00
  -5  -3   9   39.80    5.40
  -5  -3   9   37.50    6.90
  -5  -3   9   30.00    5.10
  -5   3   9   40.00    4.50
  -5   3   9   35.90    7.40
   5   3  -9   34.20    6.50
  -3  -3   9   69.79    7.20
  -3  -3   9   61.69    7.20
   3  -3  -9   79.59    5.80
  -3  -3   9   71.39   10.40
  -3   3   9   73.39   11.00
  -3   3   9   60.39    5.90
  -3   3   9   66.59    6.70
  -3   3   9   66.89    5.60
   1  -3  -9   25.40    4.20
  -1  -3   9   19.00    4.80
  -1  -3   9   29.30    6.90
  -1  -3   9   27.20    3.00
  -1   3   9   31.40    5.40
  -1   3   9   25.40    4.50
  -1   3   9   22.70    6.80
  -1   3   9   30.80    4.80
  -1  -3  -9   23.30    5.00
   1  -3   9   23.30    3.60
   1  -3   9   19.60    5.50
   1  -3   9   26.70    7.40
   1   3   9   22.60    5.10
   1   3   9   17.90    4.20
   1   3   9   28.50    8.00
  -3  -3  -9   56.99    8.10
   3  -3   9   47.40    9.70
   3  -3   9   45.50    8.80
   3  -3   9   49.60    6.00
   3   3   9   45.00    7.90
   3   3   9   50.99   11.50
   3   3   9   58.19    7.30
  -5  -3  -9   -1.30    7.60
   5  -3   9   10.40    7.10
   5  -3   9   12.60    6.60
   5   3   9   12.80    5.80
   5   3   9   14.00    5.10
   5   3   9   15.40    9.90
  -5   3  -9   21.70    4.60
 -20  -4   9  534.15   31.20
 -20  -4   9  488.55   22.50
 -20   4   9  487.85   25.10
  20   4  -9  462.25   28.90
 -20   4   9  509.35   24.90
 -18  -4   9  439.56   27.00
 -18  -4   9  454.45   20.40
  18  -4  -9  433.66   23.70
 -18  -4   9  470.15   25.70
  18  -4  -9  449.26   22.60
  18   4  -9  499.25   27.00
 -18   4   9  475.95   19.60
 -18   4   9  478.05   22.00
 -18   4   9  447.16   23.10
  18   4  -9  442.46   22.20
 -16  -4   9  549.74   28.80
 -16  -4   9  556.44   23.10
  16  -4  -9  547.15   26.80
  16  -4  -9  537.15   25.20
 -16  -4   9  578.14   29.90
  16   4  -9  567.94   28.60
 -16   4   9  565.84   24.00
  16   4  -9  567.64   24.40
 -16   4   9  581.24   23.60
 -16   4   9  575.94   26.40
 -14  -4   9 1331.57   55.09
 -14  -4   9 1332.67   48.50
 -14  -4   9 1303.07   55.29
  14  -4  -9 1274.07   48.90
  14   4  -9 1250.57   48.50
 -14   4   9 1294.37   51.79
 -14   4   9 1285.67   48.00
 -14   4   9 1307.77   50.09
 -14   4   9 1264.77   52.09
 -12  -4   9 1170.98   51.09
 -12  -4   9 1208.08   52.19
 -12  -4   9 1239.08   49.00
 -12  -4   9 1246.78   46.40
 -12   4   9 1137.99   48.30
 -12   4   9 1214.78   49.20
 -12   4   9 1240.88   48.30
  12   4  -9 1230.58   44.20
 -10  -4   9  892.41   38.50
 -10  -4   9  838.62   36.20
 -10  -4   9  823.72   39.40
 -10  -4   9  906.01   34.40
 -10   4   9  899.71   35.20
 -10   4   9  837.02   35.90
 -10   4   9  825.12   38.80
  -8  -4   9 1083.39   49.40
  -8  -4   9 1162.78   47.40
  -8  -4   9 1128.19   46.00
  -8  -4   9 1133.79   44.40
  -8   4   9 1182.78   43.80
  -8   4   9 1103.19   45.70
  -8   4   9 1147.49   50.39
  -6  -4   9  928.21   38.30
  -6  -4   9  943.91   42.30
  -6  -4   9  881.11   37.70
  -6  -4   9  879.51   36.70
  -6   4   9  907.41   34.80
  -6   4   9  892.21   42.50
  -6   4   9  871.21   37.80
  -4  -4   9  513.25   24.90
  -4  -4   9  525.05   28.30
  -4  -4   9  498.45   23.80
   4  -4  -9  507.55   19.90
   4  -4  -9  527.75   20.70
  -4   4   9  468.05   20.90
  -4   4   9  531.55   29.20
  -4   4   9  524.45   21.20
  -2  -4   9  638.44   30.40
  -2  -4   9  622.54   33.60
  -2   4   9  583.64   33.90
  -2   4   9  635.84   27.70
  -2   4   9  651.33   29.00
  -2   4   9  697.03   26.10
   0  -4   9  557.54   29.80
   0  -4  -9  579.34   24.30
   0  -4   9  630.14   33.70
   0  -4   9  608.64   23.50
   0   4   9  614.14   27.90
   0   4   9  553.24   33.60
   0   4   9  632.94   25.00
  -2  -4  -9  225.08   12.80
   2  -4   9  223.58   19.50
   2  -4   9  244.78   12.20
   2  -4   9  250.97   18.20
   2   4   9  246.78   16.10
  -2   4  -9  233.28   12.20
   2   4   9  240.38   20.90
   2   4   9  241.18   12.80
   4  -4   9  139.59   15.10
   4  -4   9  157.48   17.20
  -4  -4  -9  140.29   12.10
   4  -4   9  156.78   10.60
   4   4   9  157.48   10.60
   4   4   9  146.79   17.50
   4   4   9  147.59   13.80
  -4   4  -9  139.99    9.90
   6  -4   9  174.48   19.10
   6  -4   9  179.48   19.00
  -6   4  -9  176.98   12.20
   6   4   9  218.68   23.10
   6   4   9  166.78   16.30
 -21  -5   9  392.36   24.10
 -21  -5   9  399.16   19.40
  21   5  -9  368.46   27.20
 -21   5   9  378.26   22.30
 -19  -5   9  533.45   28.70
 -19  -5   9  515.15   32.70
 -19   5   9  541.35   27.10
 -19   5   9  520.85   23.10
 -19   5   9  541.35   25.30
  19   5  -9  530.75   30.30
 -17  -5   9  693.43   34.90
  17  -5  -9  695.03   32.00
  17  -5  -9  711.93   34.70
 -17  -5   9  731.23   37.50
  17   5  -9  707.03   35.00
 -17   5   9  674.83   32.20
  17   5  -9  715.73   30.40
 -17   5   9  714.63   29.40
 -17   5   9  680.93   29.50
 -15  -5   9  672.83   27.60
 -15  -5   9  667.33   33.30
  15  -5  -9  688.13   33.80
 -15  -5   9  627.74   34.30
  15  -5  -9  659.23   28.90
 -15   5   9  722.53   31.70
 -15   5   9  690.63   27.30
 -15   5   9  657.13   30.70
 -15   5   9  667.63   28.80
  15   5  -9  679.33   32.40
  15   5  -9  655.93   27.50
  13  -5  -9  782.62   31.60
 -13  -5   9  846.32   38.60
 -13  -5   9  854.21   34.10
 -13  -5   9  758.82   35.40
 -13  -5   9  810.22   38.70
  13  -5  -9  802.22   38.70
 -13   5   9  815.82   34.70
  13   5  -9  781.72   30.70
 -13   5   9  835.22   34.80
 -13   5   9  797.42   35.20
 -11  -5   9  752.62   31.50
 -11  -5   9  790.42   36.90
 -11  -5   9  745.53   33.80
 -11  -5   9  749.53   35.80
 -11   5   9  716.83   34.40
 -11   5   9  821.02   31.90
 -11   5   9  745.63   33.20
 -11   5   9  744.23   31.40
  -9  -5   9 1288.47   51.39
  -9  -5   9 1203.78   52.49
  -9  -5   9 1188.78   49.40
  -9  -5   9 1208.88   46.90
  -9   5   9 1211.58   45.60
  -9   5   9 1167.78   52.19
  -9   5   9 1218.68   45.40
  -9   5   9 1057.49   48.10
  -7  -5   9 1440.76   55.19
  -7  -5   9 1453.55   57.69
  -7  -5   9 1413.46   61.09
  -7  -5   9 1393.96   57.09
  -7   5   9 1358.66   56.69
  -7   5   9 1380.36   61.29
  -7   5   9 1380.96   51.89
  -7   5   9 1456.35   51.99
  -5  -5   9  692.13   31.70
  -5  -5   9  712.53   33.00
  -5  -5   9  717.73   31.20
   5  -5  -9  724.73   27.70
   5  -5  -9  732.93   28.20
  -5  -5   9  697.33   36.10
  -5   5   9  745.13   37.70
  -3  -5   9  662.23   36.30
  -3  -5   9  700.83   33.20
  -3   5   9  726.63   38.10
  -3   5   9  711.53   29.40
  -1  -5   9  671.13   37.70
  -1  -5   9  757.82   35.30
  -1   5   9  750.12   39.90
  -1   5   9  715.53   31.80
   1  -5   9  427.46   17.90
   1  -5   9  423.86   28.40
   1  -5   9  438.16   25.60
   1   5   9  419.66   29.10
  -1   5  -9  412.76   18.10
   1   5   9  434.66   22.90
   3  -5   9  417.56   28.10
   3  -5   9  393.26   25.50
   3  -5   9  379.66   17.80
   3   5   9  385.96   22.70
   3   5   9  356.86   28.20
  -3   5  -9  361.46   17.60
   5  -5   9  232.68   22.10
   5  -5   9  222.18   20.30
  -5   5  -9  198.18   12.80
   5   5   9  229.38   18.10
   5   5   9  212.78   22.30
 -20  -6   9   16.30    7.10
 -20   6   9   36.80    5.80
 -20   6   9   38.40    7.50
  20   6  -9   19.50    9.90
  18  -6  -9   71.19   14.20
 -18  -6   9   45.20    8.40
 -18  -6   9   49.40   12.90
 -18   6   9   45.30    8.30
 -18   6   9   44.90    6.10
 -18   6   9   57.69    6.90
  18   6  -9   49.90    8.70
  18   6  -9   64.79   10.70
  16  -6  -9  101.19   10.80
 -16  -6   9  100.19   13.80
 -16  -6   9   72.39    8.90
  16  -6  -9   89.79   14.60
 -16  -6   9   90.29   10.80
 -16   6   9   91.99    9.40
  16   6  -9   97.09   11.40
 -16   6   9   78.69    7.00
  16   6  -9   99.59    8.80
 -16   6   9   89.49    8.10
 -14  -6   9   74.99    9.70
 -14  -6   9   87.29    9.90
  14  -6  -9   72.99   12.60
  14  -6  -9   72.29    8.50
 -14  -6   9   66.09   11.60
 -14  -6   9   84.69    9.20
  14   6  -9   81.29    6.50
 -14   6   9   70.89    9.20
 -14   6   9   97.69    9.30
 -14   6   9   70.09    7.80
 -14   6   9   86.19    5.90
  12  -6  -9  122.99   16.20
 -12  -6   9  139.89   10.90
 -12  -6   9  127.89   12.30
 -12  -6   9  123.69   14.00
  12  -6  -9  114.49    8.40
 -12  -6   9  135.29   11.30
 -12   6   9  129.19    9.60
 -12   6   9  140.09   11.40
  12   6  -9  128.29    9.30
 -12   6   9  132.59   10.70
  12   6  -9  114.89    6.10
 -10  -6   9   21.80    5.70
 -10  -6   9   22.70    5.10
 -10  -6   9   28.10    7.00
  10  -6  -9   14.60    8.80
  10  -6  -9   27.20    3.60
 -10  -6   9   30.20    7.10
 -10   6   9   34.40    4.20
 -10   6   9   30.60    6.80
 -10   6   9   24.30    4.10
 -10   6   9   34.70    6.50
   8  -6  -9   28.70    3.40
  -8  -6   9   28.60    6.40
  -8  -6   9   26.20    5.20
  -8  -6   9   29.00    6.90
  -8  -6   9   24.90    5.50
  -8   6   9   31.80    7.80
  -8   6   9   22.00    3.00
  -8   6   9   27.50    5.90
   6  -6  -9  153.88    8.60
  -6  -6   9  131.89   11.50
  -6  -6   9  127.49   13.20
  -6  -6   9  137.49   12.00
  -6   6   9  155.68   12.00
  -6   6   9  119.79   13.30
   4  -6  -9    3.40    3.20
  -4  -6   9    1.50    3.80
  -4  -6   9    0.70    4.50
  -4  -6   9    3.30    3.50
  -4   6   9    5.00    5.90
  -2  -6   9    2.70    4.10
  -2  -6   9    5.60    5.90
  -2   6   9    5.30    6.20
  -2   6   9    4.70    2.80
   0  -6   9    4.70    7.30
   0  -6   9   -3.90    4.30
   0   6  -9    3.30    2.40
   0   6   9    6.30    3.70
   0   6   9   21.10    8.20
   2  -6   9   13.10    6.30
   2  -6   9    5.10    3.50
   2  -6   9   -0.60    6.70
   2   6   9    6.30    7.70
   2   6   9    5.90    4.30
  -2   6  -9    1.40    3.00
   4  -6   9   13.90    7.90
   4  -6   9    9.40    9.10
   4   6   9   13.90    9.90
  -4   6  -9    6.30    4.00
   4   6   9   19.60    7.00
 -17  -7   9  266.07   19.40
 -17   7   9  253.27   14.70
  17   7  -9  279.37   14.50
 -17   7   9  279.77   18.20
 -17   7   9  304.77   16.80
  17   7  -9  317.97   21.20
  17   7  -9  254.97   17.00
  15  -7  -9  247.08   17.50
 -15  -7   9  304.77   18.80
 -15  -7   9  258.27   17.60
 -15  -7   9  252.27   18.60
 -15  -7   9  247.58   23.10
  15   7  -9  274.57   14.50
 -15   7   9  270.97   17.50
 -15   7   9  261.97   13.50
 -15   7   9  253.97   16.20
  15   7  -9  300.27   15.40
 -15   7   9  267.37   17.70
 -13  -7   9  303.17   20.50
  13  -7  -9  276.27   16.50
 -13  -7   9  282.27   22.90
 -13  -7   9  305.67   19.50
 -13  -7   9  314.17   19.50
 -13   7   9  307.07   16.70
  13   7  -9  311.27   13.70
 -13   7   9  312.87   18.60
 -13   7   9  321.97   19.00
  13   7  -9  298.27   16.70
 -11  -7   9  446.16   22.60
 -11  -7   9  413.56   24.70
 -11  -7   9  436.86   26.40
 -11  -7   9  399.26   23.40
  11  -7  -9  407.56   19.50
 -11   7   9  415.16   18.10
 -11   7   9  394.06   23.10
  11   7  -9  419.16   21.40
 -11   7   9  395.66   22.40
 -11   7   9  392.26   18.50
  -9  -7   9  402.56   23.20
  -9  -7   9  418.86   21.40
  -9  -7   9  360.96   24.00
  -9  -7   9  369.86   24.10
   9  -7  -9  397.06   18.30
  -9   7   9  405.06   22.30
  -9   7   9  417.06   24.30
   9   7  -9  389.56   21.20
  -7  -7   9  728.33   37.80
   7  -7  -9  722.63   30.10
  -7  -7   9  712.83   35.50
  -7  -7   9  749.13   35.80
  -7   7   9  702.63   34.40
   7   7  -9  742.33   34.20
  -7   7   9  712.93   37.80
  -5  -7   9  326.07   23.40
   5  -7  -9  348.57   17.20
  -5  -7   9  345.37   21.60
  -5  -7   9  323.77   20.40
  -5   7   9  335.67   23.90
  -5   7   9  331.37   20.40
  -3  -7   9   97.59   11.80
   3  -7  -9  103.19    9.00
  -3  -7   9  102.39   13.70
  -3  -7   9   89.49   10.60
  -3   7   9  118.49   15.00
  -1  -7   9  335.27   25.40
  -1  -7   9  311.77   22.00
   1  -7  -9  317.17   16.50
  -1   7   9  326.67   17.90
  -1   7   9  300.47   25.40
   1  -7   9  237.58   23.20
   1  -7   9  262.57   21.10
   1   7   9  296.97   17.90
   1   7   9  304.27   26.40
  -1   7  -9  268.07   12.90
   3  -7   9  156.08   18.30
   3  -7   9  135.09   20.20
   3   7   9  140.09   13.80
   3   7   9  145.99   23.50
  -3   7  -9  160.58   10.30
 -16  -8   9  700.83   35.80
 -16  -8   9  720.03   35.10
 -16   8   9  658.73   34.00
  16   8  -9  653.73   30.70
 -16   8   9  685.53   32.50
 -14  -8   9  784.32   39.10
 -14  -8   9  784.12   47.40
 -14  -8   9  800.82   38.70
 -14  -8   9  760.32   38.30
 -14   8   9  838.32   37.50
 -14   8   9  804.72   35.00
  14   8  -9  753.62   35.10
 -14   8   9  771.42   37.50
 -12  -8   9  698.23   36.10
 -12  -8   9  706.13   36.80
 -12  -8   9  736.33   36.30
  12  -8  -9  723.03   32.80
 -12  -8   9  710.63   39.90
  12   8  -9  679.03   33.00
 -12   8   9  766.32   35.70
 -12   8   9  731.23   30.00
  12   8  -9  714.73   27.70
 -12   8   9  724.83   35.20
 -10  -8   9  604.24   32.40
 -10  -8   9  551.04   30.90
 -10  -8   9  576.84   33.30
  10  -8  -9  570.04   26.50
 -10   8   9  545.65   29.30
 -10   8   9  590.84   31.00
  10   8  -9  549.74   28.30
  -8  -8   9  670.33   36.30
  -8  -8   9  675.43   36.40
   8  -8  -9  693.93   30.40
  -8  -8   9  658.53   35.20
  -8   8   9  672.93   34.00
  -8   8   9  730.63   36.80
   8   8  -9  672.03   33.10
  -6  -8   9  662.63   34.70
  -6  -8   9  635.64   36.40
  -6  -8   9  616.84   34.40
   6  -8  -9  681.43   30.10
   6   8  -9  705.23   33.70
  -6   8   9  689.33   36.80
  -6   8   9  658.23   33.60
   4  -8  -9  574.14   28.20
  -4  -8   9  636.44   32.80
  -4  -8   9  622.14   34.00
  -4  -8   9  591.94   36.20
  -4   8   9  616.84   32.30
  -4   8   9  688.73   37.90
  -2  -8   9  711.43   34.40
  -2  -8   9  627.74   35.60
  -2  -8   9  591.44   38.10
  -2   8   9  690.33   39.90
   0  -8   9  287.37   22.80
   0  -8   9  272.27   24.90
   0   8   9  273.17   17.30
   0   8   9  295.67   25.10
   0   8  -9  285.07   12.70
 -13  -9   9   78.39   12.10
 -13  -9   9   74.09   12.00
  13   9  -9   99.79   12.10
 -13   9   9   85.69   11.90
 -13   9   9   90.79   11.70
  13   9  -9   93.19    7.90
 -11  -9   9   10.00    6.70
 -11  -9   9   30.90    9.30
 -11   9   9   25.20    7.60
 -11   9   9   27.60    7.60
  11   9  -9   27.80    7.40
  -9  -9   9   49.99    9.90
  -9  -9   9   35.60    9.00
   9   9  -9   62.39    9.70
  -9   9   9   58.39   10.80
  -9   9   9   59.49   10.00
  -7  -9   9   94.29   14.30
  -7  -9   9   72.69   11.70
  -7  -9   9  194.38   30.50
  -7   9   9  103.89   12.20
  -7   9   9  105.39   13.50
   7   9  -9  103.49   12.00
  -5  -9   9   68.79   14.00
  -5  -9   9   77.89   11.70
   5   9  -9   75.39   11.50
  -5   9   9   81.59   12.20
  -5   9   9   67.39   12.50
  -3  -9   9   39.70    9.20
  -3  -9   9   56.39   12.90
  -3   9   9   47.00   11.10
  -3   9   9   50.49   10.00
 -22   0  10  537.15   25.80
 -22   0  10  557.24   29.20
  20   0 -10  422.26   24.10
 -20   0  10  422.36   20.60
 -20   0  10  439.16   23.00
 -18   0  10  880.41   36.00
 -18   0  10  933.21   37.80
  18   0 -10  818.82   37.90
  18   0 -10  890.21   37.30
  16   0 -10 1433.36   54.99
  16   0 -10 1357.16   54.59
 -16   0  10 1433.26   53.99
 -16   0  10 1432.26   54.79
 -14   0  10 2897.51  112.29
  14   0 -10 2947.10  107.49
 -14   0  10 3031.70  106.69
 -14   0  10 2887.31  106.69
 -12   0  10 3126.49  109.49
 -12   0  10 3170.88  107.99
 -12   0  10 3018.40  111.69
 -12   0  10 2937.81  114.89
 -12   0  10 2981.10  108.09
 -12   0  10 2968.70  109.09
 -10   0  10 1862.31   71.49
 -10   0  10 1767.42   65.49
 -10   0  10 1770.42   69.79
  -8   0  10 1420.86   52.29
  -8   0  10 1424.16   57.49
  -6   0  10 1165.78   49.70
  -6   0  10 1249.28   45.20
  -6   0  10 1161.58   44.80
   6   0 -10 1196.58   49.20
  -6   0  10 1228.78   44.70
  -4   0  10 1638.44   66.99
   4   0 -10 1784.72   62.09
   4   0 -10 1668.03   66.49
  -4   0  10 1577.74   61.39
  -4   0  10 1688.33   63.29
   2   0 -10 1050.19   45.00
  -2   0  10 1026.20   45.30
  -2   0  10 1042.70   40.20
  -2   0  10 1040.90   42.70
   0   0  10  375.96   17.40
   0   0  10  362.76   21.30
   0   0 -10  326.47   30.80
   0   0  10  362.06   20.00
   2   0  10  478.25   26.90
   2   0  10  484.95   26.20
   2   0  10  496.25   23.00
   4   0  10  205.28   17.10
   4   0  10  224.48   17.50
 -23  -1  10  139.19   10.90
 -23   1  10  125.99   11.10
 -21  -1  10  272.17   18.50
 -21  -1  10  264.37   14.80
 -21   1  10  260.87   15.40
 -21   1  10  258.17   17.00
  19  -1 -10  132.39   12.50
 -19  -1  10  148.69   12.40
 -19  -1  10  159.88    9.80
 -19   1  10  143.59   11.10
 -19   1  10  150.28   10.30
  19   1 -10  157.38   14.10
  19   1 -10  154.08   14.30
  17  -1 -10  293.47   16.80
  17  -1 -10  340.97   17.80
 -17  -1  10  343.77   15.70
 -17  -1  10  343.27   18.10
 -17   1  10  319.17   16.30
 -17   1  10  347.87   16.40
  17   1 -10  302.37   17.80
  17   1 -10  327.77   16.70
  15  -1 -10  498.75   22.70
  15  -1 -10  477.55   20.40
 -15  -1  10  489.45   22.70
 -15  -1  10  495.65   26.30
 -15  -1  10  516.05   21.00
 -15   1  10  498.65   22.00
  15   1 -10  475.65   22.00
 -15   1  10  512.45   20.70
  15   1 -10  541.15   22.10
 -13  -1  10   71.29    5.00
 -13  -1  10   67.39    5.60
 -13  -1  10   62.99    3.90
 -13  -1  10   69.49    4.70
 -13  -1  10   60.79    8.00
 -13  -1  10   63.99    5.60
 -13   1  10   56.49    5.30
 -13   1  10   67.39    8.00
 -13   1  10   61.49    6.00
 -11  -1  10  227.68   15.40
 -11  -1  10  244.78   11.80
 -11  -1  10  261.87   11.30
 -11  -1  10  238.88   10.50
 -11  -1  10  253.67   11.60
 -11   1  10  252.57   15.00
 -11   1  10  264.07   15.10
 -11   1  10  230.58   11.80
  -9  -1  10  641.14   23.20
  -9  -1  10  607.14   25.00
  -9  -1  10  613.24   29.70
  -9  -1  10  643.94   24.60
  -9  -1  10  606.54   25.90
  -9   1  10  616.74   25.10
  -9   1  10  622.04   28.50
  -9   1  10  621.84   29.60
  -7  -1  10  360.96   16.20
  -7  -1  10  372.66   14.10
  -7  -1  10  376.76   16.20
  -7  -1  10  359.96   14.10
  -7  -1  10  351.26   20.10
  -7  -1  10  364.86   17.90
  -7   1  10  365.46   16.30
  -7   1  10  374.76   19.00
  -7   1  10  364.86   21.10
  -5  -1  10  466.35   22.50
  -5  -1  10  492.45   18.10
  -5  -1  10  434.56   20.50
   5  -1 -10  442.76   22.00
  -5  -1  10  450.95   24.20
  -5  -1  10  467.95   18.30
  -5   1  10  480.45   23.00
  -5   1  10  469.35   19.00
   5   1 -10  458.95   23.80
   5   1 -10  463.05   19.60
  -5   1  10  465.65   19.90
   3  -1 -10  368.76   19.80
  -3  -1  10  376.96   16.10
  -3  -1  10  376.06   19.10
  -3  -1  10  395.96   22.10
   3   1 -10  391.96   22.00
  -3   1  10  365.66   20.10
  -3   1  10  405.86   18.40
  -3   1  10  403.46   17.70
  -1  -1  10  190.48   15.10
   1  -1 -10  192.68   14.30
  -1  -1  10  188.28   13.30
  -1  -1  10  218.28   10.80
  -1   1  10  239.18   13.60
  -1   1  10  205.58   14.20
  -1   1  10  202.48   11.80
  -1  -1 -10  158.18   14.80
   1  -1  10  194.78   11.20
   1  -1  10  187.78   15.50
   1  -1  10  172.58   13.80
   1   1  10  172.18   13.40
   1   1  10  184.68   12.00
   1   1  10  179.08   14.00
   3  -1  10  132.69   14.20
   3  -1  10  112.29   12.30
   3  -1  10  148.49   11.00
   3   1  10  136.79   12.70
   3   1  10  123.59   13.10
   5  -1  10   26.50    8.20
   5  -1  10   37.00    9.80
   5   1  10   42.20    8.90
   5   1  10   32.30    8.30
 -22  -2  10   94.79    8.70
 -22   2  10   81.69    9.20
 -22   2  10  111.59   11.70
  20  -2 -10   45.50    8.10
 -20  -2  10   51.79    5.90
 -20  -2  10   49.10    9.30
 -20   2  10   52.69    7.20
  20   2 -10   75.89   10.60
 -20   2  10   56.59    7.40
 -18  -2  10   47.30    8.60
  18  -2 -10   43.90    6.90
 -18  -2  10   26.90    4.20
 -18  -2  10   39.80    7.40
  18   2 -10   36.20    6.10
 -18   2  10   25.90    4.90
  18   2 -10   46.10    7.90
 -18   2  10   39.50    5.60
 -16  -2  10  108.39   11.00
  16  -2 -10  121.29   10.10
  16  -2 -10  113.59    8.20
 -16  -2  10  123.79    7.20
 -16  -2  10  115.19    9.90
  16   2 -10  108.09    8.00
  16   2 -10  111.09   10.00
 -16   2  10  119.19    8.70
 -16   2  10  117.29    7.10
 -14  -2  10  348.67   18.20
 -14  -2  10  366.66   15.00
 -14  -2  10  358.86   21.20
 -14   2  10  353.26   19.90
  14   2 -10  363.36   15.80
 -14   2  10  352.66   15.90
 -14   2  10  355.26   17.10
 -12  -2  10   72.79    8.60
 -12  -2  10   62.79    4.50
 -12  -2  10   60.39    3.50
 -12  -2  10   55.19    5.10
 -12  -2  10   54.69    6.10
 -12   2  10   58.19    5.50
 -12   2  10   67.39    7.50
 -12   2  10   57.69    7.00
 -10  -2  10   30.20    4.60
 -10  -2  10   20.30    5.40
 -10  -2  10   23.30    3.40
 -10  -2  10   26.80    3.70
 -10   2  10   28.80    5.20
 -10   2  10   35.30    6.40
 -10   2  10   22.00    3.70
  -8  -2  10  200.48   14.60
  -8  -2  10  204.68   11.80
  -8  -2  10  211.98   11.60
  -8  -2  10  213.08   11.20
  -8   2  10  213.88   12.50
  -8   2  10  203.18   11.20
  -8   2  10  200.78   14.60
  -6  -2  10  112.19    8.80
  -6  -2  10  121.19    8.00
  -6  -2  10  109.79    7.90
  -6  -2  10  114.19   10.70
  -6   2  10  103.19    8.20
  -6   2  10  117.19    8.10
   6   2 -10  119.29   10.90
  -6   2  10  118.39   11.70
   4  -2 -10  280.67   11.80
  -4  -2  10  258.77   10.50
  -4  -2  10  240.88   17.50
   4  -2 -10  250.37   14.10
  -4  -2  10  280.37   15.80
  -4  -2  10  286.27   15.10
  -4   2  10  251.27   12.50
  -4   2  10  289.67   15.30
  -4   2  10  249.68   18.40
  -4   2  10  281.77   14.10
   2  -2 -10  319.97   17.30
  -2  -2  10  332.57   18.50
  -2  -2  10  327.37   21.00
  -2  -2  10  335.57   14.10
  -2   2  10  342.77   23.30
  -2   2  10  334.17   16.90
  -2   2  10  360.16   17.10
  -2   2  10  328.97   17.90
   0  -2  10   90.09    9.70
   0  -2 -10   66.79    8.90
   0  -2  10   80.39    6.30
   0  -2  10   72.69   11.10
   0   2  10   78.79    8.60
   0   2  10   72.59   12.00
   0   2  10   94.19    8.70
   0   2  10   84.59    8.60
   2  -2  10   36.50    8.30
   2  -2  10   44.80    5.80
  -2  -2 -10   48.60    8.50
   2  -2  10   38.20    7.60
   2   2  10   40.20    7.20
   2   2  10   26.80    9.90
   2   2  10   44.00    7.80
   4  -2  10   61.99   11.10
   4  -2  10   39.50    8.60
   4   2  10   58.59    9.00
   4   2  10   32.40    7.60
   4   2  10   42.90   12.10
 -21  -3  10  498.85   29.00
 -21  -3  10  559.14   31.90
 -21  -3  10  506.35   23.80
 -21   3  10  532.35   26.20
 -21   3  10  550.74   26.10
  19  -3 -10  542.25   27.40
 -19  -3  10  584.14   30.60
 -19  -3  10  540.55   30.00
 -19  -3  10  567.84   24.60
 -19   3  10  605.64   26.00
 -19   3  10  611.54   27.40
  19   3 -10  561.64   30.10
  19   3 -10  592.04   26.90
 -17  -3  10  591.24   24.00
  17  -3 -10  579.34   25.50
 -17  -3  10  614.14   29.70
 -17  -3  10  597.84   30.60
 -17   3  10  573.34   24.20
  17   3 -10  536.55   28.20
 -17   3  10  600.14   22.70
 -17   3  10  591.64   26.80
  17   3 -10  567.74   25.20
 -15  -3  10 1130.39   41.60
 -15  -3  10 1087.89   49.30
 -15  -3  10 1083.59   46.80
 -15   3  10 1098.79   40.90
  15   3 -10 1078.79   42.30
 -15   3  10 1139.99   42.60
 -15   3  10 1151.08   45.10
 -13  -3  10  936.61   39.80
 -13  -3  10  938.81   33.90
 -13  -3  10  941.71   42.60
 -13  -3  10  939.91   38.00
 -13  -3  10  946.61   35.20
 -13   3  10  937.31   39.80
 -13   3  10  887.41   37.80
 -13   3  10  881.41   38.30
 -11  -3  10  925.51   37.50
 -11  -3  10  896.01   39.10
 -11  -3  10  956.70   35.90
 -11  -3  10  895.51   42.10
 -11   3  10  876.61   40.70
 -11   3  10  984.40   38.80
 -11   3  10  908.81   37.50
  -9  -3  10 1121.29   41.80
  -9  -3  10  999.60   46.80
  -9  -3  10 1031.00   43.80
  -9  -3  10 1100.99   42.60
  -9   3  10 1029.50   47.10
  -9   3  10 1030.50   42.40
  -9   3  10 1111.49   42.90
  -7  -3  10  953.20   39.40
  -7  -3  10  956.80   38.90
  -7  -3  10  971.20   39.20
  -7  -3  10  964.20   44.10
  -7   3  10  968.60   38.70
  -7   3  10  952.00   39.20
  -7   3  10  927.91   43.90
  -5  -3  10  983.60   41.60
  -5  -3  10  953.90   45.50
  -5  -3  10 1001.60   41.50
  -5   3  10 1046.50   47.50
  -5   3  10 1045.00   40.60
  -5   3  10  988.20   36.80
  -3  -3  10  634.44   29.60
  -3  -3  10  617.14   33.20
  -3   3  10  602.74   26.30
  -3   3  10  607.74   34.30
  -3   3  10  674.13   28.30
  -3   3  10  634.34   27.50
  -1  -3  10  455.95   18.20
  -1  -3  10  465.05   24.50
   1  -3 -10  444.36   20.80
  -1  -3  10  410.26   26.30
  -1   3  10  456.05   29.10
  -1   3  10  464.95   21.60
  -1   3  10  454.45   21.90
   1  -3  10  487.75   29.60
  -1  -3 -10  430.56   22.90
   1  -3  10  535.65   21.30
   1  -3  10  479.35   27.00
   1   3  10  499.65   23.60
   1   3  10  484.25   25.20
   1   3  10  552.84   33.20
  -3  -3 -10  333.37   20.50
   3  -3  10  377.96   25.80
   3  -3  10  367.76   18.10
   3  -3  10  353.96   23.80
   3   3  10  398.66   29.10
   3   3  10  347.17   21.90
   3   3  10  357.36   19.60
   5  -3  10  172.68   17.70
   5   3  10  184.18   33.40
   5   3  10  144.59   19.70
   5   3  10  177.88   14.00
 -20  -4  10  195.18   11.20
 -20  -4  10  179.48   15.40
 -20  -4  10  171.28   18.50
 -20   4  10  179.38   13.30
 -20   4  10  179.48   12.40
 -18  -4  10  232.58   17.30
  18  -4 -10  222.98   14.50
 -18  -4  10  245.68   12.00
 -18  -4  10  220.38   18.30
 -18   4  10  239.98   11.40
 -18   4  10  226.68   14.70
 -18   4  10  217.78   12.40
  18   4 -10  214.98   13.70
 -16  -4  10  390.26   23.50
 -16  -4  10  412.06   17.10
 -16  -4  10  416.06   24.00
  16  -4 -10  365.46   17.90
 -16   4  10  392.86   17.00
 -16   4  10  453.95   18.60
 -16   4  10  411.26   20.80
  16   4 -10  396.76   18.20
  16   4 -10  410.86   22.10
 -14  -4  10  234.28   12.00
 -14  -4  10  242.38   16.60
 -14  -4  10  241.08   17.00
 -14  -4  10  223.68   13.90
  14   4 -10  226.88   10.40
 -14   4  10  230.18   13.10
 -14   4  10  222.48   13.60
 -14   4  10  225.48   14.50
 -12  -4  10  335.87   21.40
 -12  -4  10  365.76   16.20
 -12  -4  10  362.76   20.40
 -12  -4  10  336.67   18.20
 -12   4  10  347.07   18.00
 -12   4  10  343.57   19.60
 -12   4  10  360.76   18.00
 -10  -4  10  677.93   31.30
 -10  -4  10  678.63   27.80
 -10  -4  10  612.04   32.70
 -10  -4  10  640.44   29.30
 -10   4  10  671.33   28.10
 -10   4  10  692.23   29.60
 -10   4  10  664.63   33.30
  -8  -4  10  653.13   29.00
  -8  -4  10  639.64   27.60
  -8  -4  10  650.73   29.90
  -8  -4  10  610.74   32.50
  -8   4  10  668.23   29.00
  -8   4  10  641.04   26.60
  -8   4  10  622.94   33.20
  -6  -4  10  333.47   18.00
  -6  -4  10  334.57   17.30
  -6  -4  10  330.27   17.60
  -6  -4  10  338.47   21.50
  -6   4  10  335.37   15.50
  -6   4  10  302.97   21.70
  -6   4  10  325.37   17.80
   4  -4 -10  263.97   11.30
  -4  -4  10  275.77   16.50
  -4  -4  10  269.87   19.40
  -4   4  10  258.27   19.70
  -4   4  10  270.07   12.70
  -4   4  10  259.27   13.00
  -2  -4  10  308.17   21.80
  -2  -4  10  290.37   18.60
  -2   4  10  315.17   14.80
  -2   4  10  311.77   16.20
  -2   4  10  306.77   23.30
   0  -4  10  202.38   15.90
   0  -4  10  196.18   18.80
   0  -4  10  197.38    9.70
   0  -4 -10  199.98   11.10
   0   4  10  220.58   20.60
   0   4  10  208.38   13.90
   0   4  10  206.98   11.60
  -2  -4 -10  182.88   12.20
   2  -4  10  227.58   18.00
   2  -4  10  216.18   19.40
   2  -4  10  203.88   11.50
   2   4  10  204.78   12.40
   2   4  10  193.38   20.80
   2   4  10  189.58   14.70
   4  -4  10   86.69   13.30
   4  -4  10   71.89   13.90
   4   4  10   73.59   15.80
   4   4  10   95.99   12.50
   4   4  10  106.99    9.70
 -19  -5  10   24.40    7.10
 -19  -5  10   24.40    9.90
 -19   5  10   31.70    5.20
  19   5 -10   23.10    8.30
  19   5 -10   21.80    7.20
 -19   5  10   25.80    4.40
 -19   5  10   33.20    6.60
  17  -5 -10    2.60    5.00
 -17  -5  10   12.60    7.90
 -17  -5  10    9.00    5.00
  17   5 -10    0.00    4.30
  17   5 -10    8.10    5.60
 -17   5  10    6.70    3.30
 -17   5  10    3.00    3.70
 -17   5  10    6.90    2.70
  15  -5 -10   39.40    4.60
 -15  -5  10   33.30    6.00
 -15  -5  10   31.40    7.50
 -15  -5  10   30.20    7.70
 -15  -5  10   36.90    5.60
 -15   5  10   40.30    6.50
 -15   5  10   42.90    6.00
  15   5 -10   46.00    4.90
 -15   5  10   35.60    7.20
 -13  -5  10  138.99   13.70
 -13  -5  10  123.79   12.50
 -13  -5  10  122.39   10.50
 -13  -5  10  133.99    9.60
 -13   5  10  140.79   10.30
 -13   5  10  129.49   10.10
 -13   5  10  119.39   10.50
 -13   5  10  127.19    9.80
 -11  -5  10   19.10    6.20
 -11  -5  10    7.20    3.50
 -11  -5  10    7.20    3.50
 -11  -5  10   15.60    6.10
 -11   5  10   23.50    4.10
 -11   5  10   13.20    4.20
 -11   5  10   15.90    4.00
 -11   5  10   13.80    5.10
  -9  -5  10   54.69    7.40
  -9  -5  10   44.50    7.60
  -9  -5  10   56.89    6.70
  -9  -5  10   49.50    8.80
  -9   5  10   53.29    5.40
  -9   5  10   80.39   10.50
  -9   5  10   59.59    7.90
  -9   5  10   57.69    5.10
  -7  -5  10   91.79    9.70
  -7  -5  10   97.59    9.30
  -7  -5  10   86.59    8.60
  -7  -5  10   99.69   12.00
  -7   5  10  109.79   12.80
  -7   5  10   91.59    9.00
  -7   5  10   98.89    6.20
  -5  -5  10   25.00    5.60
  -5  -5  10   19.60    6.70
  -5  -5  10   23.80    5.20
  -5   5  10   32.10    8.90
  -3  -5  10  126.69   14.20
  -3  -5  10  108.89   11.40
  -3   5  10  141.39   16.20
  -3   5  10  141.39    9.00
  -1  -5  10   85.79   14.10
  -1  -5  10  103.79   11.70
  -1   5  10   98.69   15.10
  -1   5  10   94.69    9.00
   1  -5  10   22.60    9.00
   1  -5  10   25.30    3.80
   1  -5  10   14.10    6.60
   1   5  10   10.00    8.90
   1   5  10   31.90    6.50
   3  -5  10    3.40    6.90
   3  -5  10   20.40    9.60
   3   5  10   19.10    6.80
   3   5  10    2.60    8.50
  18  -6 -10  383.26   28.40
 -18  -6  10  410.76   24.80
 -18   6  10  362.46   21.90
 -18   6  10  404.06   19.70
  18   6 -10  390.56   24.50
 -18   6  10  409.46   18.50
 -16  -6  10  643.14   31.60
 -16  -6  10  655.23   28.30
 -16  -6  10  645.34   36.30
 -16  -6  10  632.14   33.60
  16  -6 -10  629.84   28.20
  16  -6 -10  644.64   35.90
 -16   6  10  657.33   29.30
 -16   6  10  655.73   31.20
  16   6 -10  648.94   26.70
  14  -6 -10  580.24   33.50
 -14  -6  10  638.74   32.60
 -14  -6  10  602.24   28.10
 -14  -6  10  564.74   29.30
 -14  -6  10  624.04   33.60
  14  -6 -10  570.14   23.70
 -14   6  10  598.64   27.90
 -14   6  10  600.84   28.50
 -14   6  10  617.14   29.30
 -12  -6  10  523.85   24.70
 -12  -6  10  502.35   29.00
 -12  -6  10  509.35   26.70
 -12  -6  10  495.15   28.70
 -12   6  10  526.55   23.50
 -12   6  10  510.55   25.90
 -12   6  10  540.55   27.50
 -12   6  10  526.05   22.80
 -10  -6  10  797.82   38.40
 -10  -6  10  784.52   36.60
 -10  -6  10  799.22   33.90
 -10  -6  10  777.62   39.40
 -10   6  10  801.52   31.20
 -10   6  10  795.42   30.90
 -10   6  10  758.92   38.20
 -10   6  10  762.22   35.60
  -8  -6  10  866.51   44.10
  -8  -6  10  885.31   40.80
  -8  -6  10  938.31   42.00
  -8   6  10  916.31   44.90
  -8   6  10  905.71   40.40
  -6  -6  10  676.03   33.10
  -6  -6  10  674.73   32.60
  -6  -6  10  672.13   36.70
  -6   6  10  678.83   32.70
  -6   6  10  685.43   37.70
  -4  -6  10  230.88   19.50
  -4  -6  10  230.78   15.80
  -4  -6  10  255.07   17.50
   4  -6 -10  230.38   12.20
  -4   6  10  229.08   20.80
  -2  -6  10  175.28   17.80
  -2  -6  10  161.48   14.60
   2  -6 -10  150.28   10.00
  -2   6  10  136.89   16.80
  -2   6  10  157.58   10.70
   0  -6  10  270.47   20.30
   0  -6  10  237.28   22.60
   0   6  10  258.17   16.20
   0   6  10  294.27   25.50
   2  -6  10  248.38   23.90
   2  -6  10  270.77   22.20
   2   6  10  317.37   27.80
   2   6  10  264.07   18.30
 -17  -7  10  218.18   17.70
 -17  -7  10  209.68   16.30
 -17   7  10  209.98   15.90
 -17   7  10  237.18   14.90
  15  -7 -10  355.06   18.60
 -15  -7  10  343.57   21.50
 -15  -7  10  350.76   27.00
 -15  -7  10  337.97   21.30
 -15  -7  10  338.87   22.60
 -15   7  10  378.36   20.40
 -15   7  10  338.27   20.70
 -15   7  10  336.17   20.10
 -13  -7  10  223.88   20.70
 -13  -7  10  228.48   16.80
 -13  -7  10  209.88   16.30
  13  -7 -10  215.48   12.00
 -13  -7  10  220.18   17.70
 -13   7  10  211.38   15.60
 -13   7  10  228.58   12.60
 -13   7  10  226.28   13.80
 -13   7  10  219.78   15.60
 -11  -7  10  332.47   22.50
 -11  -7  10  318.27   23.00
 -11  -7  10  323.07   18.90
 -11  -7  10  316.07   20.50
 -11   7  10  314.37   14.80
 -11   7  10  331.97   21.50
 -11   7  10  334.57   19.90
 -11   7  10  316.87   14.30
  -9  -7  10  349.07   23.90
  -9  -7  10  353.16   23.20
  -9  -7  10  333.57   21.60
  -9   7  10  359.96   21.20
  -9   7  10  342.87   23.20
  -7  -7  10  308.07   22.80
   7  -7 -10  301.07   14.40
  -7  -7  10  360.56   21.70
  -7  -7  10  295.27   20.50
  -7   7  10  324.27   20.00
  -7   7  10  294.27   23.10
   5  -7 -10  454.55   21.20
  -5  -7  10  478.35   30.40
  -5  -7  10  502.95   26.50
  -5  -7  10  429.86   26.20
  -5   7  10  471.95   30.80
  -5   7  10  434.56   25.50
  -3  -7  10  456.65   27.80
  -3  -7  10  506.95   32.00
   3  -7 -10  487.75   22.30
  -3  -7  10  442.76   26.00
  -3   7  10  507.15   33.20
  -1  -7  10  456.25   32.30
  -1  -7  10  492.25   29.30
  -1   7  10  492.85   23.90
  -1   7  10  465.45   33.20
 -16  -8  10   49.40    8.70
 -16  -8  10   38.60    9.10
 -16   8  10   49.30    8.30
 -16   8  10   33.30    7.90
 -14  -8  10    8.00    6.00
 -14  -8  10    6.50    5.80
 -14   8  10    3.20    5.20
  14   8 -10    3.30    5.20
 -14   8  10    8.30    5.40
  12  -8 -10    4.30    5.90
 -12  -8  10   17.90   12.00
 -12  -8  10   -1.50    4.80
 -12  -8  10    6.60    6.30
  12   8 -10    7.40    5.10
 -12   8  10    7.20    5.30
 -12   8  10    1.20    4.70
 -12   8  10    5.60    2.80
 -12   8  10   -4.80    5.00
  10  -8 -10   34.00    6.60
 -10  -8  10   40.20    7.80
 -10  -8  10   50.79    9.70
 -10  -8  10   61.29   12.30
 -10   8  10   54.19    9.10
 -10   8  10   58.09   10.30
  -8  -8  10   35.80   10.10
  -8  -8  10   19.10    7.90
   8  -8 -10   37.60    6.90
  -8  -8  10   30.40    7.40
  -8   8  10   27.20    8.70
  -8   8  10   36.90    8.00
   6  -8 -10   72.19    8.80
  -6  -8  10   72.19   13.30
  -6  -8  10   77.09   11.10
  -6  -8  10   91.29   12.80
  -6   8  10   97.09   11.10
  -6   8  10   60.49   12.30
  -4  -8  10   17.00    9.00
  -4  -8  10   27.20    8.10
  -4   8  10   34.50    8.70
  -4   8  10   36.70   11.10
  -2  -8  10   15.90    9.30
  -2  -8  10   18.80    8.00
  -2   8  10   -4.20    9.00
 -11  -9  10  598.54   34.80
 -11  -9  10  542.15   33.50
 -11   9  10  571.04   32.10
 -11   9  10  643.34   33.40
  11   9 -10  595.84   31.30
  -9  -9  10  508.35   32.30
  -9  -9  10  548.45   32.20
  -9   9  10  512.35   29.80
  -9   9  10  570.44   32.30
   9   9 -10  529.85   29.70
  -7  -9  10  463.15   31.20
  -7  -9  10  458.75   30.10
  -7   9  10  511.25   31.20
  -7   9  10  456.35   27.70
  -5  -9  10  291.27   23.80
  -5  -9  10  284.37   25.70
  -5   9  10  365.16   27.00
  -5   9  10  330.07   22.40
 -22   0  11    0.00    3.80
 -22   0  11    4.70    5.80
  20   0 -11   13.00    6.90
 -20   0  11    0.60    4.50
 -20   0  11    2.20    2.90
 -18   0  11   -0.40    2.40
 -18   0  11   -4.00    3.00
 -18   0  11    2.80    4.50
  18   0 -11   11.30    5.20
  18   0 -11    9.50    4.60
 -16   0  11    2.60    2.20
  16   0 -11    4.70    3.60
 -16   0  11    0.20    3.90
 -16   0  11   -1.00    2.30
 -14   0  11    2.30    1.30
 -14   0  11    0.00    1.40
 -14   0  11   -1.30    2.80
 -14   0  11    3.80    1.70
 -14   0  11    1.50    1.80
 -14   0  11    5.60    4.00
 -12   0  11    3.70    3.50
 -12   0  11    2.10    1.70
 -12   0  11    4.50    3.40
 -12   0  11    2.70    2.40
 -10   0  11    1.10    1.40
 -10   0  11    7.40    3.80
 -10   0  11    0.60    3.70
  -8   0  11    0.70    1.50
  -8   0  11   -0.10    3.00
  -8   0  11    3.70    1.90
  -6   0  11    1.10    1.90
  -6   0  11    0.30    3.20
  -6   0  11    1.10    1.90
  -6   0  11    1.80    1.70
   6   0 -11    1.20    4.30
  -4   0  11    1.50    2.40
  -4   0  11   -3.50    3.50
   4   0 -11    2.70    4.80
  -4   0  11   -1.70    2.40
  -2   0  11    2.70    4.30
  -2   0  11    5.20    3.30
  -2   0  11   -4.50    2.90
   0   0  11    3.70    3.90
   0   0  11   -1.80    4.10
   0   0  11    5.40    4.90
   2   0  11    2.80    5.50
   2   0  11    6.30    4.90
 -21  -1  11  273.67   15.00
 -21  -1  11  276.87   18.40
 -21   1  11  284.97   16.10
 -21   1  11  279.17   16.80
 -19  -1  11  255.87   13.60
 -19  -1  11  245.28   18.30
 -19  -1  11  294.77   16.70
  19  -1 -11  229.28   15.50
  19   1 -11  253.97   15.80
 -19   1  11  272.47   14.60
  19   1 -11  261.17   17.00
 -19   1  11  267.97   14.50
  17  -1 -11  530.25   24.20
 -17  -1  11  509.85   21.70
  17  -1 -11  523.25   21.10
 -17  -1  11  529.75   23.80
 -17  -1  11  477.45   27.20
 -17   1  11  462.35   26.70
 -17   1  11  537.95   21.50
 -17   1  11  507.75   22.70
  17   1 -11  485.05   23.00
  17   1 -11  496.65   23.00
 -15  -1  11  400.86   18.40
 -15  -1  11  397.76   17.40
 -15  -1  11  403.06   17.00
 -15  -1  11  386.16   23.00
 -15   1  11  388.86   15.70
 -15   1  11  412.66   16.30
 -15   1  11  394.86   18.10
 -15   1  11  372.26   22.00
 -13  -1  11  899.91   32.80
 -13  -1  11  856.41   39.90
 -13  -1  11  840.82   33.00
 -13  -1  11  854.01   33.20
 -13  -1  11  872.71   35.80
 -13  -1  11  843.92   33.60
 -13   1  11  887.61   37.20
 -13   1  11  870.81   38.90
 -13   1  11  869.41   34.30
 -11  -1  11  586.94   24.50
 -11  -1  11  614.14   23.10
 -11  -1  11  606.14   29.80
 -11  -1  11  593.94   22.20
 -11  -1  11  552.74   23.20
 -11   1  11  570.54   24.00
 -11   1  11  565.04   27.90
 -11   1  11  599.34   28.50
  -9  -1  11  178.28   11.10
  -9  -1  11  195.38    7.80
  -9  -1  11  200.88    9.40
  -9  -1  11  194.78    7.80
  -9  -1  11  173.48   13.40
  -9  -1  11  181.28    9.50
  -9   1  11  191.68    9.90
  -9   1  11  161.28   12.20
  -9   1  11  172.18   13.70
  -7  -1  11  487.25   21.40
  -7  -1  11  451.85   25.80
  -7  -1  11  527.75   19.20
  -7  -1  11  541.95   21.80
  -7  -1  11  499.35   23.90
  -7  -1  11  503.85   19.20
  -7   1  11  498.75   21.60
  -7   1  11  508.95   27.60
  -7   1  11  480.05   24.50
  -7   1  11  550.74   21.80
  -5  -1  11  568.84   22.50
  -5  -1  11  619.94   25.80
  -5  -1  11  585.44   22.30
  -5  -1  11  624.64   30.10
   5  -1 -11  535.15   26.70
  -5   1  11  559.64   23.50
  -5   1  11  545.25   30.90
  -5   1  11  590.14   28.10
  -5   1  11  574.04   24.20
  -3  -1  11  380.86   23.20
  -3  -1  11  409.26   20.60
   3  -1 -11  369.16   21.20
  -3  -1  11  394.46   17.00
  -3   1  11  421.46   19.60
  -3   1  11  432.26   22.30
  -3   1  11  410.26   18.60
  -1  -1  11  319.37   18.70
   1  -1 -11  286.97   19.20
  -1  -1  11  289.97   20.30
  -1  -1  11  317.57   15.00
  -1   1  11  318.27   18.00
  -1   1  11  314.27   16.40
  -1   1  11  315.27   19.10
   1  -1  11  252.67   14.00
   1  -1  11  244.88   19.00
   1  -1  11  238.08   17.10
   1   1  11  242.48   16.90
   1   1  11  229.58   16.60
   3  -1  11  163.98   16.60
   3  -1  11  132.69   14.50
   3   1  11  161.28   14.90
   3   1  11  142.19   14.80
 -22  -2  11  166.08   11.30
 -22  -2  11  145.89   15.10
 -22   2  11  181.68   13.60
 -22   2  11  188.88   13.00
 -20  -2  11  285.17   14.90
 -20  -2  11  324.37   19.90
  20  -2 -11  270.47   18.00
 -20  -2  11  289.37   20.40
 -20   2  11  308.67   16.10
  20   2 -11  275.37   20.20
 -20   2  11  335.87   17.30
 -18  -2  11  458.15   19.70
 -18  -2  11  464.15   26.20
 -18  -2  11  482.95   23.90
  18  -2 -11  436.16   20.30
  18   2 -11  446.46   21.30
 -18   2  11  453.75   19.60
 -18   2  11  473.15   21.90
  18   2 -11  420.86   22.70
 -16  -2  11  573.54   23.20
 -16  -2  11  564.74   30.50
 -16  -2  11  597.24   26.70
 -16   2  11  560.04   29.20
 -16   2  11  596.54   22.40
 -16   2  11  558.74   25.50
  16   2 -11  591.64   24.50
 -14  -2  11  637.04   32.70
 -14  -2  11  653.43   24.80
 -14  -2  11  680.73   28.60
 -14  -2  11  639.54   26.60
 -14  -2  11  649.93   27.20
 -14  -2  11  667.73   24.90
 -14   2  11  645.04   31.00
 -14   2  11  645.84   28.20
 -14   2  11  641.64   27.70
 -12  -2  11  518.95   21.00
 -12  -2  11  505.75   21.60
 -12  -2  11  505.25   27.30
 -12  -2  11  491.65   22.50
 -12   2  11  473.85   25.40
 -12   2  11  508.25   22.10
 -12   2  11  501.85   24.70
 -10  -2  11  596.24   25.20
 -10  -2  11  603.94   25.70
 -10  -2  11  607.54   30.90
 -10  -2  11  602.04   26.20
 -10   2  11  618.74   25.70
 -10   2  11  620.44   28.00
 -10   2  11  582.54   30.10
  -8  -2  11  546.55   29.60
  -8  -2  11  580.84   24.80
  -8  -2  11  597.84   25.90
  -8  -2  11  595.24   25.60
  -8   2  11  571.54   25.00
  -8   2  11  576.74   26.70
  -8   2  11  581.14   30.50
  -6  -2  11  690.23   30.00
  -6  -2  11  708.83   31.90
  -6  -2  11  731.13   35.60
  -6  -2  11  741.83   30.90
  -6   2  11  754.22   37.20
  -6   2  11  715.93   30.10
  -6   2  11  719.43   30.60
  -6   2  11  721.63   31.90
  -4  -2  11  478.45   23.40
  -4  -2  11  483.35   18.00
  -4  -2  11  463.65   26.90
   4  -2 -11  468.25   22.60
  -4   2  11  495.45   22.10
  -4   2  11  477.35   20.50
  -4   2  11  479.65   23.60
  -4   2  11  466.15   28.60
  -2  -2  11  106.09   10.00
  -2  -2  11  103.99   12.30
   2  -2 -11   85.29    9.60
  -2  -2  11  104.79    6.50
  -2   2  11   75.69   12.90
  -2   2  11  118.19    9.60
  -2   2  11  102.09    8.70
  -2   2  11  110.09    9.90
   0  -2 -11  187.38   15.20
   0  -2  11  220.28   18.50
   0  -2  11  212.78   16.00
   0  -2  11  212.78   11.60
   0   2  11  233.78   15.10
   0   2  11  217.88   14.80
   0   2  11  212.18   21.20
   2  -2  11  230.38   19.40
   2  -2  11  225.08   17.80
   2   2  11  214.98   22.50
   2   2  11  208.38   15.60
   2   2  11  203.48   16.10
 -21  -3  11   28.20   11.30
 -21  -3  11   35.80    5.60
 -21  -3  11   37.30    8.10
 -21   3  11   41.70    6.70
 -21   3  11   39.20    6.10
 -19  -3  11    4.30    5.80
 -19  -3  11   16.70    6.20
  19  -3 -11   17.60    6.10
 -19  -3  11   26.80    4.10
  19   3 -11    5.30    6.40
 -19   3  11   22.70    4.00
  19   3 -11   29.10    6.30
 -19   3  11   17.30    4.70
 -17  -3  11   23.20    6.70
 -17  -3  11   29.70    6.60
 -17  -3  11   30.80    3.90
 -17   3  11   29.10    3.70
  17   3 -11   19.90    4.60
 -17   3  11   27.30    3.10
 -17   3  11   35.00    5.70
 -15  -3  11   20.20    6.30
 -15  -3  11   21.90    5.50
 -15  -3  11    8.80    3.00
 -15  -3  11   13.90    2.20
 -15   3  11   15.40    3.80
 -15   3  11   14.00    4.80
 -15   3  11   13.90    3.60
 -13  -3  11    2.10    2.30
 -13  -3  11    6.10    2.50
 -13  -3  11   -2.20    3.40
 -13  -3  11    3.20    3.70
 -13   3  11   -0.10    3.10
 -13   3  11    6.30    4.10
 -13   3  11    4.70    2.70
 -11  -3  11   99.59    7.40
 -11  -3  11  103.69    7.70
 -11  -3  11   86.59    9.30
 -11  -3  11  104.99   11.20
 -11   3  11  117.59    9.10
 -11   3  11  103.29    7.90
 -11   3  11   92.69   11.00
  -9  -3  11    7.90    5.00
  -9  -3  11    3.80    3.80
  -9  -3  11    6.90    3.40
  -9  -3  11    1.00    2.30
  -9   3  11    5.70    2.80
  -9   3  11    0.40    4.80
  -9   3  11    4.90    2.90
  -7  -3  11    2.30    3.70
  -7  -3  11    8.50    3.70
  -7  -3  11    5.10    2.80
  -7  -3  11    0.40    4.10
  -7   3  11    6.40    2.90
  -7   3  11    2.50    3.00
  -7   3  11    6.20    5.10
  -5  -3  11    9.50    5.60
  -5  -3  11    8.40    3.70
  -5   3  11   10.30    4.50
  -5   3  11   12.20    3.70
  -5   3  11    9.70    6.50
  -3  -3  11    1.50    5.00
  -3  -3  11    0.60    3.30
  -3   3  11    8.60    3.00
  -3   3  11    4.50    3.60
  -3   3  11   -0.80    5.50
  -1  -3  11   10.00    5.20
  -1  -3  11   19.60    3.20
   1  -3 -11   29.00    5.50
  -1  -3  11   15.90    7.30
  -1   3  11   14.00    4.70
  -1   3  11   31.20   10.50
  -1   3  11   19.80    4.90
   1  -3  11   32.60    6.70
   1  -3  11   22.50    8.30
  -1  -3 -11   34.80    7.40
   1  -3  11   31.20    7.70
   1   3  11   35.70    7.00
   1   3  11   29.20    6.30
   1   3  11   45.20   11.50
   3   3  11    0.90    6.00
 -20  -4  11  363.46   23.70
 -20  -4  11  368.36   17.20
 -20  -4  11  319.97   26.90
  20   4 -11  382.66   26.80
 -20   4  11  370.26   17.70
 -20   4  11  381.36   20.70
 -18  -4  11  443.56   25.90
 -18  -4  11  461.65   26.80
  18  -4 -11  399.66   19.10
 -18  -4  11  460.05   18.90
 -18   4  11  429.16   18.20
  18   4 -11  451.65   20.50
 -18   4  11  442.06   22.80
 -18   4  11  446.66   18.90
 -16  -4  11  557.54   28.10
 -16  -4  11  510.95   24.80
 -16  -4  11  504.85   28.80
 -16   4  11  533.65   22.80
  16   4 -11  500.75   20.90
 -16   4  11  459.45   24.10
 -14  -4  11  722.03   37.10
 -14  -4  11  753.92   35.20
 -14  -4  11  743.83   29.70
 -14  -4  11  719.63   32.60
 -14   4  11  731.43   32.90
 -14   4  11  771.12   33.30
 -14   4  11  723.93   32.40
 -14   4  11  735.63   32.60
 -12  -4  11  898.11   37.60
 -12  -4  11  894.01   39.70
 -12  -4  11  880.51   35.30
 -12  -4  11  831.72   41.90
 -12   4  11  848.12   37.20
 -12   4  11  892.61   37.00
 -12   4  11  921.61   41.10
 -10  -4  11  754.62   31.10
 -10  -4  11  708.43   32.30
 -10  -4  11  754.32   37.60
 -10  -4  11  763.92   34.40
 -10   4  11  742.13   31.10
 -10   4  11  744.33   37.20
 -10   4  11  711.83   32.20
  -8  -4  11  722.93   31.70
  -8  -4  11  714.53   30.80
  -8  -4  11  740.53   32.60
  -8  -4  11  702.93   36.60
  -8   4  11  655.93   31.20
  -8   4  11  720.63   29.40
  -8   4  11  659.93   36.50
  -6  -4  11  656.73   29.90
  -6  -4  11  652.63   30.40
  -6  -4  11  659.93   35.10
  -6   4  11  652.53   30.30
  -6   4  11  654.93   27.40
  -6   4  11  633.14   35.50
  -4  -4  11  485.35   25.50
  -4  -4  11  478.85   29.70
  -4   4  11  477.05   20.60
  -4   4  11  496.15   30.90
  -4   4  11  510.45   21.70
  -2  -4  11  273.47   18.70
  -2  -4  11  255.47   21.30
  -2   4  11  294.47   14.60
  -2   4  11  283.77   15.60
  -2   4  11  296.07   24.10
   0  -4  11  238.78   11.20
   0  -4  11  197.78   17.30
   0  -4  11  253.47   21.90
   0   4  11  221.28   22.50
   0   4  11  246.98   13.70
   0   4  11  238.18   15.60
   2  -4  11  188.18   17.70
   2  -4  11  202.38   20.50
   2   4  11  215.18   13.20
   2   4  11  191.08   15.70
 -19  -5  11  442.36   27.10
 -19   5  11  478.95   24.50
 -19   5  11  464.65   20.30
 -19   5  11  428.46   19.50
 -17  -5  11  591.94   32.60
 -17  -5  11  618.84   32.50
 -17  -5  11  509.35   27.90
 -17   5  11  585.64   28.10
 -17   5  11  593.84   25.70
 -15  -5  11  698.53   28.90
 -15  -5  11  633.94   34.60
 -15  -5  11  624.54   31.10
 -15  -5  11  660.23   34.50
 -15   5  11  656.43   30.80
 -15   5  11  706.23   30.40
 -15   5  11  650.43   30.80
 -15   5  11  676.03   30.60
 -13  -5  11  453.05   21.30
 -13  -5  11  419.36   25.80
 -13  -5  11  432.76   26.90
 -13  -5  11  492.45   24.20
 -13   5  11  481.35   22.20
 -13   5  11  441.96   24.40
 -13   5  11  453.95   22.20
 -13   5  11  492.05   23.60
 -11  -5  11  638.44   32.50
 -11  -5  11  661.43   30.70
 -11  -5  11  610.14   34.20
 -11  -5  11  639.34   28.10
 -11   5  11  647.64   30.20
 -11   5  11  663.63   34.10
 -11   5  11  642.54   27.60
 -11   5  11  680.33   27.80
  -9  -5  11  781.92   33.10
  -9  -5  11  738.63   39.30
  -9  -5  11  753.92   34.90
  -9  -5  11  785.12   36.40
  -9   5  11  784.42   30.90
  -9   5  11  753.12   34.70
  -9   5  11  756.82   39.50
  -7  -5  11  736.23   33.70
  -7  -5  11  658.43   37.00
  -7  -5  11  669.23   33.10
  -7   5  11  711.03   33.30
  -7   5  11  720.13   39.00
  -7   5  11  775.02   28.50
  -5  -5  11  515.15   32.60
  -5  -5  11  582.54   27.90
  -5  -5  11  599.04   29.30
  -5   5  11  603.34   22.50
  -5   5  11  523.45   33.50
   3  -5 -11  349.77   16.00
  -3  -5  11  375.96   22.40
  -3  -5  11  365.96   25.90
  -3   5  11  369.76   17.50
  -3   5  11  348.07   26.70
  -1  -5  11  391.36   28.70
  -1  -5  11  406.76   24.90
  -1   5  11  405.76   30.30
  -1   5  11  380.56   20.40
   1  -5  11  300.47   26.00
   1  -5  11  300.87   23.00
   1   5  11  298.37   19.10
 -18  -6  11   15.80    5.40
 -18  -6  11   15.30    7.30
 -18   6  11   26.30    5.40
 -18   6  11   14.60    5.80
 -16  -6  11   37.60    8.90
 -16  -6  11   33.20   10.60
 -16  -6  11   47.90    8.40
 -16  -6  11   58.19    8.00
 -16   6  11   53.59    7.50
 -16   6  11   50.69    7.90
 -14  -6  11   27.90    8.90
 -14  -6  11   40.90    8.40
 -14  -6  11   42.40    7.70
 -14  -6  11   55.79    8.30
 -14   6  11   59.09    8.60
 -14   6  11   51.49    6.90
 -14   6  11   57.89    8.10
 -14   6  11   51.59    8.00
 -12  -6  11  100.29    9.60
 -12  -6  11   71.89   11.10
 -12  -6  11   76.59   12.50
 -12  -6  11   54.29    8.30
 -12   6  11   55.49    9.80
 -12   6  11   56.29    8.40
 -12   6  11   66.59    7.80
 -12   6  11   76.69    6.70
 -10  -6  11  152.08   12.10
 -10  -6  11  159.78   13.00
 -10  -6  11  138.79   14.90
 -10  -6  11  147.39   15.50
 -10   6  11  144.49   12.30
 -10   6  11  187.68   16.60
 -10   6  11  154.18    8.70
 -10   6  11  153.38    9.00
  -8  -6  11   10.50    4.80
  -8  -6  11   20.10    6.80
  -8  -6  11   19.50    7.90
  -8   6  11   16.00    5.50
  -8   6  11   13.60    7.70
  -6  -6  11    9.20    7.10
  -6  -6  11    9.20    5.80
  -6  -6  11   13.00    5.30
  -6   6  11   24.70    8.30
  -6   6  11   15.20    5.50
  -4  -6  11   53.49    8.40
  -4  -6  11   39.10   10.20
   4  -6 -11   63.59    6.90
  -4  -6  11   47.00    8.30
  -4   6  11   47.30   11.90
  -2  -6  11    4.30    5.20
  -2  -6  11    1.00    7.80
  -2   6  11   15.00   10.40
  -2   6  11   -2.10    3.10
   0  -6  11    4.80   10.10
   0  -6  11   -8.80    6.70
   0   6  11   -3.60    9.70
   0   6  11    4.50    4.70
 -17  -7  11  197.78   17.80
 -17  -7  11  178.08   15.80
 -17   7  11  198.88   14.20
 -17   7  11  204.88   15.70
 -15  -7  11  251.97   20.00
 -15  -7  11  230.38   17.90
 -15   7  11  242.78   14.40
 -15   7  11  246.98   17.50
 -15   7  11  276.47   17.70
 -13  -7  11  204.38   17.90
 -13  -7  11  204.28   15.80
 -13  -7  11  200.38   20.30
 -13  -7  11  191.18   15.90
 -13   7  11  166.98   15.00
 -13   7  11  190.18   11.00
 -13   7  11  165.98   14.30
 -13   7  11  180.48   12.50
 -11  -7  11  275.37   21.80
 -11  -7  11  281.87   21.90
 -11  -7  11  234.38   18.40
 -11   7  11  299.77   20.80
 -11   7  11  258.17   12.00
 -11   7  11  278.17   18.40
  -9  -7  11  327.97   22.70
  -9  -7  11  321.67   20.50
  -9  -7  11  271.67   21.50
  -9   7  11  282.87   22.90
  -9   7  11  295.37   19.60
  -7  -7  11  271.37   20.20
  -7  -7  11  297.37   20.00
  -7  -7  11  260.47   22.00
  -7   7  11  225.28   18.00
  -7   7  11  282.17   23.20
  -5  -7  11  355.16   23.10
  -5  -7  11  299.87   25.50
  -5   7  11  322.57   21.40
  -5   7  11  347.27   26.90
  -3  -7  11   78.59   11.80
  -3  -7  11   73.29   14.40
  -3   7  11   90.99   16.80
 -14  -8  11  549.15   33.40
 -14  -8  11  535.55   32.30
 -14   8  11  624.14   31.90
 -14   8  11  571.14   24.70
 -14   8  11  661.33   32.00
 -12  -8  11  572.34   33.20
 -12  -8  11  588.74   35.10
 -12   8  11  653.63   33.60
 -12   8  11  615.44   32.20
 -10  -8  11  552.84   34.30
 -10  -8  11  595.34   33.20
 -10   8  11  593.74   31.70
 -10   8  11  626.24   34.60
  -8  -8  11  390.16   25.60
  -8  -8  11  323.47   26.90
  -8   8  11  401.86   24.20
  -8   8  11  414.56   27.90
  -6  -8  11  266.47   21.20
  -6  -8  11  279.17   25.10
  -6   8  11  296.67   20.80
  -6   8  11  299.27   25.30
 -22   0  12  447.26   22.10
 -22   0  12  460.55   24.10
  20   0 -12  337.87   19.80
 -20   0  12  436.86   20.20
 -20   0  12  371.66   24.20
 -20   0  12  401.86   19.10
 -18   0  12  732.33   29.40
 -18   0  12  733.53   29.90
 -18   0  12  663.73   35.40
  18   0 -12  720.73   31.60
 -16   0  12  763.32   27.60
 -16   0  12  715.73   27.70
 -16   0  12  723.63   29.50
 -16   0  12  712.03   36.10
 -14   0  12  934.71   34.90
 -14   0  12  917.51   38.00
 -14   0  12  881.01   34.60
 -14   0  12  858.81   41.30
 -12   0  12 2371.86   88.39
 -12   0  12 2318.57   93.69
 -12   0  12 2495.15   86.69
 -12   0  12 2361.16   92.29
 -10   0  12 1385.66   60.19
 -10   0  12 1418.66   60.59
 -10   0  12 1452.05   56.99
 -10   0  12 1547.35   53.79
  -8   0  12  916.41   41.40
  -8   0  12  917.21   34.70
  -8   0  12  914.31   34.80
  -6   0  12 1134.29   42.70
  -6   0  12 1139.29   43.20
  -6   0  12 1120.19   42.30
  -6   0  12 1082.49   48.80
  -4   0  12  448.56   21.60
  -4   0  12  458.65   19.70
  -4   0  12  455.35   25.40
  -2   0  12  419.16   22.60
  -2   0  12  450.45   20.20
  -2   0  12  437.96   25.60
   0   0  12  532.15   30.40
   0   0  12  443.76   25.20
   0   0  12  444.56   26.90
 -21  -1  12  109.29   13.70
 -21  -1  12  118.79   12.30
 -21  -1  12  126.59    9.30
 -21   1  12  130.49   10.20
 -21   1  12  131.09   10.20
 -19  -1  12  290.67   20.70
 -19  -1  12  306.17   17.20
 -19  -1  12  324.87   15.30
 -19   1  12  260.87   19.70
 -19   1  12  310.47   14.60
  19   1 -12  321.17   17.80
 -19   1  12  322.87   16.40
 -17  -1  12  153.88   10.20
 -17  -1  12  162.28    9.00
 -17  -1  12  136.99   13.80
 -17  -1  12  162.48    9.20
 -17   1  12  159.98   10.00
 -17   1  12  156.28   13.90
 -15  -1  12  195.38   10.20
 -15  -1  12  197.48    9.60
 -15  -1  12  193.68   10.60
 -15  -1  12  167.78   14.80
 -15  -1  12  190.28    8.50
 -15  -1  12  192.58    9.50
 -15   1  12  185.48    9.60
 -15   1  12  198.28   11.30
 -15   1  12  195.68   15.00
 -15   1  12  189.88   10.70
 -13  -1  12  348.07   21.10
 -13  -1  12  331.77   18.30
 -13  -1  12  299.67   13.60
 -13  -1  12  338.87   13.50
 -13  -1  12  313.97   14.90
 -13  -1  12  343.07   13.70
 -13   1  12  336.57   19.40
 -13   1  12  312.77   19.30
 -13   1  12  310.17   15.00
 -11  -1  12   56.69    6.50
 -11  -1  12   68.39    4.40
 -11  -1  12   59.29    3.50
 -11  -1  12   54.69    4.20
 -11  -1  12   57.69    3.50
 -11  -1  12   76.39    9.60
 -11   1  12   57.59    8.90
 -11   1  12   65.69    8.30
 -11   1  12   69.59    5.60
  -9  -1  12   95.49    8.90
  -9  -1  12   89.69   10.70
  -9  -1  12   93.09    6.00
  -9  -1  12   74.59    6.00
  -9   1  12   99.99    6.70
  -9   1  12  102.69   11.40
  -9   1  12   94.19    9.60
  -7  -1  12  334.87   21.00
  -7  -1  12  345.07   13.40
  -7  -1  12  373.26   16.60
  -7  -1  12  308.07   15.80
  -7  -1  12  337.37   13.40
  -7   1  12  362.26   16.20
  -7   1  12  344.57   16.10
  -7   1  12  346.97   19.70
  -7   1  12  331.17   22.60
  -5  -1  12  224.98   17.20
  -5  -1  12  247.68   13.90
  -5  -1  12  229.28   10.80
   5  -1 -12  248.58   16.10
  -5  -1  12  241.88   10.70
  -5   1  12  240.58   12.00
  -5   1  12  238.88   16.10
  -5   1  12  229.08   19.60
  -5   1  12  259.67   12.90
  -3  -1  12  104.59   12.70
  -3  -1  12   92.79    9.60
  -3  -1  12  122.99    7.70
  -3   1  12  113.99   12.10
  -3   1  12  140.49    9.70
  -3   1  12  116.09    9.40
  -1  -1  12  143.09   12.70
  -1  -1  12  147.29   10.00
  -1  -1  12  147.89   15.50
  -1   1  12  150.68   12.40
  -1   1  12  131.09   13.00
   1  -1  12   86.99   11.70
   1  -1  12  127.19   14.80
   1   1  12  100.79   12.20
   1   1  12  122.29   13.50
 -22  -2  12  118.99   14.60
 -20  -2  12   92.29   10.70
 -20  -2  12   67.19   10.70
 -20  -2  12   92.79    7.30
  20  -2 -12   79.19    8.90
  20   2 -12   98.09   11.60
 -20   2  12   91.49    8.80
 -20   2  12   79.59    6.80
 -18  -2  12   76.39    5.90
 -18  -2  12   75.59   11.50
 -18  -2  12   83.89    9.30
 -18  -2  12   69.69    7.20
 -18   2  12   69.39   10.40
 -18   2  12   80.89    7.60
  18   2 -12   77.69    8.40
 -16  -2  12   81.59    5.30
 -16  -2  12   78.29    6.70
 -16  -2  12   80.89    8.10
 -16  -2  12   73.49   11.30
 -16   2  12   90.89    6.40
 -16   2  12   73.69   10.20
 -16   2  12   78.99    7.40
 -14  -2  12  132.29    9.10
 -14  -2  12  131.19    8.00
 -14  -2  12  132.49    9.90
 -14  -2  12  112.09    7.10
 -14  -2  12  113.39   12.30
 -14   2  12  108.39   10.70
 -14   2  12  131.89    8.80
 -14   2  12  116.29   11.10
 -12  -2  12  135.09    8.80
 -12  -2  12  131.29    8.10
 -12  -2  12  137.19    9.10
 -12  -2  12  128.19   12.90
 -12   2  12  138.39   13.10
 -12   2  12  124.49   10.80
 -12   2  12  122.39    8.50
 -10  -2  12   30.10    4.10
 -10  -2  12   32.60    5.00
 -10  -2  12   23.20    4.80
 -10  -2  12   25.00    6.60
 -10   2  12   27.30    5.40
 -10   2  12   28.60    4.60
 -10   2  12   24.00    6.60
  -8  -2  12   88.39    7.10
  -8  -2  12   73.99    7.70
  -8  -2  12   78.59   10.10
  -8  -2  12   74.59    8.50
  -8   2  12   82.49    8.50
  -8   2  12   67.79    6.90
  -8   2  12  109.69   12.70
  -6  -2  12  126.49    9.60
  -6  -2  12  119.59   12.50
  -6  -2  12  135.99    9.40
  -6   2  12  116.19   10.40
  -6   2  12  101.29    8.70
  -6   2  12  101.09   13.40
  -6   2  12  138.39    9.70
  -4  -2  12   37.60    6.50
  -4  -2  12   26.30    7.70
  -4   2  12   38.90    4.90
  -4   2  12   39.00    7.50
  -4   2  12   40.60    6.20
  -4   2  12   36.20    9.80
  -2  -2  12   71.69    9.50
   2  -2 -12   67.29    9.50
  -2  -2  12   85.19   13.30
  -2  -2  12   67.49    5.90
  -2   2  12   73.49    9.50
  -2   2  12   74.99    8.30
  -2   2  12   71.59   13.60
   0  -2  12   73.49   10.20
   0  -2  12   65.29   12.50
   0   2  12   89.99   10.30
   0   2  12   82.69   15.70
   0   2  12   90.69   11.00
 -21  -3  12  323.67   15.30
 -21  -3  12  254.37   20.80
 -21   3  12  309.17   14.80
 -21   3  12  282.27   17.50
 -19  -3  12  674.93   35.40
 -19  -3  12  666.63   32.20
 -19  -3  12  673.63   26.50
 -19   3  12  653.93   29.80
 -19   3  12  597.14   24.50
 -17  -3  12  672.73   25.60
 -17  -3  12  692.43   31.70
 -17  -3  12  661.13   35.10
 -17  -3  12  604.54   29.00
 -17   3  12  646.14   29.60
 -17   3  12  644.24   32.50
 -17   3  12  707.33   26.80
 -15  -3  12  543.15   22.90
 -15  -3  12  514.05   24.10
 -15  -3  12  532.95   21.30
 -15  -3  12  542.95   25.90
 -15  -3  12  511.25   29.80
 -15   3  12  548.55   27.10
 -15   3  12  517.65   24.30
 -15   3  12  521.35   24.80
 -13  -3  12  794.92   34.30
 -13  -3  12  794.52   31.30
 -13  -3  12  742.23   32.50
 -13  -3  12  775.42   39.30
 -13   3  12  786.92   33.10
 -13   3  12  777.32   34.80
 -13   3  12  787.82   37.20
 -11  -3  12  671.93   28.90
 -11  -3  12  664.73   35.00
 -11  -3  12  648.24   30.30
 -11  -3  12  673.13   28.60
 -11   3  12  653.83   34.30
 -11   3  12  688.63   30.40
 -11   3  12  694.43   29.30
  -9  -3  12  573.64   25.50
  -9  -3  12  546.35   25.50
  -9  -3  12  543.55   31.10
  -9  -3  12  551.74   26.60
  -9   3  12  609.64   25.90
  -9   3  12  525.05   30.80
  -9   3  12  558.94   26.00
  -7  -3  12  547.55   32.20
  -7  -3  12  603.04   27.60
  -7  -3  12  602.54   27.60
  -7   3  12  580.74   33.40
  -7   3  12  614.34   27.60
  -7   3  12  612.74   27.60
  -7   3  12  604.64   27.20
  -5  -3  12  484.05   29.50
  -5  -3  12  495.75   25.10
  -5   3  12  500.65   31.30
  -5   3  12  502.25   24.10
  -3  -3  12  306.97   22.50
  -3  -3  12  294.67   18.80
  -3   3  12  306.57   17.10
  -3   3  12  298.87   15.50
  -3   3  12  269.97   23.10
  -1  -3  12  193.78   20.00
   1  -3 -12  191.68   17.50
  -1  -3  12  211.78   16.60
  -1   3  12  206.58   14.20
  -1   3  12  234.08   14.80
  -1   3  12  211.18   22.80
 -20  -4  12  275.47   21.80
 -20   4  12  302.37   13.50
 -20   4  12  339.07   18.90
 -18  -4  12  178.08   12.90
 -18  -4  12  171.88   16.50
 -18  -4  12  168.88   16.40
 -18   4  12  162.98   14.20
 -18   4  12  188.88   13.30
 -18   4  12  191.68   10.30
 -16  -4  12  196.28   17.00
 -16  -4  12  179.68   12.90
 -16  -4  12  188.38   15.70
 -16   4  12  200.38   14.20
 -16   4  12  186.88   12.80
 -16   4  12  205.28   12.40
 -14  -4  12  239.58   19.20
 -14  -4  12  251.87   17.50
 -14  -4  12  261.57   13.20
 -14  -4  12  242.48   15.00
 -14   4  12  256.17   17.00
 -14   4  12  257.97   15.50
 -14   4  12  269.07   15.40
 -12  -4  12  288.07   21.00
 -12  -4  12  298.57   15.30
 -12  -4  12  301.27   16.60
 -12  -4  12  286.37   18.70
 -12   4  12  296.17   20.70
 -12   4  12  310.97   16.80
 -12   4  12  288.27   16.20
 -10  -4  12  261.77   15.40
 -10  -4  12  246.38   14.60
 -10  -4  12  232.28   19.50
 -10  -4  12  279.27   17.60
 -10   4  12  277.87   20.90
 -10   4  12  268.77   14.60
 -10   4  12  273.07   15.80
  -8  -4  12  262.57   16.40
  -8  -4  12  245.18   19.50
  -8  -4  12  241.58   15.10
  -8   4  12  242.98   20.00
  -8   4  12  228.08   13.40
  -8   4  12  244.08   15.20
  -6  -4  12  308.37   18.50
  -6  -4  12  328.17   23.50
  -6  -4  12  316.87   18.40
  -6   4  12  295.27   18.10
  -6   4  12  320.07   16.30
  -6   4  12  301.37   23.70
  -4  -4  12  170.68   13.70
  -4  -4  12  153.68   16.40
  -4   4  12  158.68    8.80
  -4   4  12  151.48   10.70
  -4   4  12  136.69   18.00
  -2  -4  12  138.69   14.10
  -2  -4  12  135.09   17.80
  -2   4  12  151.18   10.40
  -2   4  12  134.09   10.50
  -2   4  12  109.89   17.10
 -19  -5  12   47.10    9.90
 -19  -5  12   38.70    6.80
 -19   5  12   53.29    8.10
 -19   5  12   50.59    6.60
 -17  -5  12   15.60    9.40
 -17  -5  12   16.10    7.00
 -17  -5  12   31.90    6.50
 -17   5  12   36.70    6.00
 -17   5  12   29.00    6.40
 -17   5  12   31.90    6.60
 -15  -5  12   13.40    5.40
 -15  -5  12   21.50    7.50
 -15  -5  12   17.50    5.10
 -15  -5  12   17.60    7.40
 -15   5  12    9.70    5.00
 -15   5  12   12.60    5.40
 -15   5  12   15.40    6.50
 -15   5  12   21.30    5.50
 -13  -5  12   25.70    7.90
 -13  -5  12   23.60    7.60
 -13  -5  12   26.70    5.50
 -13  -5  12   26.60    5.30
 -13   5  12   24.00    5.50
 -13   5  12   23.50    4.80
 -13   5  12   22.70    6.10
 -13   5  12   21.50    7.20
 -11  -5  12   39.30    6.90
 -11  -5  12   53.69   11.10
 -11  -5  12   38.80    8.00
 -11  -5  12   57.49    7.40
 -11   5  12   55.29   10.60
 -11   5  12   46.10    6.30
 -11   5  12   50.79    6.20
 -11   5  12   57.19    8.10
  -9  -5  12   19.80    5.50
  -9  -5  12   20.30    7.20
  -9  -5  12   15.20    7.10
  -9   5  12   24.70    5.80
  -9   5  12   32.50    9.50
  -9   5  12   23.90    4.40
  -7  -5  12   59.19    8.70
  -7  -5  12   56.59    8.80
  -7  -5  12   49.10   10.90
  -7   5  12   44.20   10.50
  -7   5  12   49.99    5.70
  -7   5  12   33.00    7.20
  -5  -5  12   17.50    8.50
  -5  -5  12   21.80    6.40
  -5  -5  12   18.60    5.90
  -5   5  12   21.70    3.50
  -5   5  12    6.40    8.60
  -3  -5  12   11.10    6.10
  -3  -5  12   15.70    8.20
  -3   5  12   11.50    9.40
  -3   5  12    8.70    3.50
 -16  -6  12  399.46   23.50
 -16  -6  12  390.06   26.50
 -16   6  12  384.56   20.80
 -16   6  12  439.76   22.60
 -16   6  12  404.86   22.70
 -14  -6  12  555.34   28.20
 -14  -6  12  550.24   28.90
 -14  -6  12  505.25   31.60
 -14  -6  12  510.05   31.60
 -14   6  12  605.14   29.90
 -14   6  12  555.44   28.20
 -14   6  12  571.04   28.30
 -14   6  12  548.85   24.90
 -12  -6  12  447.56   22.60
 -12  -6  12  450.45   27.70
 -12  -6  12  438.36   28.60
 -12  -6  12  452.85   24.90
 -12   6  12  454.55   27.00
 -12   6  12  443.86   19.90
 -12   6  12  436.26   24.20
 -12   6  12  426.96   20.30
 -10  -6  12  449.06   24.70
 -10  -6  12  415.26   26.20
 -10  -6  12  431.06   28.70
 -10   6  12  426.76   18.10
 -10   6  12  430.26   18.10
 -10   6  12  473.05   24.70
 -10   6  12  373.56   27.70
  -8  -6  12  429.36   29.20
  -8  -6  12  438.06   25.00
  -8  -6  12  420.46   25.60
  -8   6  12  445.66   24.70
  -8   6  12  414.26   29.20
  -6  -6  12  387.96   23.90
  -6  -6  12  398.66   23.90
  -6  -6  12  384.36   28.20
  -6   6  12  400.66   29.70
  -6   6  12  382.86   23.50
  -4  -6  12  272.87   24.40
  -4  -6  12  273.37   20.20
  -4   6  12  323.47   27.40
 -15  -7  12  238.08   21.00
 -15  -7  12  239.78   19.40
 -15   7  12  317.47   19.60
 -15   7  12  280.57   18.80
 -15   7  12  291.57   15.40
 -13  -7  12  281.57   22.50
 -13  -7  12  268.67   19.60
 -13   7  12  262.67   13.40
 -13   7  12  255.07   18.90
 -13   7  12  300.77   21.10
 -11  -7  12  205.28   19.80
 -11  -7  12  181.88   15.80
 -11   7  12  207.98   18.60
 -11   7  12  183.28   15.90
  -9  -7  12  181.88   19.10
  -9  -7  12  170.88   15.70
  -9   7  12  220.78   20.60
  -9   7  12  196.48   16.30
  -7  -7  12  100.59   13.10
  -7  -7  12  142.69   17.70
  -7   7  12  116.99   17.50
  -7   7  12  142.69   14.00
 -20   0  13   -4.30    3.10
 -20   0  13   -9.40    5.40
 -20   0  13    4.10    3.40
 -18   0  13   -3.60    5.30
 -18   0  13   -1.30    2.80
 -16   0  13    5.70    2.10
 -16   0  13    2.10    2.60
 -16   0  13    1.10    3.10
 -16   0  13   -0.90    4.70
 -14   0  13    5.20    5.20
 -14   0  13   -0.40    2.10
 -14   0  13    1.40    5.30
 -14   0  13    2.90    3.10
 -12   0  13    3.70    5.40
 -12   0  13    1.80    2.00
 -12   0  13    3.10    4.90
 -12   0  13   -0.40    3.80
 -10   0  13   10.20    5.10
 -10   0  13    2.80    1.90
 -10   0  13    2.20    4.50
 -10   0  13    4.30    2.30
 -10   0  13    8.00    5.80
  -8   0  13    5.60    5.20
  -8   0  13    1.50    2.10
  -8   0  13    6.40    6.50
  -8   0  13   -1.50    2.50
  -6   0  13   -0.30    2.90
  -6   0  13    2.90    2.70
  -6   0  13    3.90    5.30
  -6   0  13   -2.80    2.30
  -6   0  13    0.90    2.80
  -4   0  13    1.70    3.70
  -4   0  13    0.40    5.40
  -4   0  13   -0.80    3.90
  -2   0  13    6.90    6.60
  -2   0  13   -0.60    4.90
 -21  -1  13  529.85   22.40
 -21  -1  13  505.75   24.10
 -21  -1  13  456.45   28.90
 -21   1  13  465.85   20.70
 -21   1  13  442.96   28.20
 -21   1  13  484.05   23.20
 -19  -1  13  318.57   23.10
 -19  -1  13  356.66   17.30
 -19  -1  13  346.27   16.10
 -19  -1  13  347.07   16.10
 -19   1  13  351.46   17.40
 -19   1  13  297.87   21.80
 -17  -1  13  253.97   19.30
 -17  -1  13  257.77   12.00
 -17  -1  13  246.48   11.50
 -17  -1  13  247.98   12.00
 -17   1  13  215.48   17.70
 -17   1  13  237.68   13.00
 -15  -1  13  304.07   17.10
 -15  -1  13  289.27   20.80
 -15  -1  13  324.97   13.10
 -15  -1  13  293.57   13.60
 -15   1  13  291.07   19.40
 -15   1  13  300.77   17.70
 -15   1  13  290.77   14.50
 -15   1  13  312.07   14.80
 -13  -1  13  393.66   24.00
 -13  -1  13  384.06   18.10
 -13  -1  13  376.56   21.40
 -13  -1  13  397.66   14.90
 -13   1  13  404.06   17.50
 -13   1  13  345.17   21.70
 -13   1  13  382.16   22.80
 -11  -1  13  533.25   25.30
 -11  -1  13  562.74   29.20
 -11  -1  13  544.75   29.90
 -11   1  13  562.54   23.30
 -11   1  13  571.64   30.10
 -11   1  13  563.04   28.40
  -9  -1  13  267.47   13.30
  -9  -1  13  332.97   13.70
  -9  -1  13  302.77   20.30
  -9   1  13  283.67   18.10
  -9   1  13  325.17   22.00
  -9   1  13  328.17   14.90
  -9   1  13  285.57   14.30
  -7  -1  13  194.68   15.60
  -7  -1  13  154.58   10.20
  -7  -1  13  163.28   10.40
  -7   1  13  187.88   14.40
  -7   1  13  183.28   10.60
  -7   1  13  172.28   17.40
  -7   1  13  170.48   10.40
  -5  -1  13  150.28    7.80
  -5  -1  13  140.09    7.60
  -5  -1  13  138.29   14.60
  -5  -1  13  155.58   11.00
  -5   1  13  145.59   10.20
  -5   1  13  144.29   10.40
  -5   1  13  125.69    8.70
  -5   1  13  142.89   17.40
  -5   1  13  149.69   13.40
  -3  -1  13  164.38   16.40
  -3  -1  13  182.68   13.20
  -3   1  13  146.69   11.20
  -3   1  13  139.09   18.50
  -3   1  13  133.19   14.20
 -20  -2  13  291.87   13.90
 -20  -2  13  273.17   17.40
 -20  -2  13  290.37   21.80
 -20  -2  13  262.57   15.20
 -20   2  13  255.77   19.70
 -20   2  13  274.37   15.90
 -18  -2  13  369.46   16.20
 -18  -2  13  354.56   24.50
 -18  -2  13  355.36   18.00
 -18  -2  13  400.16   19.80
 -18   2  13  427.26   19.60
 -18   2  13  370.36   23.50
 -16  -2  13  273.17   11.00
 -16  -2  13  279.87   13.50
 -16  -2  13  268.87   14.30
 -16  -2  13  252.27   19.80
 -16   2  13  257.57   17.90
 -16   2  13  281.17   14.80
 -16   2  13  247.98   14.50
 -14  -2  13  610.54   28.10
 -14  -2  13  582.84   24.20
 -14  -2  13  543.95   32.00
 -14  -2  13  614.04   24.50
 -14  -2  13  566.94   24.70
 -14   2  13  586.34   25.60
 -14   2  13  601.44   30.00
 -14   2  13  567.34   29.20
 -12  -2  13  479.15   21.60
 -12  -2  13  479.85   28.80
 -12  -2  13  489.95   22.70
 -12  -2  13  550.94   21.60
 -12   2  13  482.35   22.30
 -12   2  13  508.15   25.70
 -12   2  13  526.15   28.70
 -10  -2  13  207.68   17.40
 -10  -2  13  214.78   12.40
 -10  -2  13  218.18   11.80
 -10  -2  13  215.48   14.00
 -10   2  13  203.38   12.20
 -10   2  13  239.28   18.50
 -10   2  13  221.48   14.70
  -8  -2  13  432.16   26.20
  -8  -2  13  448.76   20.50
  -8  -2  13  409.66   20.70
  -8   2  13  388.26   22.10
  -8   2  13  438.66   20.50
  -8   2  13  455.45   20.80
  -8   2  13  414.66   27.10
  -6  -2  13  348.47   18.40
  -6  -2  13  303.57   22.70
  -6  -2  13  337.47   17.70
  -6   2  13  324.57   24.70
  -6   2  13  359.26   18.00
  -6   2  13  345.07   19.80
  -6   2  13  331.07   17.80
  -4  -2  13  215.68   15.00
  -4  -2  13  216.68   18.90
  -4   2  13  209.58   11.70
  -4   2  13  198.78   15.30
  -4   2  13  218.98   21.60
  -2  -2  13  158.98   14.40
  -2  -2  13  190.48   18.80
  -2   2  13  174.88   14.70
  -2   2  13  143.29   20.30
  -2   2  13  156.08   12.30
 -19  -3  13   51.69    7.00
 -19  -3  13   54.99    9.30
 -19  -3  13   54.49    5.10
 -19  -3  13   63.99   11.40
 -19   3  13   46.50    9.20
 -19   3  13   70.09    8.10
 -17  -3  13   20.80    7.30
 -17  -3  13    9.50    4.00
 -17  -3  13   18.00    5.90
 -17   3  13   19.00    6.70
 -17   3  13    7.40    4.20
 -17   3  13   17.50    4.20
 -15  -3  13   47.40    7.20
 -15  -3  13   26.40    8.50
 -15  -3  13   37.90    4.60
 -15  -3  13   38.70    5.40
 -15  -3  13   41.80    6.90
 -15   3  13   45.80    6.40
 -15   3  13   33.40    7.40
 -15   3  13   33.50    7.10
 -13  -3  13    0.30    5.30
 -13  -3  13    2.90    3.10
 -13  -3  13   -2.90    3.60
 -13  -3  13    4.80    4.20
 -13   3  13    4.50    3.40
 -13   3  13    6.30    6.60
 -13   3  13    3.40    3.80
 -11  -3  13    7.00    4.60
 -11  -3  13    4.10    2.90
 -11  -3  13    7.40    4.30
 -11  -3  13    5.00    5.80
 -11   3  13    3.10    6.50
 -11   3  13    8.60    3.80
 -11   3  13    3.20    3.90
  -9  -3  13   28.10    5.00
  -9  -3  13   14.20    6.90
  -9  -3  13   33.60    6.90
  -9   3  13   23.00    8.80
  -9   3  13   20.50    4.80
  -9   3  13   28.00    5.90
  -7  -3  13   17.30    5.50
  -7  -3  13    6.90    4.00
  -7  -3  13   21.20    8.20
  -7   3  13   10.20    8.30
  -7   3  13   16.30    5.20
  -7   3  13   11.90    4.80
  -5  -3  13   -1.90    4.30
  -5  -3  13    4.70    6.70
  -5   3  13    6.10    4.80
  -5   3  13    9.20    8.40
  -3  -3  13   10.50    5.40
  -3  -3  13   11.70    8.00
  -3   3  13    3.70    5.50
  -3   3  13    5.40    3.70
  -3   3  13    9.40   10.20
 -18  -4  13  306.17   22.90
 -18  -4  13  293.27   17.60
 -18  -4  13  325.37   21.40
 -18   4  13  307.17   19.60
 -18   4  13  294.17   17.70
 -18   4  13  298.67   15.20
 -16  -4  13  324.57   23.30
 -16  -4  13  346.37   18.50
 -16  -4  13  301.07   20.30
 -16  -4  13  319.37   18.00
 -16   4  13  327.37   19.40
 -16   4  13  326.57   18.50
 -16   4  13  308.67   18.00
 -14  -4  13  251.97   20.70
 -14  -4  13  273.97   18.50
 -14  -4  13  286.97   14.70
 -14  -4  13  260.07   15.70
 -14   4  13  272.57   19.30
 -14   4  13  283.47   16.30
 -14   4  13  287.77   17.00
 -12  -4  13  442.96   22.40
 -12  -4  13  453.45   28.90
 -12  -4  13  451.15   25.00
 -12  -4  13  436.96   21.60
 -12   4  13  492.45   28.70
 -12   4  13  465.25   22.80
 -12   4  13  434.36   22.10
 -10  -4  13  529.65   26.40
 -10  -4  13  558.34   28.70
 -10  -4  13  559.44   33.10
 -10   4  13  562.04   25.70
 -10   4  13  581.04   27.10
 -10   4  13  548.75   32.70
  -8  -4  13  343.77   19.80
  -8  -4  13  366.86   25.90
  -8  -4  13  347.87   20.80
  -8   4  13  364.16   20.20
  -8   4  13  348.37   18.30
  -8   4  13  375.26   26.90
  -6  -4  13  231.98   21.30
  -6  -4  13  262.17   17.10
  -6  -4  13  273.37   17.60
  -6   4  13  257.67   22.90
  -6   4  13  244.18   16.70
  -6   4  13  249.18   14.60
  -4  -4  13  243.08   22.10
  -4  -4  13  234.68   17.70
  -4   4  13  263.67   14.60
  -4   4  13  240.18   11.20
  -4   4  13  215.88   23.10
 -17  -5  13  326.97   28.70
 -17  -5  13  337.27   24.80
 -17  -5  13  318.67   20.20
 -17   5  13  358.76   20.40
 -17   5  13  370.86   19.30
 -17   5  13  336.77   19.80
 -15  -5  13  437.36   29.40
 -15  -5  13  448.86   27.30
 -15  -5  13  462.75   24.60
 -15   5  13  489.95   26.30
 -15   5  13  482.45   24.70
 -15   5  13  475.65   23.50
 -13  -5  13  397.06   27.70
 -13  -5  13  415.46   22.60
 -13  -5  13  437.16   26.10
 -13  -5  13  396.06   21.10
 -13   5  13  453.75   25.60
 -13   5  13  419.66   22.70
 -13   5  13  428.66   20.90
 -13   5  13  446.96   27.00
 -11  -5  13  285.17   22.40
 -11  -5  13  259.67   19.50
 -11  -5  13  240.48   16.20
 -11   5  13  248.28   14.00
 -11   5  13  254.67   16.60
 -11   5  13  247.78   21.30
  -9  -5  13  240.48   17.20
  -9  -5  13  283.17   20.10
  -9  -5  13  267.27   22.30
  -9   5  13  294.77   14.70
  -9   5  13  292.17   24.00
  -9   5  13  301.47   18.40
  -7  -5  13  341.77   21.60
  -7  -5  13  306.17   20.40
  -7  -5  13  370.76   27.20
  -7   5  13  355.66   15.90
  -7   5  13  370.76   27.90
  -7   5  13  321.07   20.80
  -5  -5  13  258.57   24.00
  -5  -5  13  282.87   20.40
  -5   5  13  308.27   20.30
  -5   5  13  329.67   27.40
 -14  -6  13   22.50    6.60
 -14  -6  13   16.20    8.60
 -14   6  13   36.90    5.90
 -14   6  13   32.90    8.60
 -14   6  13   30.30    7.30
 -12  -6  13    6.10    5.60
 -12  -6  13   19.60    8.60
 -12   6  13   41.00   10.30
 -12   6  13   20.40    6.50
 -12   6  13   16.00    4.30
 -10  -6  13   19.20    6.40
 -10  -6  13    9.60    8.10
 -10   6  13   25.00    7.10
 -10   6  13   29.20   10.30
  -8  -6  13   41.70   11.30
  -8   6  13   55.59    9.90
  -8   6  13   61.79   13.80
 -20   0  14  422.06   28.30
 -20   0  14  499.85   21.60
 -18   0  14  199.38   17.90
 -18   0  14  220.88   11.70
 -16   0  14  440.36   19.30
 -16   0  14  486.05   23.10
 -16   0  14  425.16   19.20
 -16   0  14  481.55   27.70
 -14   0  14  553.64   21.40
 -14   0  14  519.35   27.90
 -14   0  14  500.25   23.50
 -14   0  14  532.45   29.70
 -12   0  14  533.15   30.20
 -12   0  14  579.94   21.80
 -12   0  14  525.05   21.70
 -12   0  14  560.94   30.30
 -12   0  14  551.54   26.00
 -10   0  14 1084.69   50.49
 -10   0  14 1047.30   39.70
 -10   0  14 1039.80   48.50
 -10   0  14 1104.29   39.90
  -8   0  14  606.44   35.30
  -8   0  14  607.44   32.60
  -8   0  14  621.74   26.00
  -8   0  14  617.34   24.40
  -6   0  14  306.47   13.90
  -6   0  14  275.27   20.20
  -6   0  14  257.57   13.40
  -6   0  14  273.07   13.80
 -19  -1  14  132.69    8.10
 -19  -1  14  101.79    7.00
 -19  -1  14  106.09    6.70
 -19  -1  14  104.99   14.90
 -19   1  14  118.39    9.10
 -19   1  14  107.09   13.70
 -17  -1  14  137.99    7.60
 -17  -1  14  124.39   15.30
 -17   1  14  141.29    9.40
 -17   1  14  140.49    9.20
 -17   1  14  140.09   14.60
 -15  -1  14  120.79   12.40
 -15  -1  14  115.89    8.40
 -15  -1  14  113.79   14.00
 -15   1  14   98.29   12.70
 -15   1  14  117.99    9.70
 -15   1  14  124.99   13.20
 -15   1  14  123.59    8.30
 -13  -1  14  131.69   14.30
 -13  -1  14  133.59   10.50
 -13  -1  14  131.89   14.10
 -13   1  14  134.79   11.80
 -13   1  14  145.99    8.80
 -13   1  14  133.39   13.20
 -13   1  14  147.49   15.30
 -11  -1  14   82.49   12.10
 -11  -1  14   65.69   11.30
 -11   1  14   76.39    7.40
 -11   1  14   72.69   12.00
 -11   1  14   68.19    6.40
 -11   1  14   79.49   10.30
  -9  -1  14   20.80    7.40
  -9   1  14   23.50    4.80
  -9   1  14   33.70    4.90
  -9   1  14   24.00    8.70
  -9   1  14   19.00    6.40
  -7  -1  14   43.70    5.80
  -7  -1  14   56.09   11.00
  -7  -1  14   56.79    6.30
  -7   1  14   62.09   12.60
  -7   1  14   57.59    6.90
  -7   1  14   57.99    9.70
  -5  -1  14   72.39    7.70
  -5  -1  14   76.19    9.10
  -5  -1  14   74.59   12.50
  -5   1  14   74.49   11.50
  -5   1  14   77.79    6.90
  -5   1  14   68.69   14.60
  -5   1  14   82.09    8.70
 -18  -2  14   78.69    5.10
 -18  -2  14   77.89    6.90
 -18  -2  14   70.69   12.40
 -18  -2  14   69.49    7.90
 -18   2  14   92.59   12.30
 -18   2  14   93.39    8.40
 -18   2  14   89.29    6.10
 -16  -2  14   67.49    6.30
 -16  -2  14   62.29    5.60
 -16  -2  14   73.99    9.50
 -16  -2  14   51.29   10.70
 -16   2  14   67.59    7.30
 -16   2  14   59.49    8.50
 -16   2  14   66.09   10.00
 -14  -2  14   56.99    5.60
 -14  -2  14   78.69    8.00
 -14  -2  14   68.29    5.40
 -14  -2  14   94.69   13.70
 -14  -2  14   71.09   10.40
 -14   2  14   73.59   11.80
 -14   2  14   77.59   10.30
 -14   2  14   69.39    7.10
 -12  -2  14  150.78   16.00
 -12  -2  14  129.29    8.50
 -12  -2  14  156.98   11.90
 -12  -2  14  169.78    8.90
 -12   2  14  148.09   16.40
 -12   2  14  163.48   10.30
 -12   2  14  145.59   13.00
 -10  -2  14   85.29    8.10
 -10  -2  14   97.29    7.60
 -10  -2  14   97.89   13.80
 -10   2  14   99.59    8.20
 -10   2  14   83.89    9.70
 -10   2  14  105.59   11.00
  -8  -2  14   10.30    4.20
  -8  -2  14   14.40    4.90
  -8  -2  14    6.70    6.60
  -8   2  14    2.10    4.00
  -8   2  14    9.90    8.80
  -8   2  14    9.90    5.80
  -8   2  14    1.60    8.80
  -6  -2  14   32.50    6.40
  -6  -2  14   26.70    6.00
  -6  -2  14   13.60    8.30
  -6   2  14   40.00    6.90
  -6   2  14   30.70   10.60
  -6   2  14   31.30    7.80
 -17  -3  14  504.55   23.30
 -17  -3  14  482.35   24.50
 -17  -3  14  467.65   31.00
 -17   3  14  529.95   24.70
 -17   3  14  562.24   24.80
 -17   3  14  513.65   27.90
 -15  -3  14  510.15   25.70
 -15  -3  14  501.25   22.60
 -15  -3  14  528.65   31.60
 -15  -3  14  486.05   23.70
 -15   3  14  500.35   28.00
 -15   3  14  511.05   26.70
 -15   3  14  486.15   23.70
 -13  -3  14  441.86   19.80
 -13  -3  14  423.76   20.90
 -13  -3  14  410.76   27.90
 -13  -3  14  410.06   20.80
 -13   3  14  402.66   26.90
 -13   3  14  405.96   22.50
 -13   3  14  415.06   20.60
 -11  -3  14  490.75   30.50
 -11  -3  14  458.65   22.10
 -11  -3  14  449.06   23.40
 -11   3  14  451.55   29.90
 -11   3  14  502.45   24.60
 -11   3  14  511.95   23.30
  -9  -3  14  365.56   19.10
  -9  -3  14  337.47   20.00
  -9  -3  14  326.27   24.90
  -9   3  14  360.26   26.70
  -9   3  14  376.26   20.60
  -9   3  14  350.56   19.00
  -7  -3  14  254.67   22.10
  -7  -3  14  229.48   15.90
  -7  -3  14  232.38   16.50
  -7   3  14  288.67   23.90
  -7   3  14  267.87   16.40
  -7   3  14  255.07   17.00
 -16  -4  14  123.29   16.80
 -16  -4  14  161.78   14.60
 -16  -4  14  156.28   13.20
 -16  -4  14  150.88   11.60
 -16   4  14  151.78   13.90
 -16   4  14  154.98   13.30
 -16   4  14  157.08   12.20
 -14  -4  14  172.98   12.00
 -14  -4  14  143.59   17.20
 -14  -4  14  185.88   14.80
 -14   4  14  171.58   13.10
 -14   4  14  156.88   12.50
 -14   4  14  175.98   16.80
 -12  -4  14   96.79    9.60
 -12  -4  14   90.79   11.10
 -12  -4  14  107.49   16.10
 -12   4  14  102.49    9.80
 -12   4  14   96.29   10.10
 -12   4  14   86.69   14.00
 -10  -4  14  133.69   17.00
 -10  -4  14  145.79   14.40
 -10  -4  14  112.69   10.90
 -10   4  14  129.09   17.70
 -10   4  14  142.89   11.70
 -10   4  14  144.99   11.90
  -8  -4  14  159.38   13.50
  -8  -4  14  168.58   15.60
  -8  -4  14  155.18   18.40
  -8   4  14  157.88   12.50
  -8   4  14  172.48   20.40
  -8   4  14  180.78   13.90
 -13  -5  14   15.50    5.10
 -13  -5  14    5.00    8.50
 -13  -5  14    8.90    8.90
 -13   5  14   16.30    6.20
 -13   5  14   10.80    9.00
 -13   5  14   12.50    5.40
 -11  -5  14   25.40    6.50
 -11  -5  14   29.70   10.50
 -11  -5  14   26.60    9.60
 -11   5  14   37.60    6.30
 -11   5  14   31.00   11.60
 -11   5  14   46.50    8.50
 -16   0  15   -1.20    6.80
 -16   0  15    3.40    2.90
 -16   0  15   -1.40    7.30
 -14   0  15    2.10    6.20
 -14   0  15    1.70    7.50
 -14   0  15    1.10    2.40
 -12   0  15    2.40    2.20
 -12   0  15    6.30    6.00
 -12   0  15   -4.10    8.10
 -10   0  15    1.20    6.40
 -10   0  15    0.70    8.70
 -17  -1  15  244.18   21.40
 -17   1  15  247.78   13.40
 -17   1  15  258.97   16.00
 -17   1  15  260.07   20.30
 -15  -1  15  241.18   18.50
 -15  -1  15  227.68   19.80
 -15   1  15  237.08   18.80
 -15   1  15  254.87   12.80
 -15   1  15  247.58   20.50
 -13  -1  15  185.08   17.50
 -13  -1  15  170.18   17.80
 -13   1  15  186.98   10.30
 -13   1  15  187.08   16.60
 -13   1  15  172.38   18.40
 -11  -1  15  224.48   19.30
 -11  -1  15  199.68   19.40
 -11   1  15  207.18   20.10
 -11   1  15  225.28   11.70
 -11   1  15  214.18   17.50
  -9  -1  15  238.58   20.40
  -9   1  15  248.68   18.70
  -9   1  15  244.28   12.80
  -9   1  15  200.98   21.90
 -16  -2  15  300.67   24.70
 -16  -2  15  347.97   21.20
 -16   2  15  367.36   22.90
 -16   2  15  387.76   23.30
 -16   2  15  347.67   17.90
 -14  -2  15  207.18   18.30
 -14  -2  15  207.98   20.30
 -14   2  15  222.48   12.80
 -14   2  15  229.18   20.60
 -14   2  15  211.08   16.90
 -12  -2  15  260.37   21.90
 -12   2  15  285.57   23.50
 -12   2  15  276.37   15.10
 -12   2  15  308.67   19.50
 -10  -2  15  275.87   22.70
 -10  -2  15  232.38   13.00
 -10  -2  15  275.07   13.10
 -10   2  15  269.37   18.70
 -10   2  15  244.48   14.50
 -10   2  15  275.57   23.70
   0   0   0    0.00    0.00

_computing_structure_solution     'SHELXT 2014/5 (Sheldrick, 2014)'
;
_shelx_hkl_checksum              80778
loop_
_space_group_symop_operation_xyz
'x, y, z'
'-x, y, -z+1/2'
'x+1/2, y+1/2, z'
'-x+1/2, y+1/2, -z+1/2'
'-x, -y, -z'
'x, -y, z-1/2'
'-x+1/2, -y+1/2, -z'
'x+1/2, -y+1/2, z-1/2'
loop_
_atom_site_label
_atom_site_type_symbol
_atom_site_fract_x
_atom_site_fract_y
_atom_site_fract_z
_atom_site_U_iso_or_equiv
_atom_site_adp_type
_atom_site_occupancy
_atom_site_site_symmetry_order
_atom_site_calc_flag
_atom_site_refinement_flags_posn
_atom_site_refinement_flags_adp
_atom_site_refinement_flags_occupancy
_atom_site_disorder_assembly
_atom_site_disorder_group
Tm1 Tm 0.5000 -0.16002(2) 0.7500 0.01978(8) Uani 1 2 d S T P . .
N1 N 0.5000 0.5772(4) 0.7500 0.0181(6) Uani 1 2 d S T P . .
N2 N 0.58978(18) 0.7343(3) 0.6777(3) 0.0233(5) Uani 1 1 d . . . . .
O1 O 0.48378(19) 0.0608(2) 0.8268(3) 0.0334(5) Uani 1 1 d . . . . .
O2 O 0.3971(2) -0.2272(3) 0.5145(3) 0.0472(7) Uani 1 1 d . . . . .
O3 O 0.3383(2) -0.0795(4) 0.5827(3) 0.0512(7) Uani 1 1 d . . . . .
C1 C 0.54523(19) 0.5051(3) 0.7089(3) 0.0199(5) Uani 1 1 d . . . . .
C2 C 0.5000 0.1247(5) 0.7500 0.0265(9) Uani 1 2 d S T P . .
C3 C 0.5000 0.2844(4) 0.7500 0.0218(8) Uani 1 2 d S T P . .
C4 C 0.59586(19) 0.5930(3) 0.6692(3) 0.0203(5) Uani 1 1 d . . . . .
C5 C 0.5447(2) 0.3577(3) 0.7038(3) 0.0229(6) Uani 1 1 d . . . . .
C6 C 0.3349(3) -0.1565(3) 0.4947(4) 0.0337(8) Uani 1 1 d . . . . .
C7 C 0.6343(3) 0.8195(3) 0.6430(4) 0.0311(7) Uani 1 1 d . . . . .
C8 C 0.6478(2) 0.5331(3) 0.6289(3) 0.0279(6) Uani 1 1 d . . . . .
C9 C 0.6948(3) 0.6213(4) 0.5962(4) 0.0332(7) Uani 1 1 d . . . . .
C10 C 0.6874(3) 0.7669(4) 0.6022(4) 0.0350(7) Uani 1 1 d . . . . .
loop_
_atom_site_aniso_label
_atom_site_aniso_U_11
_atom_site_aniso_U_22
_atom_site_aniso_U_33
_atom_site_aniso_U_23
_atom_site_aniso_U_13
_atom_site_aniso_U_12
Tm1 0.02792(11) 0.00908(10) 0.02852(11) 0.000 0.01984(9) 0.000
N1 0.0233(16) 0.0110(15) 0.0229(15) 0.000 0.0150(13) 0.000
N2 0.0292(13) 0.0141(12) 0.0360(13) 0.0001(10) 0.0242(11) -0.0005(9)
O1 0.0578(15) 0.0131(10) 0.0473(14) -0.0011(9) 0.0408(13) -0.0012(10)
O2 0.0445(15) 0.0419(16) 0.0426(15) -0.0084(12) 0.0178(12) 0.0044(12)
O3 0.0483(16) 0.0534(18) 0.0550(17) 0.0011(14) 0.0315(14) 0.0128(14)
C1 0.0223(13) 0.0137(13) 0.0235(13) -0.0007(10) 0.0130(11) -0.0001(10)
C2 0.030(2) 0.0162(19) 0.033(2) 0.000 0.0178(19) 0.000
C3 0.029(2) 0.0112(18) 0.0251(19) 0.000 0.0155(17) 0.000
C4 0.0235(13) 0.0149(13) 0.0239(13) 0.0007(10) 0.0145(11) -0.0001(10)
C5 0.0284(15) 0.0140(13) 0.0299(15) -0.0011(11) 0.0188(13) -0.0002(10)
C6 0.0376(19) 0.0283(19) 0.0319(17) 0.0004(12) 0.0181(16) 0.0016(13)
C7 0.0400(18) 0.0173(14) 0.048(2) 0.0029(13) 0.0328(17) -0.0033(13)
C8 0.0343(16) 0.0219(15) 0.0356(16) -0.0008(12) 0.0248(14) 0.0035(12)
C9 0.0384(18) 0.0314(17) 0.0437(19) 0.0026(15) 0.0316(16) 0.0048(15)
C10 0.0432(19) 0.0291(17) 0.049(2) 0.0029(15) 0.0357(17) -0.0019(14)
loop_
_atom_type_symbol
_atom_type_description
_atom_type_scat_dispersion_real
_atom_type_scat_dispersion_imag
_atom_type_scat_source
C C 0.0033 0.0016 'International Tables Vol C Tables 4.2.6.8 and 6.1.1.4'
N N 0.0061 0.0033 'International Tables Vol C Tables 4.2.6.8 and 6.1.1.4'
O O 0.0106 0.0060 'International Tables Vol C Tables 4.2.6.8 and 6.1.1.4'
Tm Tm -0.3139 5.2483 'International Tables Vol C Tables 4.2.6.8 and 6.1.1.4'
loop_
_geom_angle_atom_site_label_1
_geom_angle_atom_site_label_2
_geom_angle_atom_site_label_3
_geom_angle
_geom_angle_site_symmetry_1
_geom_angle_site_symmetry_3
_geom_angle_publ_flag
O1 Tm1 O1 55.88(11) 2_656 . ?
O1 Tm1 O2 88.02(10) 2_656 . ?
O1 Tm1 O2 120.30(10) . . ?
O1 Tm1 O2 120.30(10) 2_656 2_656 ?
O1 Tm1 O2 88.02(10) . 2_656 ?
O2 Tm1 O2 149.15(15) . 2_656 ?
O1 Tm1 N2 138.84(8) 2_656 2_646 ?
O1 Tm1 N2 88.39(8) . 2_646 ?
O2 Tm1 N2 94.81(10) . 2_646 ?
O2 Tm1 N2 72.42(10) 2_656 2_646 ?
O1 Tm1 N2 88.39(8) 2_656 1_545 ?
O1 Tm1 N2 138.84(8) . 1_545 ?
O2 Tm1 N2 72.42(10) . 1_545 ?
O2 Tm1 N2 94.81(10) 2_656 1_545 ?
N2 Tm1 N2 131.57(12) 2_646 1_545 ?
O1 Tm1 N1 152.06(5) 2_656 1_545 ?
O1 Tm1 N1 152.06(5) . 1_545 ?
O2 Tm1 N1 74.57(7) . 1_545 ?
O2 Tm1 N1 74.57(7) 2_656 1_545 ?
N2 Tm1 N1 65.79(6) 2_646 1_545 ?
N2 Tm1 N1 65.79(6) 1_545 1_545 ?
O1 Tm1 O3 76.66(10) 2_656 . ?
O1 Tm1 O3 72.27(10) . . ?
O2 Tm1 O3 52.50(10) . . ?
O2 Tm1 O3 140.35(11) 2_656 . ?
N2 Tm1 O3 72.95(10) 2_646 . ?
N2 Tm1 O3 122.80(10) 1_545 . ?
N1 Tm1 O3 107.63(8) 1_545 . ?
O1 Tm1 O3 72.27(10) 2_656 2_656 ?
O1 Tm1 O3 76.66(10) . 2_656 ?
O2 Tm1 O3 140.34(11) . 2_656 ?
O2 Tm1 O3 52.50(10) 2_656 2_656 ?
N2 Tm1 O3 122.80(10) 2_646 2_656 ?
N2 Tm1 O3 72.95(10) 1_545 2_656 ?
N1 Tm1 O3 107.63(8) 1_545 2_656 ?
O3 Tm1 O3 144.73(16) . 2_656 ?
O1 Tm1 C2 27.94(5) 2_656 . ?
O1 Tm1 C2 27.94(5) . . ?
O2 Tm1 C2 105.43(7) . . ?
O2 Tm1 C2 105.43(7) 2_656 . ?
N2 Tm1 C2 114.21(6) 2_646 . ?
N2 Tm1 C2 114.21(6) 1_545 . ?
N1 Tm1 C2 180.0 1_545 . ?
O3 Tm1 C2 72.37(8) . . ?
O3 Tm1 C2 72.37(8) 2_656 . ?
O1 Tm1 C6 81.80(10) 2_656 . ?
O1 Tm1 C6 96.98(10) . . ?
O2 Tm1 C6 25.70(11) . . ?
O2 Tm1 C6 155.16(11) 2_656 . ?
N2 Tm1 C6 83.38(11) 2_646 . ?
N2 Tm1 C6 97.19(11) 1_545 . ?
N1 Tm1 C6 90.69(7) 1_545 . ?
O3 Tm1 C6 26.81(11) . . ?
O3 Tm1 C6 152.28(11) 2_656 . ?
C2 Tm1 C6 89.31(6) . . ?
O1 Tm1 C6 96.98(10) 2_656 2_656 ?
O1 Tm1 C6 81.80(10) . 2_656 ?
O2 Tm1 C6 155.16(11) . 2_656 ?
O2 Tm1 C6 25.70(11) 2_656 2_656 ?
N2 Tm1 C6 97.19(11) 2_646 2_656 ?
N2 Tm1 C6 83.38(11) 1_545 2_656 ?
N1 Tm1 C6 90.69(6) 1_545 2_656 ?
O3 Tm1 C6 152.28(11) . 2_656 ?
O3 Tm1 C6 26.80(11) 2_656 2_656 ?
C2 Tm1 C6 89.31(7) . 2_656 ?
C6 Tm1 C6 178.62(13) . 2_656 ?
C1 N1 C1 119.3(3) . 2_656 ?
C1 N1 Tm1 120.35(17) . 1_565 ?
C1 N1 Tm1 120.35(17) 2_656 1_565 ?
C4 N2 C7 118.6(3) . . ?
C4 N2 Tm1 122.10(18) . 1_565 ?
C7 N2 Tm1 119.3(2) . 1_565 ?
C2 O1 Tm1 90.7(2) . . ?
C6 O2 Tm1 94.9(2) . . ?
C6 O3 Tm1 87.9(2) . . ?
N1 C1 C5 122.0(3) . . ?
N1 C1 C4 115.8(3) . . ?
C5 C1 C4 122.1(3) . . ?
O1 C2 O1 122.8(4) 2_656 . ?
O1 C2 C3 118.6(2) 2_656 . ?
O1 C2 C3 118.6(2) . . ?
O1 C2 Tm1 61.4(2) 2_656 . ?
O1 C2 Tm1 61.4(2) . . ?
C3 C2 Tm1 180.0 . . ?
C5 C3 C5 120.3(4) . 2_656 ?
C5 C3 C2 119.87(19) . . ?
C5 C3 C2 119.87(19) 2_656 . ?
N2 C4 C8 121.9(3) . . ?
N2 C4 C1 115.9(2) . . ?
C8 C4 C1 122.2(3) . . ?
C3 C5 C1 118.1(3) . . ?
O2 C6 O3 124.7(4) . . ?
O2 C6 Tm1 59.4(2) . . ?
O3 C6 Tm1 65.3(2) . . ?
N2 C7 C10 122.5(3) . . ?
C4 C8 C9 119.1(3) . . ?
C10 C9 C8 119.2(3) . . ?
C7 C10 C9 118.6(3) . . ?
loop_
_geom_bond_atom_site_label_1
_geom_bond_atom_site_label_2
_geom_bond_distance
_geom_bond_site_symmetry_2
_geom_bond_publ_flag
Tm1 O1 2.359(2) 2_656 ?
Tm1 O1 2.359(2) . ?
Tm1 O2 2.385(3) . ?
Tm1 O2 2.385(3) 2_656 ?
Tm1 N2 2.432(2) 2_646 ?
Tm1 N2 2.432(2) 1_545 ?
Tm1 N1 2.480(3) 1_545 ?
Tm1 O3 2.508(3) . ?
Tm1 O3 2.508(3) 2_656 ?
Tm1 C2 2.687(5) . ?
Tm1 C6 2.760(4) . ?
Tm1 C6 2.760(4) 2_656 ?
N1 C1 1.347(3) . ?
N1 C1 1.347(3) 2_656 ?
N1 Tm1 2.480(3) 1_565 ?
N2 C4 1.346(4) . ?
N2 C7 1.353(4) . ?
N2 Tm1 2.432(2) 1_565 ?
O1 C2 1.259(3) . ?
O2 C6 1.201(5) . ?
O3 C6 1.245(5) . ?
C1 C5 1.392(4) . ?
C1 C4 1.492(4) . ?
C2 O1 1.259(3) 2_656 ?
C2 C3 1.508(6) . ?
C3 C5 1.389(4) . ?
C3 C5 1.389(4) 2_656 ?
C4 C8 1.388(4) . ?
C7 C10 1.385(5) . ?
C8 C9 1.390(5) . ?
C9 C10 1.387(5) . ?
