#------------------------------------------------------------------------------
#$Date: 2021-02-03 21:55:52 +0200 (Wed, 03 Feb 2021) $
#$Revision: 261398 $
#$URL: file:///home/coder/svn-repositories/cod/cif/4/51/84/4518447.cif $
#------------------------------------------------------------------------------
#
# This file is available in the Crystallography Open Database (COD),
# http://www.crystallography.net/
#
# All data on this site have been placed in the public domain by the
# contributors.
#
data_4518447
loop_
_publ_author_name
'Lu, Huangjie'
'Zheng, Zhaofa'
'Li, Zi-Jian'
'Bao, Hongliang'
'Guo, Xiaojing'
'Guo, Xiaofeng'
'Lin, Jian'
'Qian, Yuan'
'Wang, Jian-Qiang'
_publ_section_title
;
 Achieving UV and X-ray Dual Photochromism in a Metal-Organic Hybrid via
 Structural Modulation.
;
_journal_issue                   2
_journal_name_full               'ACS applied materials &amp; interfaces'
_journal_page_first              2745
_journal_page_last               2752
_journal_paper_doi               10.1021/acsami.0c20036
_journal_volume                  13
_journal_year                    2021
_chemical_formula_moiety         'C33 N6 O7 Tm'
_chemical_formula_sum            'C33 N6 O7 Tm'
_chemical_formula_weight         761.32
_chemical_melting_point          ?
_chemical_name_common
'Thulium 2,2':6',2''-terpyridine-4'-carboxyli'
_space_group_crystal_system      monoclinic
_space_group_IT_number           14
_space_group_name_Hall           '-P 2ybc'
_space_group_name_H-M_alt        'P 1 21/c 1'
_audit_creation_method           SHELXL-2014/7
_cell_angle_alpha                90
_cell_angle_beta                 106.219(5)
_cell_angle_gamma                90
_cell_formula_units_Z            4
_cell_length_a                   8.8436(14)
_cell_length_b                   36.972(5)
_cell_length_c                   9.4214(15)
_cell_measurement_reflns_used    8887
_cell_measurement_temperature    293(2)
_cell_measurement_theta_max      55.072
_cell_measurement_theta_min      4.406
_cell_volume                     2957.9(8)
_computing_cell_refinement       'Bruker SAINT'
_computing_data_collection       'Bruker APEX2'
_computing_data_reduction        'Bruker SAINT'
_computing_molecular_graphics    'Bruker SHELXTL'
_computing_publication_material  'Bruker SHELXTL'
_computing_structure_refinement  'SHELXL-2014 (Sheldrick, 2014)'
_computing_structure_solution    'SHELXS-97 (Sheldrick 2008)'
_diffrn_ambient_temperature      293(2)
_diffrn_measured_fraction_theta_full 0.998
_diffrn_measured_fraction_theta_max 0.996
_diffrn_measurement_device_type  'Bruker APEX-II CCD'
_diffrn_measurement_method       '0.5 wide w/ exposures'
_diffrn_radiation_type           MoK\a
_diffrn_radiation_wavelength     0.71073
_diffrn_reflns_av_R_equivalents  0.0369
_diffrn_reflns_av_unetI/netI     0.0329
_diffrn_reflns_Laue_measured_fraction_full 0.998
_diffrn_reflns_Laue_measured_fraction_max 0.996
_diffrn_reflns_limit_h_max       7
_diffrn_reflns_limit_h_min       -11
_diffrn_reflns_limit_k_max       48
_diffrn_reflns_limit_k_min       -45
_diffrn_reflns_limit_l_max       12
_diffrn_reflns_limit_l_min       -10
_diffrn_reflns_number            30858
_diffrn_reflns_point_group_measured_fraction_full 0.998
_diffrn_reflns_point_group_measured_fraction_max 0.996
_diffrn_reflns_theta_full        25.242
_diffrn_reflns_theta_max         27.536
_diffrn_reflns_theta_min         2.203
_exptl_absorpt_coefficient_mu    3.060
_exptl_absorpt_correction_T_max  0.885
_exptl_absorpt_correction_T_min  0.802
_exptl_absorpt_correction_type   multi-scan
_exptl_absorpt_process_details   SHELTXPREP
_exptl_crystal_colour            green
_exptl_crystal_density_diffrn    1.710
_exptl_crystal_description       block
_exptl_crystal_F_000             1460
_exptl_crystal_size_max          0.08
_exptl_crystal_size_mid          0.06
_exptl_crystal_size_min          0.04
_refine_diff_density_max         0.830
_refine_diff_density_min         -0.672
_refine_diff_density_rms         0.112
_refine_ls_extinction_method     none
_refine_ls_goodness_of_fit_ref   1.106
_refine_ls_hydrogen_treatment    undef
_refine_ls_matrix_type           full
_refine_ls_number_parameters     424
_refine_ls_number_reflns         6801
_refine_ls_number_restraints     0
_refine_ls_restrained_S_all      1.106
_refine_ls_R_factor_all          0.0419
_refine_ls_R_factor_gt           0.0316
_refine_ls_shift/su_max          0.005
_refine_ls_shift/su_mean         0.000
_refine_ls_structure_factor_coef Fsqd
_refine_ls_weighting_details
'w=1/[\s^2^(Fo^2^)+(0.0258P)^2^+8.6230P] where P=(Fo^2^+2Fc^2^)/3'
_refine_ls_weighting_scheme      calc
_refine_ls_wR_factor_gt          0.0741
_refine_ls_wR_factor_ref         0.0776
_reflns_Friedel_coverage         0.000
_reflns_number_gt                5764
_reflns_number_total             6801
_reflns_threshold_expression     'I > 2\s(I)'
_cod_data_source_file            am0c20036_si_002.cif
_cod_data_source_block           TmTPC-1afterUV
_cod_depositor_comments
;
The following automatic conversions were performed:

data item '_chemical_melting_point' value 'N/a' was changed to '?' --
the value is undefined or not given.

Automatic conversion script
Id: cif_fix_values 7556 2019-12-06 15:28:31Z antanas 
;
_cod_original_sg_symbol_H-M      'P 21/c'
_cod_database_code               4518447
_shelx_shelxl_version_number     2014/7
_shelx_space_group_comment
;
The symmetry employed for this shelxl refinement is uniquely defined
by the following loop, which should always be used as a source of
symmetry information in preference to the above space-group names.
They are only intended as comments.
;
_shelx_res_file
;

    save_a.res created by SHELXL-2014/7

TITL SAVE_a.res in P2(1)/c
REM Old TITL SAVE in P2(1)/c

REM SHELXT solution in P2(1)/c
REM R1 0.074,  Rweak 0.005,  Alpha 0.061,  Orientation as input
REM Formula found by SHELXT:  C36 N3 O8 Tm

CELL  0.71073   8.8436  36.9722   9.4214   90.000  106.219   90.000
ZERR   4.000   0.0014   0.0046   0.0015    0.000    0.005    0.000
LATT  1
SYMM -X, 1/2+Y, 1/2-Z
SFAC C N O TM
UNIT 132 24 28 4f
L.S. 40
BOND $H
LIST 6
ACTA
FMAP 2
PLAN 20
WGHT    0.025800    8.623001
FVAR       0.31518
TM1   4    0.842364    0.570086    0.317915    11.00000    0.02120    0.02303 =
         0.01525    0.00171    0.00578   -0.00089
O1    3    0.858023    0.531753    0.542570    11.00000    0.04042    0.02850 =
         0.01770   -0.00255    0.01016   -0.00330
O2    3    0.937651    0.588213    0.570461    11.00000    0.04781    0.02956 =
         0.01700    0.00191    0.00993   -0.00467
O3    3    0.684712    0.605814    0.114506    11.00000    0.03915    0.02974 =
         0.02975    0.00256    0.00561    0.00673
O4    3    1.082059    0.538849    0.386686    11.00000    0.02515    0.03443 =
         0.03765    0.00836    0.00956    0.00378
O5    3    0.765979    0.632886    0.330731    11.00000    0.03992    0.03294 =
         0.02846    0.00323    0.00412    0.00719
O6    3    0.596279    0.564569    0.339220    11.00000    0.03113    0.05635 =
         0.06473    0.00847    0.02645    0.00017
O7    3    0.367276    0.553405    0.371357    11.00000    0.04321    0.12883 =
         0.11965   -0.01441    0.04794   -0.02165
N1    2    0.749421    0.511524    1.194635    11.00000    0.02761    0.03199 =
         0.01820    0.00117    0.00683   -0.00638
N2    2    0.910071    0.558487    1.078599    11.00000    0.02305    0.02348 =
         0.01708    0.00114    0.00674   -0.00088
N3    2    1.048595    0.609221    1.270222    11.00000    0.03177    0.02883 =
         0.02311   -0.00412    0.01074   -0.00718
N4    2    0.197948    0.674013   -0.222879    11.00000    0.03272    0.04805 =
         0.02946    0.00071    0.00672   -0.00002
N5    2    0.488804    0.732937   -0.001035    11.00000    0.03300    0.02985 =
         0.03451    0.00403    0.00701    0.00366
N6    2    0.766171    0.769719    0.318333    11.00000    0.04427    0.04178 =
         0.04002   -0.00328    0.00817    0.00009
C1    1    0.834635    0.532132    0.987918    11.00000    0.02518    0.02376 =
         0.01758    0.00205    0.00410    0.00284
C2    1    0.905270    0.559150    0.622645    11.00000    0.03114    0.02990 =
         0.01591    0.00266    0.00932    0.00253
C3    1    0.618775    0.668155    0.127302    11.00000    0.02985    0.02859 =
         0.03070    0.00778    0.01210    0.00554
C4    1    1.074230    0.611081    1.136362    11.00000    0.02830    0.02613 =
         0.02064    0.00050    0.00950   -0.00243
C5    1    0.752794    0.504836    1.054666    11.00000    0.02453    0.02864 =
         0.01973   -0.00028    0.00604    0.00102
C6    1    0.991389    0.583792    1.027160    11.00000    0.02402    0.02550 =
         0.01753    0.00024    0.00659    0.00050
C7    1    0.610169    0.449414    1.047443    11.00000    0.03861    0.03053 =
         0.04077    0.00086    0.00514   -0.00693
C8    1    0.693619    0.633314    0.196004    11.00000    0.02544    0.03168 =
         0.02929    0.00613    0.00719    0.00371
C9    1    0.496525    0.667762   -0.003981    11.00000    0.02676    0.03459 =
         0.02958    0.00432    0.00673    0.00357
C10   1    0.833694    0.530795    0.838731    11.00000    0.02987    0.02700 =
         0.01845    0.00161    0.00897    0.00260
C11   1    0.610365    0.455754    1.192680    11.00000    0.03853    0.03512 =
         0.04236    0.00764    0.00998   -0.01093
C12   1    0.676075    0.700876    0.193365    11.00000    0.03686    0.03208 =
         0.03110    0.00366    0.00750    0.00713
C13   1    0.678596    0.487259    1.261408    11.00000    0.03323    0.03878 =
         0.02905    0.00584    0.00658   -0.01062
C14   1    0.912967    0.557457    0.785059    11.00000    0.03034    0.02807 =
         0.01358   -0.00007    0.00688    0.00403
C15   1    0.066563    0.676860   -0.335927    11.00000    0.03714    0.07070 =
         0.03198   -0.00558    0.00896    0.00076
C16   1    0.682984    0.474137    0.977343    11.00000    0.03277    0.03203 =
         0.02921   -0.00092    0.00736   -0.00421
C17   1    0.432459    0.700710   -0.061271    11.00000    0.03177    0.03316 =
         0.02388    0.00362    0.00381    0.00438
C18   1    0.995409    0.584154    0.880242    11.00000    0.02774    0.02745 =
         0.01983    0.00476    0.00841    0.00053
C19   1    0.608897    0.732657    0.121697    11.00000    0.03339    0.03337 =
         0.03173   -0.00041    0.00599    0.00159
C20   1    1.126108    0.632128    1.377159    11.00000    0.04343    0.04629 =
         0.03581   -0.01522    0.01520   -0.02015
C21   1    1.173422    0.637051    1.104318    11.00000    0.04551    0.04323 =
         0.03934   -0.00724    0.02328   -0.01817
C22   1    0.667041    0.769013    0.182559    11.00000    0.03676    0.03091 =
         0.04168   -0.00120    0.01279    0.00120
C23   1    0.290118    0.703240   -0.191685    11.00000    0.03321    0.03817 =
         0.03123    0.00512    0.00686    0.00467
C24   1    0.262292    0.735195   -0.273285    11.00000    0.05064    0.04995 =
         0.04518    0.01509   -0.00073    0.00779
C25   1    0.494161    0.567702    0.399577    11.00000    0.04557    0.08455 =
         0.07342   -0.02190    0.03231   -0.01260
C26   1    0.023713    0.707181   -0.421738    11.00000    0.04550    0.08109 =
         0.03538   -0.00365   -0.00081    0.00771
C27   1    0.812641    0.802421    0.378421    11.00000    0.05133    0.05089 =
         0.05503   -0.01541    0.01782   -0.01216
C28   1    0.664697    0.833551    0.161837    11.00000    0.05910    0.03704 =
         0.08367   -0.00036    0.01441   -0.00321
C29   1    0.763475    0.834647    0.305392    11.00000    0.05249    0.04864 =
         0.07292   -0.01396    0.02449   -0.01059
C30   1    0.122812    0.736857   -0.392060    11.00000    0.05852    0.07127 =
         0.04786    0.01550   -0.00587    0.01997
C31   1    1.226746    0.658549    1.352589    11.00000    0.05692    0.06086 =
         0.04514   -0.02559    0.02751   -0.03439
C32   1    1.248093    0.661569    1.213645    11.00000    0.05825    0.04926 =
         0.05091   -0.01474    0.02677   -0.02704
C33   1    0.614385    0.799956    0.098224    11.00000    0.04926    0.03448 =
         0.06492    0.00540    0.00562    0.00183

HKLF 4

REM  SAVE_a.res in P2(1)/c
REM R1 =  0.0316 for    5764 Fo > 4sig(Fo)  and  0.0419 for all    6801 data
REM    424 parameters refined using      0 restraints

END

WGHT      0.0249      8.7735

REM Highest difference peak  0.830,  deepest hole -0.672,  1-sigma level  0.112
Q1    1   1.0434  0.6058  0.8400  11.00000  0.05    0.83
Q2    1   0.6785  0.4934  1.3622  11.00000  0.05    0.82
Q3    1   0.7843  0.5108  0.7746  11.00000  0.05    0.80
Q4    1   0.8009  0.5763  0.3761  11.00000  0.05    0.76
Q5    1   0.5679  0.4411  1.2532  11.00000  0.05    0.75
Q6    1   0.6918  0.4676  0.8746  11.00000  0.05    0.74
Q7    1   1.1070  0.6269  1.4763  11.00000  0.05    0.73
Q8    1   1.1767  0.5458  0.3761  11.00000  0.05    0.71
Q9    1   1.1981  0.6371  1.0166  11.00000  0.05    0.71
Q10   1   1.2933  0.6743  1.4278  11.00000  0.05    0.69
Q11   1   0.5564  0.5783  0.5243  11.00000  0.05    0.65
Q12   1  -0.0790  0.7080 -0.4958  11.00000  0.05    0.65
Q13   1   0.3408  0.7543 -0.2548  11.00000  0.05    0.65
Q14   1   1.0968  0.5161  0.4139  11.00000  0.05    0.64
Q15   1  -0.0127  0.6551 -0.3537  11.00000  0.05    0.63
Q16   1   1.2949  0.6830  1.1845  11.00000  0.05    0.59
Q17   1   0.4556  0.6452 -0.0485  11.00000  0.05    0.57
Q18   1   0.7641  0.7019  0.2804  11.00000  0.05    0.57
Q19   1   0.8811  0.8043  0.4835  11.00000  0.05    0.57
Q20   1   0.5579  0.7976 -0.0124  11.00000  0.05    0.56
;
_shelx_res_checksum              21397
_shelx_hkl_file
;
   1   0   0 3832.42   76.09
  -1   0   0 3233.18   75.09
   2   0   0 3148.89   74.19
  -2   0   0 3269.67   73.99
  -3   0   0 2735.43   68.39
   3   0   0 2688.33   69.39
  -4   0   0 2314.07   64.49
  -4   0   0 2315.27   63.89
   4   0   0 2278.87   65.59
  -5   0   0   74.99   12.40
  -5   0   0   67.29   11.10
  -6   0   0 1602.24   58.29
  -6   0   0 1676.13   56.89
  -7   0   0  460.65   28.40
  -7   0   0  443.36   30.80
  -8   0   0   10.20    8.60
  -8   0   0   -9.20   12.90
  -9   0   0  920.61   48.60
 -10   0   0  309.07   30.70
 -11   0   0   35.20   20.10
  -1  -1   0 2035.60   45.70
   1  -1   0 1958.20   44.90
   1   1   0 2090.99   45.80
  -1   1   0 1973.00   44.80
  -2  -1   0   41.70    4.70
   2  -1   0   41.70    5.50
   2   1   0   37.50    5.50
  -2   1   0   23.70    4.00
  -3  -1   0   13.70    4.30
   3  -1   0    3.60    3.20
  -3   1   0    9.10    3.40
   3   1   0   11.40    3.90
  -4  -1   0  237.88   16.10
   4  -1   0  221.48   15.90
  -4  -1   0  237.98   15.70
  -4   1   0  243.58   16.20
   4   1   0  239.28   16.60
  -4   1   0  216.08   14.70
  -5  -1   0 1357.46   46.90
  -5  -1   0 1334.97   47.90
  -5   1   0 1294.67   45.60
  -5   1   0 1358.56   47.90
  -6  -1   0   -2.70    5.30
  -6  -1   0    7.50    7.70
  -6   1   0    3.20    7.50
  -6   1   0    4.30    5.90
  -7  -1   0   84.59   17.10
  -7  -1   0   60.09   13.20
  -7   1   0   67.29   15.00
  -7   1   0   77.49   14.10
  -8  -1   0  109.79   22.30
  -8  -1   0  113.09   18.60
  -8   1   0  152.48   24.20
  -8   1   0  171.38   20.50
  -9  -1   0   20.30   12.80
  -9   1   0   26.30   12.50
 -10  -1   0   17.00   14.30
 -10   1   0   10.10   14.50
 -11  -1   0   89.09   22.70
 -11   1   0   83.19   20.80
   1  -2   0 3687.13   78.39
   1   2   0 3726.83   79.89
  -1   2   0 3708.13   78.29
   2  -2   0   35.30    4.90
  -2  -2   0   24.40    4.30
  -2   2   0   18.60    3.30
   2   2   0   14.60    3.60
   3  -2   0 1595.54   45.80
  -3  -2   0 1576.04   45.70
   3   2   0 1634.24   47.40
  -3   2   0 1615.34   44.80
  -3   2   0 1607.24   45.20
   4  -2   0 2327.27   66.99
  -4  -2   0 2459.95   67.79
  -4  -2   0 2470.05   67.29
  -4   2   0 2459.15   66.69
   4   2   0 2411.46   68.79
  -4   2   0 2425.06   65.79
  -5  -2   0   22.20    6.80
  -5  -2   0   19.70    7.10
  -5   2   0   12.80    6.40
  -5   2   0   20.90    6.70
  -6  -2   0  591.14   32.50
  -6  -2   0  605.34   31.40
  -6   2   0  587.24   32.10
  -6   2   0  576.34   29.70
  -7  -2   0  568.14   34.90
  -7  -2   0  569.94   32.20
  -7   2   0  466.45   28.90
  -7   2   0  540.65   34.60
  -8  -2   0  -19.70   15.70
  -8  -2   0    9.80    8.00
  -8   2   0   -6.40    8.20
  -8   2   0   13.10   13.60
  -9  -2   0  338.67   30.80
  -9   2   0  318.37   29.20
 -10  -2   0  242.68   27.40
 -10   2   0  197.38   26.60
 -11  -2   0  -12.40   17.90
 -11   2   0   17.90   16.50
   1  -3   0 5397.76  115.49
  -1  -3   0 5795.02  115.29
   2  -3   0 9779.22  206.48
   2   3   0 9999.00  208.98
   3  -3   0  116.19    9.80
  -3  -3   0  101.59    8.90
   3   3   0  111.99   10.10
  -3   3   0  122.39    9.40
  -3   3   0  107.89    8.80
   4  -3   0 1695.03   51.69
  -4  -3   0 1633.04   51.49
  -4  -3   0 1668.53   51.19
  -4   3   0 1676.83   50.29
  -4   3   0 1662.73   49.60
   4   3   0 1696.83   53.49
  -5  -3   0 1792.02   57.59
  -5  -3   0 1808.52   59.19
  -5   3   0 1861.71   56.49
  -5   3   0 1772.82   57.19
  -6  -3   0  880.51   40.40
  -6  -3   0  809.42   37.30
  -6   3   0  844.12   38.50
  -6   3   0  872.11   37.40
  -7  -3   0  658.33   37.80
  -7  -3   0  676.63   36.10
  -7   3   0  620.74   36.10
  -7   3   0  642.84   33.60
  -8  -3   0 1510.75   75.19
  -8  -3   0 1381.06   57.39
  -8   3   0 1324.27   60.49
  -8   3   0 1414.36   56.79
  -9  -3   0  110.29   20.10
  -9   3   0  203.98   26.00
 -10  -3   0   76.69   19.60
 -10   3   0   97.29   19.20
 -11  -3   0  414.46   40.20
 -11   3   0  342.77   37.30
   0  -4   0   15.80    1.10
   0  -4   0   22.50    1.70
   0   4   0   14.30    1.40
  -1  -4   0 1360.66   33.60
   1  -4   0 1396.56   31.20
  -1  -4   0 1373.66   30.90
   1   4   0 1364.16   33.80
  -1   4   0 1377.06   30.90
  -2  -4   0  183.48   10.60
   2  -4   0  225.98   10.40
   2   4   0  184.28   10.90
  -2   4   0  214.58   10.00
  -3  -4   0   26.30    5.50
   3  -4   0   35.90    6.10
  -3   4   0   39.30    6.00
  -3   4   0   42.40    6.30
   3   4   0   37.30    6.90
   4  -4   0   25.00    6.80
  -4  -4   0   35.30    7.90
  -4  -4   0   31.50    7.20
   4   4   0   23.60    7.20
  -4   4   0   13.30    4.80
  -4   4   0   26.60    6.90
  -5  -4   0   37.70    9.30
  -5  -4   0   33.30    8.50
  -5   4   0   52.99   11.10
  -5   4   0   36.80    7.70
  -6  -4   0   87.09   14.70
  -6  -4   0   75.09   12.50
  -6   4   0   94.99   15.60
  -6   4   0   85.19   12.90
  -7  -4   0   19.90    9.50
  -7  -4   0    2.00   10.60
  -7   4   0   14.70    7.50
  -7   4   0   17.50   11.00
  -8  -4   0   32.40   11.90
  -8   4   0   31.50   11.30
  -8   4   0   22.00   14.00
  -9  -4   0    4.40   11.20
  -9   4   0   -1.40   21.80
  -9   4   0   13.10   11.30
 -10  -4   0   20.10   15.30
 -10   4   0    6.20   13.80
 -11  -4   0   11.90   17.00
 -11   4   0   11.10   17.70
   0   5   0    1.40    0.70
   1  -5   0 4454.45   92.69
  -1  -5   0 4600.64   92.79
  -1  -5   0 4394.76   96.19
   1   5   0 4398.36   96.39
  -1   5   0 4577.24   92.49
   1   5   0 4461.55   92.59
   3  -5   0  388.86   17.70
  -3  -5   0  375.66   18.60
  -3  -5   0  398.36   18.90
   3   5   0  388.46   19.70
  -3   5   0  384.76   17.10
  -3   5   0  383.16   16.80
  -4  -5   0 2397.06   68.19
  -4  -5   0 2415.86   67.59
  -4   5   0 2461.15   65.79
  -4   5   0 2386.36   64.39
  -5  -5   0 1523.55   52.29
  -5  -5   0 1580.04   54.19
  -5   5   0 1489.05   49.20
  -5   5   0 1629.14   51.99
  -6  -5   0  159.18   18.20
  -6  -5   0  173.48   17.20
  -6   5   0  160.28   17.70
  -6   5   0  164.08   15.40
  -7  -5   0  406.66   30.50
  -7  -5   0  420.56   28.40
  -7   5   0  383.26   25.40
  -7   5   0  433.16   30.40
  -8  -5   0  941.91   45.90
  -8   5   0  847.12   46.90
  -8   5   0  888.51   43.10
  -9  -5   0   89.99   20.50
  -9   5   0   67.49   22.60
  -9   5   0   97.59   17.80
 -10  -5   0   90.99   20.70
 -10   5   0   60.79   18.70
   0  -6   0 4425.06   86.99
   0  -6   0 4206.88   88.39
   0   6   0 4147.39   88.59
   1  -6   0 2904.11   61.09
  -1  -6   0 2876.11   65.19
  -1  -6   0 2908.91   61.39
   1   6   0 2880.81   65.49
   1   6   0 2934.41   61.49
  -1   6   0 3001.60   60.99
  -1   6   0 2873.71   60.69
   2  -6   0 1622.24   40.10
  -2  -6   0 1625.14   39.20
  -2  -6   0 1519.75   42.70
   2   6   0 1544.75   43.60
  -2   6   0 1666.03   39.60
  -2   6   0 1650.23   39.80
  -3  -6   0 1718.23   49.90
  -3  -6   0 1711.23   49.40
   3  -6   0 1674.23   46.90
  -3   6   0 1746.13   46.60
   3   6   0 1776.72   51.19
  -3   6   0 1729.23   46.00
  -4  -6   0 2231.68   63.99
  -4  -6   0 2157.58   62.79
  -4   6   0 2198.38   59.49
  -4   6   0 2138.49   60.09
  -5  -6   0   62.69   11.40
  -5  -6   0   41.90   11.00
  -5   6   0   63.49   11.20
  -5   6   0   62.19    9.90
  -6  -6   0 1381.16   54.29
  -6  -6   0 1429.96   53.09
  -6   6   0 1396.16   49.50
  -6   6   0 1446.86   52.39
  -7  -6   0  914.91   45.70
  -7  -6   0  864.71   42.30
  -7  -6   0  781.12   38.80
  -7   6   0  910.31   39.70
  -7   6   0  900.71   43.40
  -8  -6   0    6.90    9.10
  -8   6   0    4.70   14.30
  -8   6   0    1.60    7.70
  -9  -6   0  514.95   38.50
  -9   6   0  537.25   34.30
  -9   6   0  472.35   39.30
 -10  -6   0  214.08   29.00
 -10   6   0  240.28   29.00
   0  -7   0    4.30    1.00
   0  -7   0    2.80    1.10
   0   7   0    0.90    1.00
  -1  -7   0    1.70    0.90
  -1  -7   0    5.40    1.90
  -1   7   0    2.10    0.80
   1   7   0    5.60    1.90
   1   7   0    2.80    1.00
  -2  -7   0 2316.87   58.29
   2  -7   0 2237.88   54.09
  -2  -7   0 2336.47   53.59
   2   7   0 2318.67   59.09
  -2   7   0 2484.75   54.29
  -2   7   0 2281.07   53.39
  -3  -7   0  153.88   11.50
  -3  -7   0  143.99   11.40
   3  -7   0  113.29    9.40
  -3  -7   0  131.89    9.20
  -3   7   0  123.19    9.10
   3   7   0  153.38   12.50
  -3   7   0  118.59    8.70
  -4  -7   0  238.18   16.30
  -4  -7   0  196.78   15.50
  -4   7   0  233.98   15.10
  -4   7   0  214.68   13.90
  -5  -7   0  130.79   15.10
  -5  -7   0  121.69   13.40
  -5   7   0  114.59   12.10
  -5   7   0  133.59   13.60
  -6  -7   0   70.69   13.80
  -6  -7   0   84.79   13.50
  -6  -7   0   59.59   14.40
  -6   7   0   72.99   13.80
  -6   7   0   46.30   10.10
  -7  -7   0    2.40    8.10
  -7  -7   0   -0.10    9.50
  -7  -7   0    2.40   11.90
  -7   7   0    8.30    7.10
  -7   7   0    1.70   10.50
  -8  -7   0   26.20   11.30
  -8   7   0   15.40    8.70
  -8   7   0   26.50   16.30
  -9  -7   0   58.29   17.70
  -9   7   0   25.80   21.00
  -9   7   0   51.29   14.90
 -10  -7   0    7.80   14.40
 -10   7   0   24.40   14.80
  -1  -8   0  994.00   22.90
  -1  -8   0  952.50   26.40
  -1   8   0  948.81   21.10
   1   8   0  990.10   23.00
  -1   8   0  964.40   21.30
   2  -8   0  314.37   12.30
  -2  -8   0  336.77   12.20
  -2  -8   0  337.07   15.30
   2   8   0  341.57   15.90
  -2   8   0  323.27   11.90
  -2   8   0  340.87   12.40
   3  -8   0 3038.60   74.79
  -3  -8   0 3063.79   73.29
  -3  -8   0 3179.28   79.49
  -3  -8   0 3160.68   79.59
  -3   8   0 3126.39   74.49
   3   8   0 3189.58   80.99
  -3   8   0 3122.69   73.49
  -4  -8   0 3586.14   92.59
  -4  -8   0 3562.84   86.19
  -4  -8   0 3460.75   91.09
  -4   8   0 3508.35   85.99
  -4   8   0 3488.35   87.09
  -5  -8   0  503.15   28.40
  -5  -8   0  492.25   24.50
  -5  -8   0  595.64   29.10
  -5   8   0  484.25   25.30
  -5   8   0  534.25   25.00
  -6  -8   0 1447.96   53.39
  -6  -8   0 1388.16   54.49
  -6  -8   0 1326.27   48.60
  -6   8   0 1403.46   50.99
  -6   8   0 1323.37   47.60
  -7  -8   0  598.94   38.60
  -7  -8   0  587.64   33.20
  -7  -8   0  582.24   34.50
  -7   8   0  576.44   34.10
  -7   8   0  648.94   32.90
  -8  -8   0    4.90    8.80
  -8  -8   0   25.00   14.40
  -8   8   0   -2.60   13.90
  -8   8   0   11.50    9.10
  -9  -8   0  727.33   44.60
  -9   8   0  657.03   47.00
  -9   8   0  710.43   40.30
 -10  -8   0  123.49   25.10
 -10   8   0  164.58   24.30
   0  -9   0    2.30    1.40
   0  -9   0    2.80    1.10
   0   9   0    2.50    1.30
  -1  -9   0 2890.51   64.89
  -1  -9   0 2872.81   60.59
  -1  -9   0 2793.62   64.79
   1   9   0 2868.31   60.69
  -1   9   0 2880.91   57.99
  -1   9   0 2766.12   57.79
  -2  -9   0 1885.31   50.69
  -2  -9   0 2007.10   51.59
  -2  -9   0 1987.90   45.60
  -2   9   0 1950.80   45.00
  -2   9   0 1957.80   45.60
   2   9   0 1913.21   51.79
  -3  -9   0 1002.30   35.60
  -3  -9   0 1121.39   32.00
  -3  -9   0 1055.69   36.40
  -3   9   0 1131.79   32.70
  -3   9   0 1133.79   32.00
  -4  -9   0  279.67   18.90
  -4  -9   0  265.57   15.20
  -4  -9   0  303.67   19.00
  -4   9   0  259.07   15.90
  -4   9   0  266.67   15.20
  -5  -9   0 1653.23   55.99
  -5  -9   0 1705.93   51.99
  -5  -9   0 1674.23   57.69
  -5   9   0 1630.54   50.69
  -5   9   0 1691.93   53.09
  -6  -9   0   65.39   14.00
  -6  -9   0   72.19   12.90
  -6  -9   0   86.19   13.90
  -6   9   0   85.39   12.50
  -6   9   0   76.39   12.20
  -7  -9   0  277.47   24.20
  -7  -9   0  264.27   23.20
  -7  -9   0  246.48   25.60
  -7   9   0  233.88   23.40
  -7   9   0  251.67   20.20
  -8  -9   0  454.55   32.80
  -8  -9   0  444.06   31.90
  -8   9   0  403.36   32.90
  -8   9   0  444.26   29.60
  -9  -9   0   33.90   15.70
  -9   9   0   62.59   15.50
  -9   9   0   12.50   19.80
 -10  -9   0   89.29   21.90
 -10   9   0   45.30   16.70
   0 -10   0 2625.14   53.79
   0 -10   0 2632.14   56.29
   0 -10   0 2255.77   54.99
   0  10   0 2580.04   56.79
  -1 -10   0    4.10    1.40
  -1 -10   0   12.20    2.90
  -1 -10   0    2.40    2.00
   1  10   0    2.10    1.20
  -1  10   0    3.20    1.90
  -2 -10   0  155.98   10.70
  -2 -10   0  166.18    8.00
  -2 -10   0  174.48   10.90
  -2  10   0  182.48    8.20
  -2  10   0  203.98    8.10
  -3 -10   0 2209.98   61.29
  -3 -10   0 2233.78   61.19
  -3 -10   0 2239.78   54.89
  -3  10   0 2205.28   55.29
  -3  10   0 2207.78   54.39
  -4 -10   0 1255.57   44.60
  -4 -10   0 1267.07   43.80
  -4 -10   0 1289.67   39.00
  -4  10   0 1250.07   38.30
  -4  10   0 1236.68   39.50
  -5 -10   0   19.20    6.70
  -5 -10   0   10.20    6.40
  -5 -10   0   17.90    8.20
  -5  10   0   13.20    6.30
  -5  10   0   10.30    5.40
  -6 -10   0   51.39   12.50
  -6 -10   0   42.70   11.00
  -6 -10   0   47.50   11.40
  -6  10   0   44.80    9.50
  -6  10   0   17.80    8.30
  -7 -10   0    1.50    7.90
  -7 -10   0   -6.40    9.70
  -7  10   0   -4.60    8.10
  -7  10   0   18.50    8.20
  -8 -10   0   97.69   18.90
  -8 -10   0   75.79   16.40
  -8  10   0   63.99   13.40
  -8  10   0   54.39   17.10
  -9 -10   0  148.19   25.40
  -9  10   0  130.39   19.70
  -9  10   0   86.09   21.80
 -10 -10   0   20.20   16.50
 -10  10   0   26.30   14.00
   0 -11   0    2.00    1.20
   0 -11   0    1.10    1.60
   0  11   0    1.90    1.60
  -1 -11   0 2172.48   51.59
  -1 -11   0 2126.69   47.50
  -1 -11   0 2162.88   51.59
   1  11   0 2145.49   47.60
  -1  11   0 2183.78   52.99
  -2 -11   0 3249.38   70.89
  -2 -11   0 3241.38   77.79
  -2 -11   0 3230.28   77.69
   2  11   0 3207.38   70.69
  -2  11   0 3131.99   69.39
  -2  11   0 3280.17   70.29
  -3 -11   0 2048.99   50.79
  -3 -11   0 2078.79   58.09
  -3 -11   0 2019.20   57.29
  -3  11   0 2006.30   50.09
  -3  11   0 2026.30   51.19
  -4 -11   0  341.17   16.90
  -4 -11   0  376.36   21.60
  -4 -11   0  337.57   21.10
  -4  11   0  344.57   16.70
  -4  11   0  352.86   17.90
  -5 -11   0 1423.66   45.20
  -5 -11   0 1358.46   49.70
  -5 -11   0 1380.36   51.39
  -5  11   0 1363.66   43.70
  -5  11   0 1374.16   45.90
  -6 -11   0  122.59   19.30
  -6 -11   0  136.09   18.60
  -6 -11   0  141.79   15.00
  -6  11   0  126.49   13.60
  -6  11   0  140.49   16.20
  -7 -11   0  437.86   30.60
  -7 -11   0  411.36   27.80
  -7  11   0  449.86   26.40
  -7  11   0  396.96   28.00
  -8 -11   0 1078.39   51.49
  -8 -11   0  982.80   47.90
  -8  11   0  996.00   49.99
  -8  11   0 1112.09   46.40
  -9 -11   0   44.20   16.40
  -9  11   0   58.99   22.00
  -9  11   0   49.60   13.80
 -10 -11   0  138.99   25.30
 -10  11   0   93.89   35.80
 -10  11   0   57.69   18.10
   0 -12   0  887.41   21.30
   0 -12   0  897.41   21.20
   0 -12   0  849.61   23.60
   0  12   0  832.52   24.00
  -1 -12   0  194.38    9.90
  -1 -12   0  206.68    8.00
  -1 -12   0  206.68   10.20
  -1  12   0  219.28   11.10
   1  12   0  211.18    8.00
  -2 -12   0  149.99    7.60
  -2 -12   0  183.78   11.50
  -2 -12   0  180.38   11.50
   2  12   0  164.38    7.80
  -2  12   0  162.68    6.80
  -2  12   0  163.58    7.20
  -3 -12   0  812.22   25.30
  -3 -12   0  830.82   31.60
  -3 -12   0  811.42   30.90
  -3  12   0  845.42   24.90
  -3  12   0  820.32   25.70
  -4 -12   0   93.59   11.20
  -4 -12   0  109.69   12.50
  -4 -12   0   88.49    8.70
  -4  12   0   81.39    9.10
  -4  12   0   67.59    7.80
  -5 -12   0  121.89   16.70
  -5 -12   0  145.69   15.90
  -5 -12   0  143.09   13.20
  -5  12   0  130.09   13.00
  -5  12   0  146.99   12.20
  -6 -12   0  565.04   34.10
  -6 -12   0  592.94   29.00
  -6 -12   0  592.54   32.50
  -6  12   0  527.85   26.50
  -6  12   0  572.64   30.00
  -7 -12   0  115.69   18.00
  -7 -12   0  121.39   19.00
  -7  12   0  111.09   15.60
  -7  12   0  109.99   17.10
  -8 -12   0   32.50   14.50
  -8 -12   0   34.70   15.10
  -8  12   0   70.79   18.50
  -8  12   0   69.39   14.20
  -9 -12   0  115.59   21.50
  -9  12   0  108.29   25.60
  -9  12   0  112.89   18.60
 -10 -12   0  144.59   24.70
 -10  12   0  112.29   32.00
 -10  12   0  116.49   21.60
   0 -13   0    1.60    1.40
   0 -13   0    0.60    1.70
   0 -13   0    2.70    1.30
   0  13   0    1.20    1.80
  -1 -13   0 1091.69   27.30
  -1 -13   0 1107.79   30.60
  -1 -13   0 1111.99   30.70
   1  13   0 1094.19   27.10
  -1  13   0 1120.49   32.40
  -2 -13   0 1938.71   52.49
  -2 -13   0 2019.80   53.19
  -2 -13   0 2052.19   46.00
  -2  13   0 1883.61   43.40
   2  13   0 1993.40   45.80
  -2  13   0 1978.50   44.20
  -3 -13   0   35.10    7.50
  -3 -13   0   31.00    5.00
  -3 -13   0   30.50    6.80
  -3  13   0   28.90    5.00
  -3  13   0   31.10    4.60
  -4 -13   0  131.09   10.40
  -4 -13   0  123.99   14.10
  -4 -13   0  111.89   12.20
  -4  13   0  131.69   10.90
  -4  13   0  147.79   10.40
  -5 -13   0  270.87   20.00
  -5 -13   0  255.87   21.90
  -5 -13   0  299.87   17.80
  -5  13   0  301.17   18.70
  -5  13   0  280.97   16.80
  -6 -13   0   99.89   16.60
  -6 -13   0  110.39   19.40
  -6 -13   0   78.49   12.70
  -6  13   0   73.89   11.50
  -6  13   0   91.19   13.90
  -7 -13   0  131.89   18.20
  -7 -13   0  116.99   18.40
  -7  13   0  123.49   18.60
  -7  13   0  138.19   15.90
  -8 -13   0   84.79   17.60
  -8 -13   0   75.09   16.20
  -8  13   0   81.39   18.40
  -8  13   0   81.49   14.80
  -9 -13   0   10.20   13.30
  -9  13   0    9.50   18.60
  -9  13   0    5.30   10.60
 -10 -13   0   16.50   16.40
 -10  13   0   53.59   28.00
 -10  13   0   24.30   15.80
 -10  13   0   32.00   15.70
   0 -14   0 3544.25   73.69
   0 -14   0 3468.65   73.79
   0  14   0 3396.26   78.19
  -1 -14   0  541.55   15.90
  -1 -14   0  550.64   18.80
  -1 -14   0  509.25   18.20
   1  14   0  537.55   15.80
  -1  14   0  546.15   20.30
  -2 -14   0  738.93   20.50
  -2 -14   0  742.13   26.70
  -2 -14   0  761.72   26.60
   2  14   0  758.52   20.80
  -2  14   0  695.13   18.00
  -2  14   0  727.83   26.80
  -2  14   0  735.53   18.60
  -3 -14   0 2984.60   78.29
  -3 -14   0 2924.51   68.39
  -3 -14   0 2892.31   76.79
  -3  14   0 2927.01   67.09
  -3  14   0 2999.90   68.59
  -4 -14   0  440.56   24.00
  -4 -14   0  464.55   19.70
  -4 -14   0  445.06   25.50
  -4  14   0  490.15   20.70
  -4  14   0  456.35   18.90
  -5 -14   0  211.78   20.30
  -5 -14   0  270.87   20.00
  -5 -14   0  233.18   15.90
  -5  14   0  214.58   15.80
  -5  14   0  240.48   15.20
  -6 -14   0 1262.77   45.00
  -6 -14   0 1236.28   50.09
  -6 -14   0 1199.28   52.19
  -6  14   0 1284.77   46.80
  -6  14   0 1225.38   42.80
  -7 -14   0 1183.78   47.10
  -7 -14   0 1173.48   52.19
  -7  14   0 1185.98   45.10
  -7  14   0 1235.78   49.70
  -8 -14   0   20.70   14.80
  -8 -14   0  -12.80   10.20
  -8  14   0   22.00   10.00
  -8  14   0   42.80   16.20
  -9 -14   0  338.17   32.30
  -9  14   0  317.27   34.40
  -9  14   0  269.37   25.70
 -10 -14   0  363.06   37.80
 -10  14   0  351.26   31.80
 -10  14   0  344.37   36.90
 -10  14   0  354.66   43.20
   0 -15   0    2.40    1.50
   0  15   0    5.70    2.70
  -1 -15   0  867.81   25.80
  -1 -15   0  861.91   23.00
  -1 -15   0  859.51   26.00
   1  15   0  841.12   22.80
  -1  15   0  847.82   27.80
  -2 -15   0  604.24   23.40
  -2 -15   0  599.74   17.80
  -2 -15   0  584.44   23.40
  -2  15   0  618.04   15.10
   2  15   0  610.64   18.00
  -2  15   0  609.34   14.80
  -2  15   0  589.44   24.00
  -3 -15   0  163.28   13.60
  -3 -15   0  166.08    9.70
  -3 -15   0  211.58   14.40
  -3  15   0  198.18    9.40
  -3  15   0  203.98   10.20
  -4 -15   0  214.38   16.60
  -4 -15   0  168.18   16.40
  -4 -15   0  213.98   12.70
  -4  15   0  197.08   11.70
  -4  15   0  200.18   12.80
  -5 -15   0   76.69   10.50
  -5 -15   0   67.99   13.80
  -5 -15   0   67.29   13.00
  -5  15   0   88.99   11.60
  -5  15   0   76.29    9.20
  -6 -15   0   58.39   14.50
  -6 -15   0   69.89   14.20
  -6 -15   0   94.19   13.10
  -6  15   0   77.19   11.40
  -6  15   0   55.79   11.70
  -7 -15   0   38.10   12.50
  -7 -15   0   32.80   11.30
  -7  15   0   23.20    9.00
  -7  15   0   28.80   11.50
  -8 -15   0  145.39   21.60
  -8 -15   0  181.68   23.90
  -8  15   0  221.08   25.20
  -8  15   0  153.98   18.20
  -9 -15   0   38.20   17.80
  -9  15   0   69.39   21.90
  -9  15   0   54.99   14.50
 -10 -15   0   45.10   19.70
 -10  15   0   26.00   15.20
 -10  15   0   22.40   17.10
   0 -16   0 1971.60   43.60
   0 -16   0 1911.71   43.70
   0  16   0 1948.41   48.70
  -1 -16   0  175.78   10.00
  -1 -16   0  206.28   10.90
  -1 -16   0  187.88    8.50
  -1  16   0  179.18   11.40
   1  16   0  174.68    8.30
  -2 -16   0  312.47   11.50
  -2 -16   0  303.27   15.90
  -2 -16   0  304.67   16.20
  -2  16   0  341.47   17.50
   2  16   0  290.87   11.30
  -3 -16   0 1811.62   45.90
  -3 -16   0 1896.51   55.89
  -3 -16   0 1788.32   54.29
  -3  16   0 1955.10   45.70
  -3  16   0 1828.92   44.10
  -4 -16   0 1067.29   40.80
  -4 -16   0  969.30   38.30
  -4 -16   0  997.50   31.30
  -4  16   0  948.21   31.40
  -4  16   0  948.31   29.80
  -5 -16   0   21.30    6.60
  -5 -16   0   21.20    8.70
  -5 -16   0    9.80    9.10
  -5  16   0   30.80    7.30
  -5  16   0   26.90    6.30
  -6 -16   0  325.07   20.80
  -6 -16   0  325.87   25.20
  -6  16   0  282.47   20.90
  -6  16   0  351.36   20.10
  -7 -16   0  261.07   25.20
  -7 -16   0  263.77   22.00
  -7  16   0  256.17   19.70
  -7  16   0  274.47   24.30
  -8 -16   0    1.70    9.70
  -8 -16   0    7.50   14.50
  -8  16   0   -2.30   12.90
  -8  16   0   -2.60    7.90
  -9 -16   0  205.58   28.10
  -9  16   0  213.28   29.70
  -9  16   0  184.08   27.00
  -9  16   0  197.58   22.40
 -10 -16   0  167.48   28.30
 -10  16   0  119.19   21.30
 -10  16   0  139.29   28.00
   0 -17   0    5.80    2.00
   0 -17   0    3.60    1.70
   0  17   0    3.80    2.90
  -1 -17   0 3335.37   73.19
  -1 -17   0 3384.66   76.89
  -1 -17   0 3341.07   76.29
  -1  17   0 3149.88   79.39
   1  17   0 3305.17   72.99
  -2 -17   0 3134.59   77.79
  -2 -17   0 3092.89   76.89
  -2 -17   0 3042.10   68.69
  -2  17   0 3071.69   78.59
   2  17   0 3212.28   69.29
  -3 -17   0   85.69    7.00
  -3 -17   0   86.39   11.90
  -3 -17   0   91.09   10.70
  -3  17   0   88.99    5.90
  -3  17   0  112.79   11.10
  -3  17   0   80.89    6.10
  -4 -17   0 1295.27   46.20
  -4 -17   0 1365.26   38.50
  -4 -17   0 1256.67   47.60
  -4  17   0 1344.27   38.60
  -4  17   0 1316.27   36.80
  -5 -17   0  696.13   34.00
  -5 -17   0  670.33   34.90
  -5 -17   0  721.43   27.90
  -5  17   0  672.73   27.90
  -5  17   0  677.73   26.20
  -6 -17   0   -1.10    7.60
  -6 -17   0    3.90    7.40
  -6  17   0    0.60    5.30
  -6  17   0    6.20    7.70
  -7 -17   0  172.08   18.60
  -7 -17   0  164.18   22.60
  -7  17   0  169.98   19.60
  -7  17   0  167.58   16.80
  -8 -17   0  810.02   44.90
  -8 -17   0  802.02   41.10
  -8  17   0  779.92   37.50
  -8  17   0  792.92   42.80
  -9 -17   0  137.89   25.30
  -9  17   0  122.89   19.20
  -9  17   0  176.18   26.60
  -9  17   0  129.69   25.80
 -10 -17   0  137.99   28.40
 -10  17   0  124.19   24.50
 -10  17   0  161.88   23.10
   0 -18   0   47.00    4.30
   0 -18   0   46.20    3.80
   0  18   0   39.90    5.90
  -1 -18   0  348.57   14.80
  -1 -18   0  365.06   13.30
  -1 -18   0  379.26   15.50
  -1  18   0  348.97   17.10
   1  18   0  343.07   13.00
  -2 -18   0   15.50    4.70
  -2 -18   0   21.20    3.50
  -2 -18   0   16.30    5.50
   2  18   0   12.10    3.10
  -2  18   0   14.70    5.30
  -3 -18   0  131.39   12.30
  -3 -18   0  126.79   12.90
  -3 -18   0  115.29    8.00
  -3  18   0  128.69    6.80
  -3  18   0  133.69    7.30
  -3  18   0  124.39   11.80
  -4 -18   0  -13.50    6.20
  -4 -18   0   -5.20    5.20
  -4 -18   0    7.90    4.20
  -4  18   0    5.80    4.20
  -4  18   0    3.40    3.30
  -5 -18   0   59.19   12.60
  -5 -18   0   64.89    9.80
  -5 -18   0   68.59   12.50
  -5  18   0   55.99    8.30
  -5  18   0   64.99    9.80
  -6 -18   0  304.67   20.10
  -6 -18   0  295.27   24.30
  -6  18   0  285.47   18.10
  -6  18   0  300.07   20.80
  -7 -18   0  338.17   27.60
  -7 -18   0  329.37   24.60
  -7  18   0  334.47   22.00
  -7  18   0  413.96   27.40
  -8 -18   0   10.10   14.40
  -8 -18   0   37.40   14.50
  -8  18   0   13.40   15.00
  -8  18   0   22.70   12.20
  -8  18   0   19.70   10.30
  -9 -18   0   12.90   13.70
  -9  18   0   10.30   10.60
  -9  18   0  -20.50   18.70
  -9  18   0    7.10   14.20
 -10 -18   0   -2.10   16.30
 -10  18   0   13.40   14.20
 -10  18   0   21.30   17.20
   0 -19   0    9.40    2.50
   0 -19   0    4.00    1.90
   0  19   0    5.70    3.20
  -1 -19   0 2449.95   55.79
  -1 -19   0 2406.86   58.99
  -1 -19   0 2417.06   58.49
  -1  19   0 2383.26   62.39
   1  19   0 2344.07   55.69
  -2 -19   0 1010.20   33.10
  -2 -19   0 1006.30   26.50
  -2 -19   0  981.70   33.50
   2  19   0  963.20   26.30
  -2  19   0  960.00   34.60
  -3 -19   0  142.59    8.80
  -3 -19   0  159.98   14.00
  -3 -19   0  173.58   14.00
  -3  19   0  162.68   14.30
  -3  19   0  143.89    7.20
  -3  19   0  157.98    7.00
  -4 -19   0  928.81   37.40
  -4 -19   0  892.91   38.40
  -4 -19   0  914.41   28.70
  -4  19   0  853.81   26.50
  -4  19   0  910.81   28.40
  -4  19   0  877.11   37.40
  -5 -19   0  957.10   40.90
  -5 -19   0  827.12   31.30
  -5 -19   0  914.21   42.20
  -5  19   0  941.01   30.80
  -5  19   0  952.40   33.30
  -6 -19   0  234.98   18.00
  -6 -19   0  206.58   20.50
  -6  19   0  167.28   17.00
  -6  19   0  206.58   15.60
  -7 -19   0   20.40   11.50
  -7 -19   0    7.90   10.20
  -7  19   0   29.90   11.40
  -7  19   0   20.80    8.30
  -8 -19   0  639.34   37.00
  -8 -19   0  685.63   41.50
  -8  19   0  631.04   41.00
  -8  19   0  665.33   33.40
  -8  19   0  642.04   38.60
  -9 -19   0  109.99   23.90
  -9  19   0   62.19   18.60
  -9  19   0   72.29   21.60
  -9  19   0   89.59   16.50
 -10 -19   0   90.19   24.70
 -10  19   0   71.19   18.00
 -10  19   0   58.99   21.90
   0 -20   0 2556.94   56.79
   0 -20   0 2561.84   56.29
   0  20   0 2548.84   63.09
  -1 -20   0  843.12   24.30
  -1 -20   0  846.72   26.30
  -1 -20   0  847.92   27.00
   1  20   0  864.31   24.70
  -1  20   0  826.02   29.60
  -2 -20   0  461.85   20.60
  -2 -20   0  460.25   21.40
  -2 -20   0  468.15   15.60
  -2  20   0  467.95   22.70
   2  20   0  462.05   15.50
  -3 -20   0 3040.20   81.59
  -3 -20   0 3009.20   68.79
  -3 -20   0 2979.90   79.69
  -3  20   0 3037.70   81.89
  -3  20   0 3046.10   64.49
  -3  20   0 3000.20   63.89
  -4 -20   0  358.66   23.60
  -4 -20   0  389.86   16.70
  -4 -20   0  378.26   23.00
  -4  20   0  371.46   14.80
  -4  20   0  397.36   16.30
  -4  20   0  421.96   24.40
  -5 -20   0  123.79   17.00
  -5 -20   0   87.99   16.30
  -5 -20   0   91.59   10.80
  -5  20   0   99.79   11.80
  -5  20   0  100.69    9.40
  -5  20   0  100.49   15.50
  -6 -20   0 1552.24   58.79
  -6 -20   0 1451.95   47.90
  -6  20   0 1513.65   49.80
  -6  20   0 1492.75   58.39
  -6  20   0 1507.25   46.50
  -7 -20   0  483.65   28.10
  -7 -20   0  443.36   32.50
  -7  20   0  472.75   25.10
  -7  20   0  446.86   28.50
  -7  20   0  400.56   30.50
  -8 -20   0   10.00   14.40
  -8 -20   0  -14.30   11.80
  -8  20   0   -4.00   10.40
  -8  20   0    0.70    8.20
  -8  20   0   -9.80   13.50
  -9 -20   0  296.77   31.30
  -9  20   0  259.87   31.80
  -9  20   0  350.26   34.40
  -9  20   0  309.47   26.30
 -10 -20   0  197.68   30.40
 -10  20   0  237.68   34.30
 -10  20   0  220.78   26.00
   0  21   0    7.20    3.50
  -1 -21   0   43.70    6.50
  -1 -21   0   44.90    5.60
  -1 -21   0   61.69    6.50
  -1  21   0   68.89    9.20
   1  21   0   44.90    5.30
  -2 -21   0  178.88    9.00
  -2 -21   0  184.88   12.90
  -2 -21   0  199.68   13.70
  -2  21   0  196.48   14.60
   2  21   0  173.58    9.00
  -3 -21   0   78.29    6.60
  -3 -21   0   69.19   10.30
  -3 -21   0   59.39   11.00
  -3  21   0   48.90    9.20
  -4 -21   0   13.90    4.90
  -4 -21   0    6.20    5.90
  -4 -21   0   14.60    8.40
  -4  21   0   16.40    7.40
  -4  21   0   21.50    4.50
  -4  21   0   19.20    4.20
  -5 -21   0   64.69    9.20
  -5 -21   0   62.39   13.10
  -5 -21   0   44.90   13.00
  -5  21   0   46.80    8.10
  -5  21   0   50.59    7.50
  -5  21   0   40.40   10.30
  -6 -21   0   30.00   12.00
  -6 -21   0   33.60    9.90
  -6  21   0   47.50   13.40
  -6  21   0   51.19    9.10
  -6  21   0   48.40   10.40
  -7 -21   0   16.00   12.20
  -7 -21   0   24.20   11.30
  -7  21   0   24.90   11.10
  -7  21   0   25.10    8.40
  -7  21   0   27.10   11.60
  -8 -21   0   -8.80   13.60
  -8 -21   0  -12.60   14.00
  -8  21   0   16.30   13.90
  -8  21   0   -1.40    8.30
  -8  21   0   -1.90   12.90
  -9 -21   0   17.00   15.80
  -9  21   0  -13.00   13.90
  -9  21   0   10.90   18.60
  -9  21   0   24.80   11.80
   0 -22   0 2833.82   62.59
   0 -22   0 2814.12   62.09
   0  22   0 2874.71   69.99
  -1 -22   0  453.85   17.80
  -1 -22   0  467.75   18.60
  -1 -22   0  480.65   16.90
   1  22   0  471.25   17.00
  -1  22   0  429.86   20.80
  -2 -22   0  339.87   18.00
  -2 -22   0  373.76   13.70
  -2 -22   0  406.36   20.20
  -2  22   0  354.46   20.30
   2  22   0  374.56   13.80
  -3 -22   0 1833.82   56.29
  -3 -22   0 1908.81   58.59
  -3 -22   0 1934.41   46.10
  -3  22   0 1877.71   58.99
  -4 -22   0  973.30   39.30
  -4 -22   0  989.20   29.40
  -4 -22   0  933.41   40.90
  -4  22   0  947.21   40.30
  -4  22   0  972.20   26.40
  -4  22   0  976.10   27.40
  -5 -22   0   18.50    7.00
  -5 -22   0   35.50   10.10
  -5  22   0   30.40    5.90
  -5  22   0   26.90    6.60
  -5  22   0   46.80   11.80
  -6 -22   0 1269.27   52.39
  -6 -22   0 1270.77   42.30
  -6  22   0 1189.08   39.50
  -6  22   0 1282.77   53.89
  -6  22   0 1271.57   43.40
  -7 -22   0  790.92   35.10
  -7 -22   0  747.53   42.50
  -7  22   0  756.12   32.10
  -7  22   0  774.22   36.10
  -7  22   0  719.53   41.50
  -8 -22   0   43.20   15.60
  -8 -22   0   42.10   15.80
  -8  22   0   41.70   15.20
  -8  22   0   19.40   14.70
  -8  22   0   29.10   10.10
  -9 -22   0  433.16   38.90
  -9 -22   0  404.16   43.10
  -9  22   0  414.66   37.40
  -9  22   0  414.06   37.40
  -9  22   0  487.35   30.60
   0 -23   0   10.40    2.60
   0  23   0    5.70    4.00
  -1 -23   0  577.14   21.40
  -1 -23   0  625.04   22.60
  -1  23   0  645.74   26.40
   1  23   0  670.03   21.30
  -2 -23   0  784.02   22.90
  -2 -23   0  760.22   29.80
  -2 -23   0  794.52   29.00
  -2  23   0  824.62   32.70
   2  23   0  805.82   23.20
  -3 -23   0   74.79   11.30
  -3 -23   0   94.39    7.20
  -3 -23   0   86.79   12.80
  -3  23   0   83.49   12.90
  -4 -23   0  903.71   39.50
  -4 -23   0  924.81   28.00
  -4 -23   0  912.01   38.30
  -4  23   0  907.61   24.10
  -4  23   0  949.01   25.40
  -4  23   0  910.01   39.40
  -5 -23   0 1715.63   47.90
  -5 -23   0 1673.53   60.09
  -5  23   0 1729.93   61.79
  -5  23   0 1769.12   47.80
  -5  23   0 1709.23   45.50
  -6 -23   0   31.50   11.40
  -6 -23   0   33.40    8.90
  -6  23   0   29.50   12.60
  -6  23   0   44.50    9.90
  -6  23   0   51.89    8.60
  -7 -23   0  324.97   28.90
  -7 -23   0  324.27   23.30
  -7  23   0  305.87   23.10
  -7  23   0  339.97   20.90
  -7  23   0  275.57   28.20
  -8 -23   0  525.65   37.70
  -8 -23   0  502.85   32.60
  -8  23   0  481.65   33.60
  -8  23   0  578.64   29.70
  -8  23   0  489.25   37.00
  -9 -23   0   91.89   24.60
  -9 -23   0   74.69   23.00
  -9  23   0   97.89   22.90
  -9  23   0   98.99   16.90
  -9  23   0  115.69   34.60
   0 -24   0  320.67   11.40
   0 -24   0  325.27   11.10
   0  24   0  310.97   16.10
  -1 -24   0   28.20    6.20
  -1  24   0   48.90    8.60
   1  24   0   44.40    6.20
  -2 -24   0   79.99    6.70
  -2 -24   0   77.89    9.20
  -2 -24   0   95.39   11.10
  -2  24   0   95.69   12.70
   2  24   0   66.09    6.40
  -3 -24   0  437.66   24.50
  -3 -24   0  432.36   15.80
  -3 -24   0  487.75   24.10
  -3  24   0  419.06   24.30
  -4 -24   0  362.46   15.30
  -4 -24   0  387.46   23.70
  -4 -24   0  362.36   25.40
  -4  24   0  346.57   24.30
  -4  24   0  351.36   11.10
  -4  24   0  354.56   11.70
  -5 -24   0   60.19    8.80
  -5 -24   0   76.99   14.30
  -5  24   0   55.69    8.00
  -5  24   0   69.99    7.80
  -5  24   0   52.49   13.00
  -6 -24   0  134.39   19.00
  -6 -24   0  120.29   13.90
  -6  24   0  127.49   11.70
  -6  24   0  152.78   21.50
  -6  24   0  131.79   13.70
  -7 -24   0   56.59   15.90
  -7 -24   0   50.09   13.20
  -7  24   0   53.59   15.20
  -7  24   0   57.29   10.70
  -7  24   0   63.09   13.50
  -8 -24   0   15.30   15.00
  -8 -24   0   28.40   15.10
  -8  24   0   36.80   10.60
  -8  24   0    5.00   13.90
  -8  24   0   16.70   14.60
  -9 -24   0   60.59   19.00
  -9 -24   0   46.10   23.10
  -9  24   0   44.60   13.70
  -9  24   0   66.19   19.10
   0 -25   0    1.00    2.20
   0 -25   0    2.50    2.50
   0  25   0    6.80    4.10
  -1 -25   0 2032.50   52.99
   1  25   0 2053.69   51.29
  -1  25   0 2063.59   58.79
  -2 -25   0 1583.64   46.90
  -2 -25   0 1577.84   48.40
  -2 -25   0 1591.24   39.60
  -2  25   0 1679.43   52.29
   2  25   0 1570.34   39.90
  -3 -25   0   95.99   13.90
  -3 -25   0  120.99    7.90
  -3 -25   0  105.89   12.50
  -3  25   0  107.49   14.80
  -4 -25   0 1802.22   61.79
  -4 -25   0 1838.52   45.80
  -4 -25   0 1800.42   59.09
  -4  25   0 1766.42   61.09
  -5 -25   0 2754.72   84.49
  -5 -25   0 2781.82   69.29
  -5  25   0 2854.31   87.69
  -5  25   0 2891.61   67.79
  -5  25   0 2878.11   66.19
  -6 -25   0  147.19   14.10
  -6 -25   0  121.59   18.80
  -6  25   0  106.69   10.90
  -6  25   0  112.69   13.00
  -6  25   0   95.39   18.00
  -7 -25   0  460.05   34.50
  -7 -25   0  451.85   26.00
  -7  25   0  435.96   22.70
  -7  25   0  461.05   26.30
  -7  25   0  430.36   32.50
  -8 -25   0  882.51   48.70
  -8 -25   0  835.22   40.10
  -8  25   0  888.71   36.70
  -8  25   0  858.91   41.30
  -8  25   0  815.82   48.40
  -9 -25   0   36.30   32.90
  -9 -25   0   55.29   19.60
  -9  25   0   91.19   16.50
  -9  25   0  101.59   23.00
   0 -26   0  372.66   12.40
   0 -26   0  365.86   12.20
   0  26   0  379.96   18.40
  -1 -26   0  101.99    9.50
   1  26   0  102.39    8.40
  -1  26   0   98.69   11.60
  -2 -26   0   27.60    6.80
  -2 -26   0   27.90    7.80
  -2 -26   0   43.60    5.50
  -2  26   0   18.00    6.90
   2  26   0   39.70    5.40
  -3 -26   0  398.66   14.20
  -3 -26   0  378.76   21.70
  -3 -26   0  374.66   23.60
  -3  26   0  345.37   23.10
  -4 -26   0   49.20    6.60
  -4 -26   0   49.99   11.10
  -4 -26   0   34.90   12.00
  -4  26   0   66.39   13.70
  -5 -26   0   68.79    9.10
  -5 -26   0  104.19   16.90
  -5  26   0   95.29   16.90
  -5  26   0   92.89    7.30
  -5  26   0   87.49    8.20
  -6 -26   0  177.58   15.20
  -6 -26   0  195.78   22.20
  -6  26   0  184.78   12.60
  -6  26   0  247.88   25.50
  -6  26   0  191.68   14.60
  -7 -26   0  135.69   16.20
  -7 -26   0  131.39   22.70
  -7  26   0  164.08   17.50
  -7  26   0  139.49   22.60
  -7  26   0  174.18   15.10
  -8 -26   0   19.70   14.50
  -8 -26   0   -7.60   13.80
  -8  26   0   -4.50   12.90
  -8  26   0    8.10   13.40
  -8  26   0    9.90    9.00
  -9 -26   0  108.39   24.10
  -9  26   0   84.39   23.20
  -9  26   0   98.79   16.70
   0 -27   0    6.10    2.60
   0  27   0    3.40    4.00
  -1 -27   0  715.63   25.30
  -1  27   0  752.72   30.70
   1  27   0  695.43   23.90
  -2 -27   0  554.14   23.90
  -2 -27   0  579.24   25.70
   2  27   0  558.44   18.80
  -2  27   0  521.45   27.00
  -3 -27   0  108.39    7.60
  -3 -27   0  104.59   15.30
  -3 -27   0  107.19   12.60
  -3  27   0   85.39   13.20
  -4 -27   0  425.46   25.60
  -4 -27   0  415.86   15.90
  -4  27   0  416.76   27.00
  -5 -27   0  620.24   33.60
  -5 -27   0  617.24   22.40
  -5  27   0  616.34   35.70
  -5  27   0  636.14   18.80
  -5  27   0  649.93   18.10
  -6 -27   0  145.79   20.20
  -6 -27   0  171.58   14.50
  -6  27   0  154.28   11.40
  -6  27   0  170.28   13.60
  -6  27   0  141.09   22.20
  -7 -27   0   42.80   16.00
  -7 -27   0   38.50   11.60
  -7  27   0   56.29    9.80
  -7  27   0   55.69   17.50
  -7  27   0   60.99   12.60
  -8 -27   0  235.98   25.30
  -8 -27   0  292.57   29.40
  -8  27   0  252.47   33.20
  -8  27   0  239.78   23.70
  -8  27   0  268.07   20.30
  -9 -27   0   29.40   18.90
  -9  27   0   27.20   12.50
  -9  27   0   14.70   17.30
   0 -28   0  815.72   21.20
   0 -28   0  831.42   21.40
   0  28   0  839.82   30.30
  -1 -28   0  997.10   31.50
  -1  28   0 1024.30   37.50
   1  28   0  971.40   30.40
  -2 -28   0  227.88   16.50
  -2 -28   0  234.38   15.30
   2  28   0  209.88   10.90
  -2  28   0  215.68   17.60
  -3 -28   0 2060.69   61.99
  -3 -28   0 2057.69   48.50
  -3 -28   0 2085.49   64.49
  -3  28   0 2102.99   66.99
  -4 -28   0  779.32   35.80
  -4 -28   0  773.32   23.40
  -4  28   0  830.02   39.60
  -5 -28   0   46.20   12.70
  -5 -28   0   53.59    7.60
  -5  28   0   47.80   13.00
  -6 -28   0  972.40   46.70
  -6 -28   0  907.01   31.80
  -6  28   0  991.30   49.20
  -6  28   0  957.70   30.10
  -6  28   0  930.51   28.30
  -7 -28   0  532.45   26.10
  -7 -28   0  505.75   35.40
  -7  28   0  532.75   23.20
  -7  28   0  476.65   36.10
  -7  28   0  521.75   25.90
  -8 -28   0   60.89   20.40
  -8 -28   0   80.39   16.90
  -8  28   0   59.89   11.80
  -8  28   0   37.70   17.20
  -8  28   0   51.99   14.40
   0  29   0   23.80    6.50
  -1 -29   0   52.79    7.50
  -1  29   0   53.79   10.30
   1  29   0   45.90    7.00
  -2 -29   0   18.50    7.60
  -2 -29   0   21.20    6.50
   2  29   0   14.50    4.60
  -2  29   0   14.20    8.20
  -3 -29   0  264.87   18.90
  -3 -29   0  191.28   18.50
  -3 -29   0  219.58   10.00
  -3  29   0  198.48   18.90
  -4 -29   0  132.19   17.00
  -4 -29   0  143.19    8.80
  -4  29   0  130.49   18.90
  -5 -29   0   19.70   10.70
  -5 -29   0   22.30    5.90
  -5  29   0   -2.90    8.40
  -6 -29   0   97.09   18.30
  -6 -29   0   67.29   10.00
  -6  29   0   80.89    9.10
  -6  29   0   80.79    7.90
  -6  29   0   61.09   17.40
  -7 -29   0   33.20   11.10
  -7 -29   0   28.50   15.00
  -7  29   0   14.80    9.20
  -7  29   0   30.00   15.80
  -7  29   0   11.00    6.80
  -8 -29   0   40.90   18.50
  -8 -29   0   15.30   14.70
  -8  29   0   32.50   12.70
  -8  29   0   23.20    9.40
  -8  29   0   52.39   18.90
   0 -30   0 3926.51   82.89
   0  30   0 3989.70   96.39
  -1 -30   0   95.19    9.90
  -1 -30   0   67.29    7.80
  -1  30   0   76.89   11.60
   1  30   0   69.59    8.20
  -2 -30   0  616.84   27.20
  -2 -30   0  613.34   25.60
  -2  30   0  634.94   30.80
   2  30   0  602.84   20.20
  -3 -30   0 1633.94   54.79
  -3 -30   0 1611.74   52.19
  -3  30   0 1602.24   57.19
  -4 -30   0  538.75   29.00
  -4 -30   0  486.95   15.90
  -4  30   0  476.05   30.80
  -5 -30   0    2.80    5.10
  -5 -30   0    8.50    9.30
  -5  30   0   10.60   11.40
  -6 -30   0  602.54   23.10
  -6 -30   0  536.45   35.70
  -6  30   0  629.24   39.50
  -7 -30   0  221.28   28.50
  -7 -30   0  202.28   17.90
  -7  30   0  214.18   16.00
  -7  30   0  243.18   30.60
  -7  30   0  226.98   13.90
  -8 -30   0   -8.50   16.90
  -8  30   0  -18.90   16.30
  -8  30   0   16.40   11.80
  -8  30   0    2.10    8.20
  -1 -31   0 1198.68   36.70
  -1 -31   0 1290.87   36.20
   1  31   0 1237.78   36.90
  -1  31   0 1311.47   44.90
  -2 -31   0  144.89   12.90
  -2 -31   0  190.88   16.00
   2  31   0  147.19    9.60
  -2  31   0  148.99   16.00
  -3 -31   0   77.59   12.50
  -3 -31   0   95.39   14.40
  -3  31   0   94.09   15.30
  -4 -31   0  583.84   30.80
  -4 -31   0  572.94   16.40
  -4  31   0  597.14   34.40
  -5 -31   0 1060.89   46.40
  -5 -31   0 1058.49   28.70
  -5  31   0 1146.39   51.89
  -6 -31   0   12.10   11.20
  -6 -31   0   23.90    7.30
  -6  31   0   16.70   12.30
  -7 -31   0  142.79   22.80
  -7 -31   0  132.99   14.20
  -7  31   0  181.18   13.10
  -7  31   0  177.88   11.60
  -7  31   0  256.97   29.80
  -8 -31   0  402.66   36.90
  -8  31   0  378.66   24.10
  -8  31   0  470.65   42.00
  -8  31   0  394.66   21.20
   0  32   0  215.98   15.20
  -1 -32   0  125.59   11.00
  -1 -32   0  101.59    9.30
  -1  32   0  130.79   13.70
   1  32   0  114.59   10.30
  -2 -32   0    2.60    7.80
  -2 -32   0    2.20    5.40
  -2  32   0    7.00    7.90
   2  32   0    3.80    4.10
  -3 -32   0  141.39   14.50
  -3 -32   0  132.09   19.10
  -3  32   0  108.69   17.30
  -4 -32   0   20.10    9.90
  -4  32   0    9.00    9.70
  -5 -32   0    5.80   10.20
  -5  32   0    6.20    9.80
  -6 -32   0    4.40    5.90
  -6 -32   0   -9.00   11.40
  -6  32   0   -7.20   11.50
  -7 -32   0  -11.20    8.50
  -7 -32   0   16.50   15.60
  -7  32   0   14.20   15.30
  -8 -32   0    5.30   17.60
  -8  32   0    1.10    7.70
  -8  32   0    5.80   18.00
  -8  32   0    7.80   10.30
   0  33   0   -4.80    5.80
  -1 -33   0 1047.30   31.30
  -1 -33   0  989.00   31.90
   1  33   0 1087.59   33.30
  -1  33   0 1057.99   40.20
  -2 -33   0  833.52   30.90
  -2 -33   0  806.72   32.60
   2  33   0  834.82   24.80
  -2  33   0  767.72   36.60
  -3 -33   0    9.40    7.50
  -3  33   0    1.80    8.80
  -4 -33   0  585.14   31.10
  -4  33   0  530.45   33.60
  -5 -33   0  595.64   33.90
  -5  33   0  530.75   36.30
  -6 -33   0  100.39   19.80
  -6  33   0   82.29   18.70
  -7 -33   0  187.18   26.10
  -7  33   0  215.48   30.30
  -8 -33   0  414.56   39.90
  -8  33   0  432.86   19.80
  -8  33   0  450.65   40.20
  -8  33   0  461.55   18.30
   0  34   0  298.27   18.60
  -1 -34   0   35.60    6.50
  -1 -34   0   50.29    8.10
   1  34   0   36.40    7.30
  -1  34   0   29.40   10.10
  -2 -34   0  329.97   18.70
  -2 -34   0  329.07   21.40
  -2  34   0  387.36   25.30
   2  34   0  311.07   13.80
  -3 -34   0  469.65   25.70
  -3  34   0  478.65   30.20
  -4 -34   0  138.89   18.40
  -4  34   0  151.98   21.30
  -5 -34   0   51.39   14.00
  -5  34   0   54.09   16.00
  -6 -34   0  281.87   27.00
  -6  34   0  238.18   30.10
  -7 -34   0  159.68   25.90
  -7  34   0  115.29   24.90
   0  35   0   -2.00    6.10
  -1 -35   0   93.09    9.50
  -1 -35   0  119.89   11.20
   1  35   0   92.69   10.40
  -1  35   0  110.59   14.80
  -2 -35   0  168.18   16.90
  -2 -35   0  139.29   13.50
   2  35   0  176.08   10.10
  -2  35   0  189.38   18.60
  -3 -35   0   49.90   11.40
  -3  35   0   48.30   13.40
  -4 -35   0  105.49   16.60
  -4  35   0  113.59   20.40
  -5 -35   0   57.89   15.20
  -5  35   0   76.79   17.00
  -6 -35   0  -11.50   12.70
  -6  35   0    1.20   15.30
  -7 -35   0    5.20   16.40
  -7  35   0   -1.00   17.40
   0  36   0  443.96   22.70
  -1 -36   0   86.59    8.80
  -1 -36   0  106.79   10.80
  -1  36   0   87.09   13.50
   1  36   0   92.39   10.80
  -2 -36   0  188.78   18.40
  -2 -36   0  191.68   15.10
  -2  36   0  260.47   22.10
   2  36   0  203.68   10.90
  -3 -36   0  905.51   36.60
  -3  36   0  880.71   42.70
  -4 -36   0  333.37   25.40
  -4  36   0  324.77   28.50
  -5 -36   0   49.50   14.50
  -5  36   0   19.00   14.50
  -6 -36   0  363.96   31.40
  -6  36   0  368.26   34.40
  -7 -36   0  288.17   33.40
  -7  36   0  320.47   37.50
   0  37   0    8.30    7.30
  -1 -37   0   30.10    6.20
  -1 -37   0   20.00    6.70
  -1  37   0   22.90    9.90
   1  37   0   21.40    7.30
  -2 -37   0  115.49   14.60
  -2  37   0  118.29   17.40
   2  37   0  128.39    8.80
  -3 -37   0   -9.20    7.90
  -3  37   0  -10.10    9.70
  -4 -37   0  100.99   16.80
  -4  37   0  124.69   21.10
  -5 -37   0  150.28   21.50
  -5  37   0  159.38   24.80
  -6 -37   0   16.10   15.70
  -6  37   0    9.40   16.90
  -7 -37   0  119.89   24.80
  -7  37   0   87.69   24.20
   0  38   0  191.88   16.90
  -1 -38   0   36.30    6.40
  -1 -38   0   28.00    7.10
  -1  38   0   35.80   10.80
   1  38   0   31.60    7.50
  -2 -38   0   24.70   10.30
   2  38   0   -1.50    4.40
  -2  38   0    1.60   10.10
  -3 -38   0  277.67   20.90
  -3  38   0  244.68   24.50
  -4 -38   0  136.29   18.40
  -4  38   0  124.59   21.10
  -5 -38   0   26.30   13.60
  -5  38   0   14.20   14.60
  -6 -38   0   89.19   20.80
  -6  38   0   72.39   19.00
   0  39   0    8.10    8.10
  -1 -39   0  296.77   14.70
  -1 -39   0  324.27   13.90
   1  39   0  358.96   18.20
  -1  39   0  341.27   23.40
  -2 -39   0  500.35   31.50
  -2  39   0  474.05   30.20
  -3 -39   0   12.10    9.40
  -3  39   0   11.10   11.70
  -4 -39   0  301.47   25.00
  -4  39   0  274.27   28.20
  -5 -39   0  488.35   33.70
  -5  39   0  464.25   37.40
  -6 -39   0    2.20   17.20
  -6  39   0    9.90   18.10
   0  40   0   11.90    8.10
  -1 -40   0   12.80    5.10
  -1 -40   0   15.50    5.80
   1  40   0    9.80    7.40
  -1  40   0   13.30   10.00
  -2 -40   0   46.20    9.60
  -2  40   0   43.40   14.10
  -3 -40   0   66.99   13.20
  -3  40   0   56.49   16.00
  -4 -40   0   63.59   15.20
  -4  40   0   60.79   18.10
  -5 -40   0   -8.30   14.30
  -5  40   0   16.40   16.90
  -6 -40   0   89.99   21.60
  -6  40   0  129.69   26.60
   0  41   0    8.50    8.40
  -1  41   0   98.99   15.80
   1  41   0   97.09   11.50
  -2 -41   0  139.69   14.40
  -2  41   0  136.89   20.10
  -3 -41   0   16.00   10.00
  -3  41   0   11.90   14.20
  -4 -41   0  116.89   18.70
  -4  41   0  135.39   23.10
  -5 -41   0  153.48   23.00
  -5  41   0  131.99   25.70
   0  42   0  161.38   16.50
  -1  42   0   23.80   11.70
   1  42   0   26.90    8.70
  -2 -42   0   36.10    9.30
  -2  42   0   92.59   17.60
  -4  42   0  220.38   28.90
  -5 -42   0  -18.00   14.80
  -5  42   0   47.10   19.70
   0  43   0    3.00    9.60
  -1  43   0    6.90   11.70
   1  43   0    9.40    7.90
  -2 -43   0    2.00    8.40
  -2  43   0   43.50   15.00
  -3 -43   0    6.00   11.00
  -3  43   0   10.70   14.60
  -4 -43   0   -0.30   12.70
  -4  43   0   28.50   17.10
   0  44   0  424.56   24.50
  -1  44   0   59.19   14.50
   1  44   0   70.99   10.10
  -2 -44   0   -6.30    8.50
  -2  44   0   62.79   17.00
  -3  44   0  203.78   26.10
  -4 -44   0    6.40   14.20
  -4  44   0   98.99   22.20
   0  45   0   15.80   11.10
   1  45   0  230.98   15.00
  -1  45   0  204.08   22.80
  -3  45   0   12.90   16.60
   0  46   0   -0.70   11.40
   1  46   0   15.30    7.80
  -1  46   0    9.40   13.60
  -2  46   0   25.10   15.70
  -3  46   0  -16.30   16.40
   0  47   0    0.60   11.60
  -1  47   0  211.18   23.60
  -2  47   0  346.47   31.00
   0  48   0  161.38   18.00
 -11   0   1   -6.20   16.60
 -11   0   1   -8.20   15.40
 -10   0   1    8.30   12.90
 -10   0   1   16.60   12.30
  -9   0   1   14.00   11.30
  -8   0   1   24.40   10.90
  -8   0   1    4.90   13.70
  -7   0   1   -9.30    9.50
  -7   0   1   -4.40    6.00
   7   0  -1    3.10   11.30
  -6   0   1   -5.40    4.50
   6   0  -1    4.70    8.40
   5   0  -1   15.60    6.70
  -5   0   1   14.00    5.50
   4   0  -1   15.10    5.60
  -4   0   1   37.00    6.80
  -3   0   1    2.70    2.40
   3   0  -1    7.90    3.70
  -2   0   1    0.90    1.60
   2   0  -1    0.80    1.60
  -2   0   1    2.30    1.80
   1   0  -1    3.60    1.30
  -1   0   1    1.70    1.10
  -1   0   1    0.60    0.90
   1   0  -1    0.60    0.90
   0   0  -1    2.20    1.00
   0   0   1    1.80    0.90
   0   0  -1    3.30    1.10
   0   0   1    0.40    0.60
  -1   0  -1    1.20    1.50
   1   0   1   -0.20    1.10
  -1   0  -1    3.80    1.90
   1   0   1    0.90    1.20
  -2   0  -1    0.80    2.10
   2   0   1    1.00    2.00
  -2   0  -1    2.10    2.10
  -3   0  -1   -2.00    3.50
  -3   0  -1    2.00    3.10
  -4   0  -1    2.00    4.60
  -4   0  -1    4.40    3.80
  -5   0  -1    7.50    5.50
  -5   0  -1   -6.10    6.30
  -6   0  -1    5.60    9.60
  -6   0  -1   -3.10    5.70
  -7   0  -1   11.20   12.80
  -7   0  -1   -1.40    8.50
  -7   0  -1   -9.80   10.20
  -8   0  -1  -16.80   14.90
  -8   0  -1    5.00    9.60
  -9   0  -1   -8.20   11.70
 -10   0  -1    1.50   14.20
 -11  -1   1  270.47   34.30
 -11  -1   1  419.36   37.50
 -11   1   1  337.97   33.80
 -11   1   1  341.87   33.60
 -10  -1   1  310.37   28.80
 -10   1   1  292.57   30.20
 -10   1   1  282.27   30.20
  -9  -1   1   -2.70    9.20
  -9   1   1   14.50   10.00
  -8  -1   1 1108.29   49.00
  -8  -1   1 1126.19   54.19
  -8   1   1 1201.98   50.29
  -8   1   1 1078.89   52.49
  -7  -1   1  623.04   33.30
   7  -1  -1  677.63   39.70
  -7  -1   1  656.83   37.50
  -7   1   1  700.13   34.60
  -7   1   1  753.72   38.10
   7   1  -1  742.63   41.50
  -6  -1   1   38.80    9.00
   6  -1  -1   49.70   12.00
  -6   1   1   32.30    8.30
   6   1  -1   25.60   10.20
  -5  -1   1 2106.29   61.59
   5  -1  -1 2052.19   63.99
  -5   1   1 1995.00   59.99
   5   1  -1 2112.79   64.99
  -4  -1   1 5451.45  127.29
   4  -1  -1 5635.14  130.09
   4   1  -1 5355.96  129.89
  -4   1   1 5546.25  126.99
  -3  -1   1 1950.20   52.19
   3  -1  -1 2054.39   53.69
   3   1  -1 1995.20   53.99
  -3   1   1 2013.60   51.99
  -2  -1   1  350.16   12.70
   2  -1  -1  345.97   13.60
  -2   1   1  334.17   13.20
  -2   1   1  338.57   13.30
   2   1  -1  339.87   14.00
   0  -1   1  123.29    5.70
   0  -1  -1  162.08    6.50
   0  -1   1  149.09    6.10
   0   1  -1  145.89    6.00
   0   1  -1  164.68    6.40
  -1  -1  -1 1308.17   33.70
  -1  -1  -1 1298.87   33.30
   1  -1   1 1327.07   33.30
   1   1   1 1307.27   33.30
   1   1   1 1304.77   33.70
  -1   1  -1 1297.37   33.40
  -1   1  -1 1279.17   33.00
  -2  -1  -1  110.19    8.40
  -2  -1  -1  109.09    8.20
   2  -1   1  126.89    8.60
   2   1   1  121.19    8.60
  -2   1  -1  108.49    8.20
  -3  -1  -1  666.33   25.50
  -3  -1  -1  640.64   25.80
  -3  -1  -1  618.04   25.60
  -3   1  -1  635.54   25.30
  -3   1  -1  560.14   24.30
  -4  -1  -1  201.18   15.30
  -4  -1  -1  225.28   16.80
  -4   1  -1  234.28   16.40
  -4   1  -1  190.08   15.20
  -5  -1  -1 1745.93   58.59
  -5  -1  -1 1781.42   58.59
  -5   1  -1 1772.42   57.89
  -5   1  -1 1691.43   57.59
  -6  -1  -1  660.23   34.80
  -6  -1  -1  543.95   32.20
  -6  -1  -1  569.04   31.60
  -6   1  -1  558.54   32.40
  -6   1  -1  573.34   31.70
  -7  -1  -1  107.59   19.00
  -7  -1  -1  104.09   16.70
  -7  -1  -1  115.29   19.80
  -7   1  -1  102.19   18.70
  -7   1  -1   93.69   16.40
  -8  -1  -1 1017.10   49.80
  -8   1  -1 1000.40   48.20
  -8   1  -1  948.41   52.79
  -9  -1  -1  429.16   34.00
  -9   1  -1  357.36   31.20
 -10  -1  -1   12.90   15.90
 -10   1  -1   18.90   16.60
 -11  -2   1   -0.20   15.30
 -11  -2   1   15.10   16.40
 -11   2   1   25.50   19.20
 -11   2   1   -2.90   16.00
 -10  -2   1  162.48   24.70
 -10   2   1  153.88   23.50
 -10   2   1  123.79   22.00
  -9  -2   1  622.94   39.10
  -9   2   1  579.44   36.60
  -8  -2   1  193.98   21.60
  -8  -2   1  184.48   26.90
  -8   2   1  197.48   19.70
  -8   2   1  215.68   27.30
   7  -2  -1  207.28   24.00
  -7  -2   1  282.07   24.70
  -7  -2   1  193.48   18.60
   7   2  -1  208.28   24.80
  -7   2   1  209.28   20.90
  -7   2   1  239.38   19.90
  -6  -2   1 1191.18   45.00
   6  -2  -1 1169.88   48.00
  -6   2   1 1153.08   43.50
   6   2  -1 1166.08   48.40
  -5  -2   1  327.27   20.00
   5  -2  -1  392.26   23.20
  -5   2   1  315.57   19.00
   5   2  -1  352.26   23.30
  -4  -2   1   55.69    9.00
   4  -2  -1   47.40    8.20
   4   2  -1   43.90    8.70
  -4   2   1   70.99    8.30
   3  -2  -1 2928.81   70.89
  -3  -2   1 2843.22   70.29
  -3   2   1 2789.62   68.99
   3   2  -1 2879.71   71.99
  -2  -2   1 2129.69   50.89
  -2  -2   1 2132.49   48.60
   2  -2  -1 2095.29   50.09
  -2   2   1 2051.79   49.70
  -2   2   1 2023.50   50.29
   2   2  -1 2053.49   51.09
   1  -2  -1    8.60    2.00
  -1  -2   1    6.30    1.40
  -1  -2   1    5.70    1.60
   1  -2  -1    8.40    1.80
   1   2  -1    4.50    1.30
  -1   2   1    7.50    1.80
  -1   2   1    5.70    1.50
   1   2  -1    3.00    1.40
  -1  -2  -1 1614.24   38.80
  -1  -2  -1 1533.85   39.20
   1  -2   1 1549.14   38.30
   1   2   1 1536.65   38.50
  -1   2  -1 1564.14   38.30
  -1   2  -1 1565.54   39.10
   1   2   1 1611.74   39.60
   2  -2   1  247.68   12.40
  -2  -2  -1  245.68   13.00
  -2  -2  -1  229.78   12.00
   2   2   1  245.38   12.80
  -2   2  -1  229.88   12.00
  -3  -2  -1  962.80   34.20
  -3  -2  -1  963.80   33.80
  -3  -2  -1 1013.10   33.20
  -3   2  -1  964.30   33.00
  -3   2  -1  960.40   33.30
  -4  -2  -1 2708.03   75.69
  -4  -2  -1 2763.92   74.09
  -4  -2  -1 2687.93   75.49
  -4   2  -1 2851.81   75.49
  -4   2  -1 2597.84   73.69
  -5  -2  -1   82.59   13.70
  -5  -2  -1   76.29   13.10
  -5  -2  -1   69.39   12.10
  -5   2  -1   80.69   13.20
  -5   2  -1   55.79   10.40
  -6  -2  -1  600.64   34.90
  -6  -2  -1  628.24   33.60
  -6  -2  -1  587.14   31.90
  -6   2  -1  615.54   34.40
  -6   2  -1  594.84   31.80
  -7  -2  -1  763.32   43.40
  -7  -2  -1  791.02   41.40
  -7  -2  -1  746.33   39.50
  -7   2  -1  787.52   42.80
  -7   2  -1  697.23   38.30
  -8  -2  -1  100.39   18.60
  -8   2  -1   92.09   16.50
  -8   2  -1  104.89   21.20
  -9  -2  -1  210.18   27.60
  -9   2  -1  245.88   27.30
 -10  -2  -1  390.86   37.10
 -11  -3   1   39.90   17.80
 -11  -3   1   65.69   20.30
 -11   3   1   52.59   18.40
 -11   3   1   65.19   19.70
 -10  -3   1   -1.90   12.40
 -10   3   1  -11.80   13.10
 -10   3   1   -5.60   10.20
  -9  -3   1   10.00   10.30
  -9   3   1   13.00   18.00
  -9   3   1   20.20   11.90
  -8  -3   1   43.80   12.20
  -8  -3   1   19.50   16.90
  -8   3   1   20.80   13.90
  -8   3   1   46.10   11.90
  -7  -3   1    7.30    6.30
  -7  -3   1    9.80   11.00
   7  -3  -1    6.80   11.00
  -7   3   1   12.10    6.70
  -7   3   1    6.20   10.20
   7   3  -1    1.10   10.60
   6  -3  -1   70.49   13.90
  -6  -3   1   75.49   12.80
   6   3  -1   73.29   14.60
  -6   3   1   57.29   10.20
   5  -3  -1  115.89   13.60
  -5  -3   1  113.19   12.70
   5   3  -1  123.19   14.00
  -5   3   1   97.19   10.90
   4  -3  -1  609.44   25.80
  -4  -3   1  578.84   25.00
  -4   3   1  558.14   23.40
   4   3  -1  619.24   27.30
  -3  -3   1 1128.69   34.50
   3  -3  -1 1086.49   33.60
  -3   3   1 1134.59   33.10
   3   3  -1 1063.89   34.90
   2  -3  -1  306.17   12.80
  -2  -3   1  348.17   12.10
  -2  -3   1  373.66   14.40
   2   3  -1  365.66   14.70
  -2   3   1  342.27   14.00
  -2   3   1  331.57   12.90
  -1  -3   1  120.79    4.80
   1  -3  -1  121.79    6.50
  -1  -3   1  119.39    6.30
   1  -3  -1  116.99    5.70
   1   3  -1  127.59    4.90
  -1   3   1  107.79    6.30
  -1   3   1  112.79    5.60
   1   3  -1  122.29    6.40
   0  -3  -1  200.48    7.80
   0  -3   1  180.28    6.80
   0  -3   1  184.88    7.00
   0  -3  -1  198.68    7.60
   0   3  -1  182.78    7.00
   0   3   1  208.48    7.90
   0   3  -1  183.98    6.80
   0   3   1  194.98    7.90
  -1  -3  -1 1180.78   31.20
   1  -3   1 1162.98   29.60
  -1  -3  -1 1145.19   29.90
   1   3   1 1124.29   30.00
  -1   3  -1 1111.79   29.20
   1   3   1 1157.78   31.00
  -2  -3  -1   14.80    4.00
   2  -3   1   25.80    4.50
  -2  -3  -1   27.70    5.00
   2   3   1   19.30    4.30
  -2   3  -1   24.90    4.80
  -3  -3  -1  186.38   13.20
  -3  -3  -1  169.98   12.10
  -3  -3  -1  143.89   11.80
  -3   3  -1  150.18   11.40
  -3   3  -1  141.09   11.00
  -4  -3  -1   68.19   11.50
  -4  -3  -1   45.50    9.00
  -4  -3  -1   60.39    9.80
  -4   3  -1   67.89   10.60
  -4   3  -1   41.20    7.80
  -5  -3  -1   25.00    7.60
  -5  -3  -1   21.00    8.40
  -5  -3  -1   21.50    8.40
  -5   3  -1   32.30    8.80
  -5   3  -1   21.90    8.50
  -6  -3  -1   82.69   14.60
  -6  -3  -1   85.89   15.20
  -6  -3  -1   84.99   15.70
  -6   3  -1   86.79   13.80
  -6   3  -1   81.59   16.30
  -7  -3  -1   -5.30   11.50
  -7  -3  -1    4.40    7.80
  -7  -3  -1    6.50   11.10
  -7   3  -1    0.30    8.20
  -7   3  -1    0.40   10.80
  -8  -3  -1   76.09   16.80
  -8   3  -1   77.39   21.40
  -8   3  -1  112.69   18.70
  -9  -3  -1  142.39   24.70
  -9   3  -1  129.29   21.60
 -10  -3  -1   -0.10   13.70
 -10   3  -1    9.60   14.70
 -11  -4   1   31.50   18.60
 -11  -4   1   19.10   17.00
 -11   4   1   25.50   16.90
 -11   4   1   53.79   20.80
 -10  -4   1  303.07   30.10
 -10   4   1  316.87   30.10
 -10   4   1  292.17   29.50
  -9  -4   1  976.30   49.80
  -9   4   1  954.20   54.49
  -9   4   1 1034.60   49.00
  -8  -4   1  558.04   34.20
  -8  -4   1  450.45   36.80
  -8   4   1  503.65   36.40
  -8   4   1  594.74   33.30
   7  -4  -1  360.06   28.20
  -7  -4   1  423.56   27.20
  -7  -4   1  357.86   27.30
  -7   4   1  402.96   24.90
   7   4  -1  389.56   30.50
  -7   4   1  367.66   26.70
  -6  -4   1 1689.63   57.49
   6  -4  -1 1692.43   59.19
   6   4  -1 1744.93   62.09
  -6   4   1 1654.13   54.59
  -5  -4   1 1256.97   44.30
   5  -4  -1 1235.28   45.00
   5   4  -1 1252.77   47.40
  -5   4   1 1260.47   42.00
   4  -4  -1  192.48   14.20
  -4  -4   1  238.58   15.10
  -4   4   1  205.98   13.10
   4   4  -1  232.58   16.30
   3  -4  -1 4359.76  101.89
  -3  -4   1 4497.85  103.29
  -3   4   1 4379.96  100.59
   3   4  -1 4596.74  105.39
   2  -4  -1 3907.91   86.79
  -2  -4   1 3908.21   88.49
  -2   4   1 3968.80   88.99
   2   4  -1 3828.22   88.89
  -2   4   1 4060.69   86.69
  -1  -4   1    4.60    1.50
   1  -4  -1    3.80    1.70
   1  -4  -1    4.90    1.40
  -1  -4   1    9.80    1.40
   1   4  -1    9.80    2.30
   1   4  -1    9.00    1.40
  -1   4   1    9.50    1.90
  -1   4   1    6.00    2.00
  -1  -4  -1 4072.89   90.39
   1  -4   1 4221.08   89.79
  -1  -4  -1 4166.28   91.99
   1   4   1 4208.48   92.09
  -1   4  -1 4076.99   89.29
   1   4   1 4171.28   90.69
  -2  -4  -1    1.40    2.00
  -2  -4  -1    4.30    2.90
   2  -4   1    0.60    1.70
   2   4   1    3.30    3.00
  -2   4  -1    2.80    2.20
  -3  -4  -1 2492.05   67.79
  -3  -4  -1 2509.75   67.39
  -3  -4  -1 2517.75   64.79
  -3   4  -1 2450.65   64.59
  -3   4  -1 2515.75   65.39
  -4  -4  -1 2425.56   69.49
  -4  -4  -1 2391.86   69.19
  -4  -4  -1 2488.55   67.09
  -4   4  -1 2095.49   64.69
  -4   4  -1 2486.25   67.49
  -5  -4  -1   83.19   13.20
  -5  -4  -1   83.69   13.20
  -5  -4  -1   63.79   11.40
  -5   4  -1   64.29   11.30
  -5   4  -1   93.99   14.00
  -6  -4  -1 1213.58   48.60
  -6  -4  -1 1224.18   50.99
  -6  -4  -1 1206.98   49.40
  -6   4  -1 1204.78   47.70
  -6   4  -1 1211.08   49.30
  -7  -4  -1  997.10   47.20
  -7  -4  -1  993.90   49.60
  -7  -4  -1 1102.49   49.10
  -7   4  -1  959.60   44.40
  -7   4  -1  970.00   46.90
  -8  -4  -1  123.19   21.40
  -8   4  -1  134.89   19.80
  -8   4  -1  110.99   22.30
  -9  -4  -1  331.27   32.60
  -9   4  -1  342.27   29.20
 -10  -4  -1  522.15   40.50
 -10   4  -1  457.05   39.10
 -11  -5   1  173.18   27.00
 -11  -5   1  189.88   28.70
 -11   5   1  214.58   30.20
 -11   5   1  153.58   24.60
 -10  -5   1  140.99   24.60
 -10   5   1  169.28   26.80
 -10   5   1  161.08   25.50
  -9  -5   1   14.40   11.20
  -9   5   1   -7.30   15.30
  -9   5   1    4.10   10.20
  -8  -5   1  312.47   26.80
  -8   5   1  347.97   25.30
  -8   5   1  362.76   29.90
  -7  -5   1  323.97   26.40
  -7  -5   1  320.77   23.60
   7  -5  -1  274.07   26.30
  -7   5   1  310.67   22.50
  -7   5   1  289.07   25.20
   7   5  -1  310.07   29.30
  -6  -5   1    2.40    5.80
   6  -5  -1   38.80   10.10
   6   5  -1   13.40    9.10
  -6   5   1   42.00    9.00
  -5  -5   1 1246.68   45.20
   5  -5  -1 1343.77   46.60
   5   5  -1 1284.27   48.40
  -5   5   1 1375.06   43.80
  -4  -5   1 1927.01   55.79
   4  -5  -1 1888.01   54.69
   4   5  -1 1966.30   58.39
  -4   5   1 1891.21   52.69
   3  -5  -1 2073.19   54.59
  -3  -5   1 2174.58   56.49
   3   5  -1 2192.88   58.19
  -3   5   1 2094.39   53.49
  -2  -5   1   47.50    5.00
   2  -5  -1   53.29    4.80
  -2   5   1   53.99    4.60
   2   5  -1   50.79    5.50
  -2   5   1   57.19    5.90
  -1  -5   1   94.49    5.60
   1  -5  -1   95.99    6.10
  -1  -5   1   91.19    3.40
   1  -5  -1   92.99    4.80
   1   5  -1   79.19    3.30
  -1   5   1   76.29    4.40
  -1   5   1   89.69    6.20
   1   5  -1   74.49    5.10
   0  -5  -1 1290.77   31.10
   0  -5   1 1128.99   28.60
   0  -5  -1 1274.17   30.40
   0   5  -1 1283.07   28.90
   0   5  -1 1293.07   29.50
   0   5   1 1277.47   30.60
   0   5   1 1235.78   31.00
   1  -5   1 2042.70   47.30
  -1  -5  -1 2070.99   48.50
  -1  -5  -1 2019.70   49.90
   1   5   1 2043.60   49.99
   1   5   1 2070.39   48.60
   2  -5   1 2400.96   58.09
  -2  -5  -1 2381.16   61.19
  -2  -5  -1 2425.06   58.89
   2   5   1 2354.66   58.39
   2   5   1 2388.46   60.99
  -2   5  -1 2459.65   58.49
  -3  -5  -1  895.81   34.00
  -3  -5  -1 1011.10   35.10
  -3  -5  -1  952.20   32.10
  -3   5  -1 1011.10   32.90
  -3   5  -1  980.10   32.40
  -4  -5  -1 1050.39   37.00
  -4  -5  -1  993.50   39.10
  -4  -5  -1 1072.09   40.00
  -4   5  -1 1056.39   37.80
  -4   5  -1 1039.80   37.30
  -5  -5  -1 1637.54   53.09
  -5  -5  -1 1585.34   55.19
  -5  -5  -1 1521.35   55.09
  -5   5  -1 1533.35   52.79
  -5   5  -1 1540.55   51.99
  -6  -5  -1  234.68   22.10
  -6  -5  -1  188.48   18.90
  -6  -5  -1  212.28   19.30
  -6   5  -1  227.88   21.50
  -6   5  -1  196.08   18.40
  -7  -5  -1   37.40   12.40
  -7  -5  -1   53.89   14.60
  -7  -5  -1   50.19   16.30
  -7   5  -1   28.10   13.50
  -7   5  -1   58.49   12.80
  -8  -5  -1  237.58   27.20
  -8   5  -1  299.57   25.70
  -8   5  -1  308.07   29.40
  -9  -5  -1  315.07   30.80
  -9   5  -1  283.67   29.00
 -10  -5  -1   10.30   17.60
 -10   5  -1  -13.60   14.40
 -11  -6   1   -1.30   15.60
 -11  -6   1    6.40   16.80
 -11   6   1   35.90   19.30
 -11   6   1   12.20   15.30
 -10  -6   1  113.59   22.00
 -10   6   1  150.98   23.50
 -10   6   1  158.58   24.40
  -9  -6   1  202.88   23.80
  -9   6   1  201.18   29.10
  -9   6   1  231.08   24.00
  -8  -6   1   65.39   14.80
  -8   6   1   55.59   16.90
  -8   6   1   68.29   14.20
  -7  -6   1   44.10   13.10
   7  -6  -1   59.19   14.10
  -7  -6   1   56.59   12.50
   7   6  -1   56.19   16.00
  -7   6   1   71.09   15.40
  -7   6   1   91.09   14.70
  -6  -6   1 1118.29   44.30
   6  -6  -1 1075.29   44.60
   6   6  -1 1073.99   47.40
  -6   6   1 1104.19   41.00
  -5  -6   1  587.14   28.60
   5  -6  -1  634.74   29.00
   5   6  -1  567.64   30.10
  -5   6   1  580.24   25.80
   4  -6  -1  164.28   12.50
  -4  -6   1  214.68   14.70
  -4   6   1  166.58   11.80
   4   6  -1  184.98   15.10
   3  -6  -1 1047.70   32.20
  -3  -6   1 1112.49   34.40
   3   6  -1 1043.50   35.10
  -3   6   1 1055.79   34.10
  -3   6   1 1077.89   31.40
   2  -6  -1  962.20   27.60
  -2  -6   1 1063.69   30.40
  -2   6   1 1058.29   27.90
   2   6  -1 1092.09   31.30
  -2   6   1 1041.50   31.10
   1  -6  -1  121.99    5.60
  -1  -6   1  116.79    6.40
   1  -6  -1  121.29    7.30
   1   6  -1  121.29    3.80
  -1   6   1  139.09    8.00
   1   6  -1  114.29    6.40
  -1   6   1  123.29    5.60
   0  -6  -1  929.51   24.30
   0  -6  -1  901.11   23.40
   0   6  -1  872.91   21.80
   0   6   1  906.71   23.60
   0   6  -1  909.81   22.60
   0   6   1  928.01   24.50
  -1  -6  -1   69.29    5.30
  -1  -6  -1   71.99    6.00
   1  -6   1   65.69    4.60
   1   6   1   71.89    5.90
   1   6   1   60.79    5.10
  -1   6  -1   61.79    4.40
  -2  -6  -1  176.48   11.50
   2  -6   1  201.18   10.40
  -2  -6  -1  176.18   10.10
  -2   6  -1  196.28   10.30
   2   6   1  182.88   11.60
   2   6   1  174.28   10.20
  -3  -6  -1  476.85   22.30
  -3  -6  -1  428.46   21.20
  -3  -6  -1  431.66   19.40
  -3   6  -1  417.36   19.10
  -3   6  -1  394.36   18.50
  -4  -6  -1  970.00   38.60
  -4  -6  -1  984.60   35.90
  -4  -6  -1 1015.20   39.20
  -4   6  -1  975.40   35.90
  -4   6  -1 1069.99   37.00
  -5  -6  -1   86.39   14.10
  -5  -6  -1  107.89   15.40
  -5  -6  -1   83.39   13.80
  -5   6  -1   78.29   11.80
  -5   6  -1   59.59   11.40
  -6  -6  -1   39.90   11.60
  -6  -6  -1   53.09   12.10
  -6  -6  -1   19.00   10.40
  -6   6  -1   62.59   13.80
  -6   6  -1   51.99   11.60
  -7  -6  -1  250.17   24.80
  -7  -6  -1  292.27   25.80
  -7  -6  -1  244.08   26.70
  -7   6  -1  237.28   21.20
  -7   6  -1  224.98   24.60
  -8  -6  -1  150.18   23.90
  -8   6  -1   97.39   19.60
  -8   6  -1  141.69   20.40
  -9  -6  -1   68.79   18.30
  -9   6  -1   76.39   18.20
 -10  -6  -1   75.79   21.50
 -10   6  -1   65.69   19.00
 -11  -7   1  432.76   37.00
 -11  -7   1  495.05   42.60
 -11   7   1  392.66   37.80
 -11   7   1  393.26   34.10
 -10  -7   1  568.74   40.30
 -10   7   1  481.75   36.50
 -10   7   1  462.35   36.50
  -9  -7   1   19.20   11.90
  -9   7   1    8.00   10.00
  -9   7   1   16.80   12.10
  -9   7   1    7.30   18.90
  -8  -7   1 1384.16   57.69
  -8   7   1 1479.15   55.79
  -8   7   1 1429.36   60.09
  -7  -7   1  997.00   48.00
   7  -7  -1  956.10   46.30
  -7  -7   1 1037.10   45.20
  -7   7   1 1005.40   44.30
   7   7  -1 1027.30   51.59
  -7   7   1 1005.10   41.50
  -6  -7   1    4.90    6.30
   6  -7  -1    6.10    7.90
  -6   7   1   14.80    6.20
   6   7  -1   -7.70    9.10
   5  -7  -1 2288.87   67.39
  -5  -7   1 2303.87   68.29
  -5   7   1 2346.37   64.49
   5   7  -1 2301.97   71.39
  -4  -7   1 4639.54  113.19
   4  -7  -1 4745.02  111.49
   4   7  -1 4772.62  116.59
  -4   7   1 4609.44  108.39
   3  -7  -1   93.19    7.90
  -3  -7   1   62.39    7.30
   3   7  -1   74.49    8.80
  -3   7   1   77.39    6.80
  -3   7   1   82.89    8.30
   2  -7  -1 1801.52   43.50
  -2  -7   1 1793.92   46.40
   2   7  -1 1872.61   47.70
  -2   7   1 1752.92   43.10
  -2   7   1 1861.51   48.20
   1  -7  -1 4851.61  103.39
   1  -7  -1 4800.72   98.29
  -1  -7   1 4562.04  100.59
   1   7  -1 4577.04  100.79
  -1   7   1 4602.14  103.29
  -1   7   1 4821.62   98.39
   0  -7  -1 1626.54   38.10
   0  -7  -1 1653.33   39.40
   0   7   1 1617.84   39.30
   0   7  -1 1591.64   36.20
   0   7   1 1592.34   38.20
  -1  -7  -1 1912.31   48.10
  -1  -7  -1 1903.81   46.30
   1   7   1 1961.40   46.60
  -1   7  -1 2010.80   44.30
   1   7   1 1881.41   48.00
  -2  -7  -1 5136.89  116.79
   2  -7   1 5068.09  111.79
  -2  -7  -1 5095.19  112.89
   2   7   1 5116.39  112.99
   2   7   1 5108.49  116.29
  -2   7  -1 5139.19  111.99
  -3  -7  -1 1997.90   58.19
  -3  -7  -1 2012.20   57.99
  -3  -7  -1 2043.20   54.49
  -3   7  -1 2009.00   53.99
  -3   7  -1 2022.60   54.29
  -4  -7  -1  728.53   29.30
  -4  -7  -1  722.93   32.30
  -4  -7  -1  759.42   32.80
  -4   7  -1  726.93   29.40
  -4   7  -1  724.73   29.40
  -5  -7  -1 2590.34   74.89
  -5  -7  -1 2675.03   79.39
  -5  -7  -1 2700.93   80.29
  -5   7  -1 2598.64   74.29
  -5   7  -1 2568.94   75.29
  -6  -7  -1 1005.10   45.80
  -6  -7  -1 1001.30   46.60
  -6  -7  -1 1082.89   44.70
  -6   7  -1 1123.59   45.80
  -6   7  -1 1087.09   43.40
  -7  -7  -1  126.59   21.90
  -7  -7  -1  121.59   20.10
  -7  -7  -1  157.68   22.10
  -7   7  -1  137.09   19.80
  -7   7  -1  121.59   16.90
  -8  -7  -1 1317.97   59.99
  -8   7  -1 1390.56   56.89
  -8   7  -1 1310.07   59.09
  -9  -7  -1  605.94   41.60
  -9   7  -1  652.53   48.80
  -9   7  -1  731.23   42.10
 -10  -7  -1  -21.40   15.90
 -10   7  -1   -6.40   14.10
 -11  -8   1    9.10   17.50
 -11  -8   1   26.30   20.00
 -11   8   1   30.40   15.80
 -11   8   1   17.70   18.50
 -10  -8   1    9.00   13.30
 -10   8   1    0.50   12.70
 -10   8   1  -10.20   10.40
  -9  -8   1   94.29   20.30
  -9   8   1  120.79   24.60
  -9   8   1   98.89   19.50
  -9   8   1  134.49   19.80
  -8  -8   1   90.89   17.60
  -8   8   1   78.39   14.20
  -8   8   1   78.59   19.10
   7  -8  -1  105.09   18.00
  -7  -8   1  122.89   19.20
  -7  -8   1  125.19   18.60
  -7   8   1  133.49   17.20
  -7   8   1  116.29   17.20
   7   8  -1   88.49   19.10
  -6  -8   1  477.05   27.90
   6  -8  -1  535.55   29.80
   6   8  -1  468.15   31.20
  -6   8   1  509.75   25.90
   5  -8  -1    9.60    6.40
  -5  -8   1   14.90    6.30
   5   8  -1    9.70    7.60
  -5   8   1   16.30    6.30
  -4  -8   1  417.46   21.80
   4  -8  -1  432.36   20.80
  -4   8   1  485.65   20.10
   4   8  -1  456.95   24.50
   3  -8  -1 1470.05   40.00
  -3  -8   1 1402.26   42.30
  -3   8   1 1437.06   38.70
  -3   8   1 1435.76   43.10
   3   8  -1 1472.85   44.40
   2  -8  -1  367.26   13.40
  -2  -8   1  420.36   16.40
  -2   8   1  382.26   13.40
  -2   8   1  389.86   17.00
   2   8  -1  411.56   16.90
  -1  -8   1   -0.50    1.30
   1  -8  -1    0.50    1.00
   1  -8  -1    0.30    1.90
  -1   8   1   -2.10    1.70
  -1   8   1    1.90    1.10
   1   8  -1    0.90    1.50
   0  -8  -1  208.48    9.40
   0  -8  -1  206.68    8.60
   0   8   1  221.38    9.70
   0   8  -1  205.18    7.50
   0   8   1  208.48    8.80
  -1  -8  -1  253.77   12.00
  -1  -8  -1  264.07   11.10
  -1   8  -1  270.57    9.50
   1   8   1  275.37   11.40
   1   8   1  257.77   12.10
  -2  -8  -1  407.16   16.60
  -2  -8  -1  421.96   19.10
   2  -8   1  439.56   16.20
  -2   8  -1  468.15   16.50
   2   8   1  418.56   16.70
   2   8   1  430.36   18.90
  -3  -8  -1   99.49    9.20
  -3  -8  -1  121.89   11.60
  -3  -8  -1  111.29   10.90
  -3   8  -1   95.29    8.80
  -3   8  -1   98.29    8.90
  -4  -8  -1  972.40   39.40
  -4  -8  -1  973.70   35.30
  -4  -8  -1 1009.00   39.60
  -4   8  -1 1033.70   36.00
  -4   8  -1 1054.49   36.30
  -5  -8  -1   32.70    9.90
  -5  -8  -1   38.70    9.90
  -5  -8  -1   48.30   10.20
  -5   8  -1   28.90    8.90
  -5   8  -1   32.20    7.70
  -6  -8  -1  487.55   30.10
  -6  -8  -1  479.05   28.70
  -6  -8  -1  483.15   31.30
  -6   8  -1  475.15   28.30
  -6   8  -1  466.85   27.10
  -7  -8  -1  139.19   20.50
  -7  -8  -1   95.69   18.00
  -7   8  -1  111.29   18.20
  -7   8  -1  139.19   16.40
  -8  -8  -1   31.10   15.30
  -8   8  -1    5.50   15.30
  -8   8  -1    4.90    8.80
  -9  -8  -1  114.89   22.00
  -9   8  -1   46.70   23.40
  -9   8  -1  127.19   20.70
 -10  -8  -1  154.98   29.00
 -10   8  -1  144.29   24.30
 -11  -9   1  179.68   27.40
 -11  -9   1  151.58   28.70
 -11   9   1  195.68   28.10
 -11   9   1  175.68   31.50
 -10  -9   1  268.67   29.60
 -10   9   1  251.37   32.40
 -10   9   1  217.98   25.90
  -9  -9   1   -7.10   11.60
  -9   9   1    3.60    9.50
  -9   9   1   14.20   11.80
  -9   9   1    5.80   17.50
  -8  -9   1  544.75   34.40
  -8   9   1  531.15   36.50
  -8   9   1  518.25   30.90
  -7  -9   1  589.84   37.50
  -7  -9   1  579.24   34.10
  -7   9   1  658.53   32.10
  -7   9   1  714.63   35.70
  -6  -9   1  106.09   15.60
   6  -9  -1  140.99   18.40
  -6   9   1  158.88   16.40
  -6   9   1  155.48   14.60
   6   9  -1  146.79   20.80
   5  -9  -1 1099.19   41.00
  -5  -9   1 1263.27   44.60
   5   9  -1 1190.98   46.60
  -5   9   1 1129.59   38.70
   4  -9  -1 1988.10   55.99
  -4  -9   1 1985.80   58.59
  -4   9   1 1986.90   58.59
   4   9  -1 2071.09   61.79
  -4   9   1 2063.69   53.99
   3  -9  -1  296.57   14.10
  -3  -9   1  354.26   17.00
  -3   9   1  273.67   12.90
  -3   9   1  298.77   16.50
   3   9  -1  316.27   17.60
  -2  -9   1  901.31   27.40
   2  -9  -1  869.21   23.80
  -2   9   1  868.51   23.70
   2   9  -1  900.01   28.40
  -2   9   1  820.12   28.30
  -1  -9   1  246.48   10.30
   1  -9  -1  237.88   11.70
   1  -9  -1  243.98    8.40
  -1   9   1  267.67   12.50
  -1   9   1  250.37    8.60
   1   9  -1  239.28   10.30
   0  -9  -1 1501.65   37.90
   0  -9  -1 1618.34   36.90
   0   9  -1 1471.65   34.30
   0   9   1 1498.55   38.20
   0   9   1 1495.95   36.70
  -1  -9  -1  103.99    7.60
  -1  -9  -1  107.09    6.90
   1   9   1  117.79    8.00
  -1   9  -1  126.09    5.80
   1   9   1  124.69    7.50
  -2  -9  -1 3844.12   86.79
   2  -9   1 3875.81   85.09
  -2  -9  -1 3771.32   90.89
   2   9   1 3933.21   87.19
  -2   9  -1 3593.94   84.49
   2   9   1 3762.62   90.29
  -3  -9  -1 1854.71   55.89
  -3  -9  -1 1885.21   51.39
  -3  -9  -1 1948.80   56.49
  -3   9  -1 1860.91   50.69
  -3   9  -1 1899.41   50.79
  -4  -9  -1  854.91   36.70
  -4  -9  -1  922.61   37.50
  -4  -9  -1  911.21   33.50
  -4   9  -1  949.21   34.00
  -4   9  -1  933.71   33.50
  -5  -9  -1  970.60   42.50
  -5  -9  -1  944.41   41.30
  -5  -9  -1  926.51   37.30
  -5   9  -1  965.00   38.10
  -5   9  -1  994.10   37.70
  -6  -9  -1  138.79   19.90
  -6  -9  -1  130.09   17.60
  -6  -9  -1  121.09   17.40
  -6   9  -1  101.29   16.60
  -6   9  -1  103.99   15.00
  -7  -9  -1  107.39   18.50
  -7  -9  -1   96.99   17.40
  -7   9  -1  112.49   17.10
  -7   9  -1   80.89   16.90
  -8  -9  -1  707.43   43.30
  -8   9  -1  647.94   42.20
  -8   9  -1  621.54   36.30
  -9  -9  -1  188.18   27.40
  -9   9  -1  152.58   23.00
  -9   9  -1  157.98   28.30
 -10  -9  -1   11.50   17.70
 -10   9  -1   30.30   15.50
 -11 -10   1   62.39   19.60
 -11 -10   1   50.99   22.20
 -11  10   1   18.00   21.90
 -11  10   1   60.99   20.30
 -10 -10   1  171.38   26.40
 -10  10   1  282.17   32.30
 -10  10   1  251.57   26.80
 -10  10   1  130.69   29.30
  -9 -10   1  808.72   45.50
  -9  10   1  805.92   49.00
  -9  10   1  718.93   42.50
  -9  10   1  683.53   38.10
  -8 -10   1  226.38   23.30
  -8 -10   1  211.48   24.20
  -8  10   1  196.88   22.20
  -8  10   1  196.28   25.30
  -8  10   1  218.08   20.40
  -7 -10   1  618.34   34.90
  -7 -10   1  590.54   36.70
  -7  10   1  594.24   33.60
  -7  10   1  622.04   31.10
   6 -10  -1 2307.17   72.89
  -6 -10   1 2345.27   74.09
  -6  10   1 2489.85   69.29
   6  10  -1 2468.65   80.39
  -6  10   1 2333.27   70.99
  -5 -10   1 1240.18   44.90
   5 -10  -1 1191.08   42.20
  -5  10   1 1177.28   39.10
   5  10  -1 1137.59   46.20
  -4 -10   1  525.25   25.20
   4 -10  -1  586.74   24.10
  -4  10   1  579.84   26.40
  -4  10   1  588.34   22.20
   4  10  -1  547.85   27.60
  -3 -10   1 4476.55  105.69
   3 -10  -1 4490.05  101.09
  -3  10   1 4460.25   99.79
   3  10  -1 4607.74  108.49
  -3  10   1 4456.55  106.79
  -2 -10   1 3701.13   72.29
   2 -10  -1 3534.05   76.39
  -2 -10   1 3379.66   80.79
  -2  10   1 3363.56   83.39
  -2  10   1 3370.86   75.69
   2  10  -1 3548.94   82.59
   1 -10  -1  387.36   11.40
  -1 -10   1  368.16   13.50
   1 -10  -1  388.06   15.70
  -1  10   1  377.56   11.50
  -1  10   1  376.66   15.90
   1  10  -1  373.76   13.70
   0 -10  -1 2580.94   57.59
   0 -10  -1 2609.54   59.49
   0  10   1 2511.45   57.59
   0  10  -1 2488.45   55.09
   0  10   1 2556.94   59.69
  -1 -10  -1 1346.37   34.90
  -1 -10  -1 1368.86   37.20
  -1  10  -1 1333.77   31.30
   1  10   1 1338.97   35.20
   1  10   1 1368.96   37.10
  -2 -10  -1    3.30    3.10
  -2 -10  -1    6.90    3.10
   2 -10   1    7.50    2.70
   2  10   1    4.20    2.30
  -2  10  -1    6.20    2.60
   2  10   1    5.90    3.20
  -3 -10  -1 2355.76   66.69
  -3 -10  -1 2397.36   61.39
  -3 -10  -1 2432.36   66.99
  -3  10  -1 2352.16   60.39
  -3  10  -1 2365.76   60.59
  -4 -10  -1 3055.19   85.09
  -4 -10  -1 3103.79   79.19
  -4 -10  -1 2865.31   83.49
  -4  10  -1 3107.39   78.69
  -4  10  -1 3090.09   78.99
  -5 -10  -1   36.70    8.70
  -5 -10  -1   25.20    8.40
  -5 -10  -1    6.40    8.10
  -5  10  -1   18.00    6.00
  -5  10  -1   13.30    7.10
  -6 -10  -1 1184.38   46.20
  -6 -10  -1 1181.38   50.39
  -6 -10  -1 1190.28   52.49
  -6  10  -1 1191.28   47.20
  -6  10  -1 1201.18   45.50
  -7 -10  -1 1430.36   55.19
  -7 -10  -1 1294.57   56.49
  -7  10  -1 1346.87   55.19
  -7  10  -1 1314.67   51.79
  -8 -10  -1  281.47   28.10
  -8  10  -1  270.27   24.80
  -8  10  -1  268.17   30.50
  -9 -10  -1  253.07   28.70
  -9  10  -1  257.77   33.70
  -9  10  -1  264.17   27.00
 -10 -10  -1  519.85   44.10
 -10  10  -1  604.64   41.40
 -10 -11   1   14.80   13.60
 -10  11   1   18.30   24.80
 -10  11   1   29.90   17.50
 -10  11   1   23.00   12.10
  -9 -11   1   70.99   17.30
  -9  11   1   51.79   15.20
  -9  11   1   49.50   13.50
  -9  11   1   25.80   19.50
  -8 -11   1   18.70   13.50
  -8 -11   1   67.49   15.50
  -8  11   1   41.50   11.40
  -8  11   1   55.39   17.00
  -8  11   1   33.80   13.20
  -7 -11   1   22.70    9.50
  -7 -11   1   21.20    9.60
  -7 -11   1   26.10   16.10
  -7  11   1   24.10    9.70
  -7  11   1   24.60    8.20
  -7  11   1   -0.50    9.70
   6 -11  -1   15.40    9.10
  -6 -11   1    9.20    7.10
  -6  11   1   -6.20    6.90
  -6  11   1   10.50    5.90
   6  11  -1   13.00    9.70
  -5 -11   1  121.49   15.70
   5 -11  -1  149.39   14.10
   5  11  -1  139.69   16.20
  -5  11   1  151.88   12.00
  -5  11   1  167.38   15.20
  -4 -11   1   97.19   12.70
   4 -11  -1   86.19    9.50
  -4  11   1   65.59   10.00
   4  11  -1   75.69   11.90
  -4  11   1   82.59    8.10
   3 -11  -1   73.79    7.20
  -3 -11   1   56.29    5.20
  -3 -11   1   95.59    9.40
   3  11  -1   77.69   10.50
  -3  11   1   82.79    9.60
  -3  11   1   81.39    6.50
  -2 -11   1  593.44   21.60
  -2 -11   1  668.83   14.40
  -2 -11   1  614.44   14.40
   2 -11  -1  602.74   18.10
   2  11  -1  630.74   23.00
  -2  11   1  625.64   17.90
  -2  11   1  609.64   23.80
  -1 -11   1  109.99    6.70
   1 -11  -1  105.59    7.90
   1 -11  -1  103.59    5.00
   1  11  -1   91.19    6.50
  -1  11   1  113.29    8.40
  -1  11   1  109.79    5.20
   0 -11  -1   42.50    4.80
   0 -11  -1   46.70    4.30
   0  11   1   45.90    4.20
   0  11   1   45.80    4.80
   0  11  -1   38.30    3.20
  -1 -11  -1  996.40   28.80
   1 -11   1  801.32   24.50
  -1 -11  -1  925.21   26.40
   1  11   1  917.11   28.00
  -1  11  -1  951.40   22.30
   1  11   1  915.81   26.40
  -2 -11  -1  211.28   13.20
   2 -11   1  161.48    8.90
  -2 -11  -1  218.28   13.60
  -2 -11  -1  197.38   10.90
   2  11   1  200.38   12.70
   2  11   1  212.58   11.30
  -2  11  -1  227.68   10.10
  -2  11  -1  213.88   10.20
  -3 -11  -1   87.39   10.20
  -3 -11  -1   97.99   12.60
  -3 -11  -1   96.79    9.10
  -3  11  -1  101.79    8.70
  -3  11  -1  103.99    8.90
  -4 -11  -1   32.20    8.00
  -4 -11  -1   24.60    8.20
  -4 -11  -1   27.50    7.20
  -4  11  -1   22.40    6.40
  -4  11  -1   45.70    7.80
  -5 -11  -1  137.39   14.00
  -5 -11  -1  131.69   17.90
  -5 -11  -1  118.89   16.40
  -5  11  -1  121.59   13.70
  -5  11  -1  142.39   13.20
  -6 -11  -1   30.90   10.40
  -6 -11  -1   18.10   11.20
  -6 -11  -1   12.00    8.70
  -6  11  -1   14.10    9.70
  -6  11  -1   36.60   10.00
  -7 -11  -1   40.10   13.30
  -7 -11  -1   49.00   14.20
  -7  11  -1   38.20   10.80
  -7  11  -1   48.30   15.00
  -8 -11  -1   40.40   14.30
  -8  11  -1   41.90   12.70
  -8  11  -1   26.50   16.80
  -9 -11  -1   74.29   20.20
  -9  11  -1   75.39   24.30
  -9  11  -1   73.99   17.30
 -10 -11  -1   24.80   18.40
 -10  11  -1  -18.50   14.10
 -10 -12   1  111.09   21.60
 -10  12   1  107.89   28.40
 -10  12   1   64.39   17.80
 -10  12   1   66.99   19.70
  -9 -12   1  827.92   45.70
  -9  12   1  727.13   46.20
  -9  12   1  749.33   39.50
  -9  12   1  755.52   44.10
  -8 -12   1  279.07   25.70
  -8 -12   1  241.58   24.40
  -8  12   1  237.88   23.70
  -8  12   1  280.07   22.60
  -8  12   1  200.58   24.20
  -7 -12   1  221.88   19.40
  -7 -12   1  196.68   20.10
  -7  12   1  233.78   21.50
  -7  12   1  222.18   21.20
  -7  12   1  194.78   17.40
   6 -12  -1 1690.93   57.59
  -6 -12   1 1644.04   61.69
  -6 -12   1 1668.23   52.99
  -6 -12   1 1709.03   59.89
   6  12  -1 1758.52   65.19
  -6  12   1 1623.04   58.39
  -6  12   1 1738.93   53.49
  -6  12   1 1740.63   56.39
   5 -12  -1 1477.35   47.80
  -5 -12   1 1481.95   50.99
  -5 -12   1 1468.35   43.80
  -5  12   1 1426.76   44.00
   5  12  -1 1454.55   53.99
  -5  12   1 1403.16   50.39
  -4 -12   1  271.67   17.60
   4 -12  -1  240.58   14.70
  -4 -12   1  263.47   13.30
  -4  12   1  255.37   17.40
   4  12  -1  277.57   19.70
  -4  12   1  265.47   13.90
  -3 -12   1 2904.41   74.39
   3 -12  -1 2973.80   69.39
  -3 -12   1 2990.20   65.49
  -3  12   1 2805.72   75.69
   3  12  -1 3022.10   77.49
  -3  12   1 2913.61   67.99
   2 -12  -1 1463.95   34.70
  -2 -12   1 1456.85   39.90
   2  12  -1 1363.76   40.40
  -2  12   1 1416.66   42.50
  -2  12   1 1435.56   34.10
   1 -12  -1   20.30    4.50
  -1 -12   1   16.90    3.30
   1 -12  -1   20.70    2.40
  -1  12   1   22.10    4.80
  -1  12   1   23.10    2.60
   1  12  -1   19.80    1.50
   1  12  -1   17.20    3.50
   0 -12  -1 3198.98   73.69
   0 -12  -1 3143.29   70.89
   0  12  -1 3222.18   68.19
   0  12   1 3221.28   71.09
   0  12   1 3189.98   73.59
   1 -12   1 1542.75   35.70
  -1 -12  -1 1577.84   42.00
  -1 -12  -1 1609.84   39.90
   1  12   1 1499.35   41.40
   1  12   1 1568.04   40.00
  -1  12  -1 1540.75   34.50
  -2 -12  -1   12.90    4.70
  -2 -12  -1    8.90    4.30
  -2 -12  -1   13.30    3.70
  -2  12  -1   16.80    3.30
  -2  12  -1   11.00    2.90
   2  12   1   12.50    3.80
  -3 -12  -1 3765.82   95.09
  -3 -12  -1 3746.93   88.19
  -3 -12  -1 3634.24   94.19
  -3  12  -1 3711.33   86.49
  -3  12  -1 3632.04   86.19
  -4 -12  -1 2955.50   84.19
  -4 -12  -1 2930.01   76.69
  -4 -12  -1 2942.81   83.59
  -4  12  -1 3003.30   76.69
  -4  12  -1 3039.60   76.09
  -5 -12  -1    5.40    6.70
  -5 -12  -1   22.40    9.00
  -5 -12  -1   18.80    8.50
  -5  12  -1    6.10    5.30
  -5  12  -1    5.70    6.10
  -6 -12  -1  967.60   41.00
  -6 -12  -1  961.20   47.70
  -6 -12  -1  990.70   46.10
  -6  12  -1  991.40   39.90
  -6  12  -1 1028.30   42.60
  -7 -12  -1 1432.66   59.79
  -7 -12  -1 1362.96   55.09
  -7  12  -1 1434.96   53.19
  -7  12  -1 1439.76   56.69
  -8 -12  -1   99.49   21.70
  -8  12  -1   81.29   16.10
  -8  12  -1   93.29   21.20
  -9 -12  -1  261.67   31.10
  -9  12  -1  208.18   25.00
  -9  12  -1  180.38   29.80
 -10 -12  -1  280.97   33.40
 -10  12  -1  263.57   31.60
 -10 -13   1  449.16   37.00
 -10  13   1  400.86   35.90
 -10  13   1  366.86   42.10
 -10  13   1  398.56   32.30
  -9 -13   1   -1.50   11.20
  -9  13   1   -1.40    9.60
  -9  13   1    6.20   11.10
  -9  13   1    7.90   18.20
  -8 -13   1  293.57   24.80
  -8 -13   1  318.77   28.50
  -8  13   1  312.27   23.50
  -8  13   1  312.97   27.00
  -8  13   1  338.97   28.40
  -7 -13   1  740.83   34.30
  -7 -13   1  751.72   38.50
  -7  13   1  758.62   33.80
  -7  13   1  686.53   36.00
  -7  13   1  742.73   39.40
  -6 -13   1   60.99   11.00
   6 -13  -1   52.59   11.60
  -6 -13   1   59.59   12.20
  -6 -13   1   60.09   14.80
  -6  13   1   48.90   11.30
  -6  13   1   49.00   11.20
   6  13  -1   69.89   15.60
  -6  13   1   60.79   10.10
  -5 -13   1 1342.67   48.90
  -5 -13   1 1346.47   41.60
   5 -13  -1 1436.06   46.40
   5  13  -1 1357.06   51.99
  -5  13   1 1365.56   49.30
  -5  13   1 1385.96   42.60
   4 -13  -1 3408.96   83.29
  -4 -13   1 3442.26   78.89
  -4 -13   1 3428.06   88.89
   4  13  -1 3464.45   91.99
  -4  13   1 3347.96   89.39
  -4  13   1 3283.37   80.19
   3 -13  -1   63.29    6.60
  -3 -13   1   66.89    5.00
  -3 -13   1   75.19    8.60
   3  13  -1   79.39    9.50
  -3  13   1   80.79   10.70
  -3  13   1   83.39    6.50
   2 -13  -1 1612.14   38.10
  -2 -13   1 1630.94   44.00
  -2  13   1 1555.14   46.60
  -2  13   1 1642.44   37.60
   2  13  -1 1629.34   45.30
   1 -13  -1 2531.45   60.99
   1 -13  -1 2382.16   52.59
  -1 -13   1 2364.96   56.49
   1  13  -1 2449.45   50.69
  -1  13   1 2438.76   53.19
  -1  13   1 2423.96   61.69
   0 -13  -1  456.95   15.60
   0 -13  -1  485.45   17.70
   0  13   1  478.75   17.90
   0  13   1  465.85   15.70
   0  13  -1  523.85   14.00
   1 -13   1 1187.28   28.00
  -1 -13  -1 1219.28   32.60
  -1 -13  -1 1199.78   34.70
   1  13   1 1203.98   33.00
   1  13   1 1185.18   34.40
  -1  13  -1 1180.68   27.00
  -2 -13  -1 6498.15  147.99
  -2 -13  -1 6604.14  147.79
  -2 -13  -1 6553.84  141.79
  -2  13  -1 6458.65  138.19
  -2  13  -1 6492.75  137.69
   2  13   1 6699.13  142.49
  -3 -13  -1 1620.34   45.20
  -3 -13  -1 1519.15   50.09
  -3 -13  -1 1620.64   51.09
  -3  13  -1 1606.34   43.30
   3  13   1 1624.14   45.00
  -3  13  -1 1616.04   43.40
  -4 -13  -1   94.89   13.80
  -4 -13  -1  140.89   12.30
  -4 -13  -1  164.58   15.50
  -4  13  -1  125.19   11.40
  -4  13  -1  140.49   11.30
  -5 -13  -1 1406.36   54.29
  -5 -13  -1 1453.95   48.20
  -5 -13  -1 1423.86   53.29
  -5  13  -1 1416.86   47.50
  -5  13  -1 1419.66   46.30
  -6 -13  -1  540.55   35.00
  -6 -13  -1  620.44   31.20
  -6 -13  -1  527.85   32.80
  -6  13  -1  583.04   31.00
  -6  13  -1  575.04   28.80
  -7 -13  -1   30.00   13.00
  -7 -13  -1   22.80   12.20
  -7  13  -1    8.80    8.20
  -7  13  -1   -0.20   11.00
  -8 -13  -1 1354.96   61.19
  -8  13  -1 1301.37   58.79
  -8  13  -1 1346.77   54.69
  -9 -13  -1  331.27   32.50
  -9  13  -1  366.96   39.30
  -9  13  -1  293.87   27.80
 -10 -13  -1    0.50   16.70
 -10  13  -1    7.80   14.40
 -10 -14   1   43.30   18.50
 -10  14   1   10.60   13.20
 -10  14   1   19.20   15.70
 -10  14   1    7.40   25.70
  -9 -14   1    4.20   11.10
  -9  14   1    1.70   11.60
  -9  14   1    0.00    9.70
  -9  14   1  -29.70   15.60
  -8 -14   1   86.79   17.20
  -8 -14   1   86.79   17.90
  -8  14   1   81.69   17.50
  -8  14   1  106.09   15.70
  -8  14   1   89.59   17.80
  -7 -14   1  125.69   16.40
  -7 -14   1  105.59   18.00
  -7  14   1   81.29   12.90
  -7  14   1   78.79   14.50
  -7  14   1   97.19   16.80
  -6 -14   1   72.29   13.20
   6 -14  -1   50.59   11.80
  -6 -14   1   58.89   10.50
  -6 -14   1   45.50   14.00
  -6  14   1   46.00    8.70
  -6  14   1   66.59   13.10
   6  14  -1   55.19   14.20
  -6  14   1   72.79   12.40
   5 -14  -1   52.89   10.30
  -5 -14   1   38.70    9.40
  -5 -14   1   51.49    8.00
  -5  14   1   46.00   10.70
  -5  14   1   44.60    7.80
   5  14  -1   44.00   11.30
   4 -14  -1  235.38   14.30
  -4 -14   1  209.18   11.30
  -4 -14   1  186.98   15.10
  -4  14   1  273.17   13.60
   4  14  -1  195.08   16.80
  -4  14   1  256.57   18.00
  -3 -14   1   17.50    5.20
   3 -14  -1   16.10    4.10
  -3 -14   1   17.60    3.00
  -3  14   1   18.70    3.70
  -3  14   1   19.10    5.70
   3  14  -1   15.30    6.30
  -2 -14   1   15.10    4.00
   2  14  -1    7.50    3.80
  -2  14   1   19.80    5.10
  -1 -14   1    3.20    2.10
   1 -14  -1    0.90    2.60
   1 -14  -1    2.90    1.50
   1  14  -1    4.80    1.30
   1  14  -1    7.00    2.80
  -1  14   1    4.30    1.60
  -1  14   1    2.70    2.90
   0 -14   1  907.71   23.00
   0 -14  -1  883.91   25.30
   0 -14  -1  929.51   27.90
   0  14   1  953.80   28.50
   0  14   1  947.61   25.70
   0  14  -1  960.20   23.10
   1 -14   1  471.95   13.00
  -1 -14  -1  448.36   18.50
  -1 -14  -1  484.95   17.40
  -1  14  -1  455.15   12.00
   1  14   1  479.55   17.50
   1  14   1  487.95   18.60
  -2 -14  -1  478.95   21.70
  -2 -14  -1  427.76   21.00
  -2 -14  -1  488.35   18.50
  -2  14  -1  504.45   15.50
  -2  14  -1  489.15   15.70
   2  14   1  484.55   18.60
  -3 -14  -1   13.80    4.50
  -3 -14  -1   17.20    6.50
  -3 -14  -1    7.60    5.30
  -3  14  -1   20.70    4.60
  -3  14  -1   18.90    4.70
   3  14   1   26.60    5.60
  -4 -14  -1  301.77   17.50
  -4 -14  -1  304.67   21.30
  -4 -14  -1  260.07   19.50
  -4  14  -1  293.17   16.00
  -4  14  -1  312.27   16.90
  -5 -14  -1    9.30    6.90
  -5 -14  -1   12.10    8.50
  -5 -14  -1    4.10    6.20
  -5  14  -1    9.00    6.00
  -5  14  -1    5.00    5.50
  -6 -14  -1  181.18   18.70
  -6 -14  -1  228.58   40.10
  -6 -14  -1  248.88   23.30
  -6  14  -1  200.58   19.00
  -6  14  -1  234.78   18.30
  -7 -14  -1   27.90   12.90
  -7 -14  -1   29.40   12.80
  -7  14  -1   20.70    9.20
  -7  14  -1   31.60   12.10
  -8 -14  -1   12.00   12.80
  -8  14  -1   14.00   15.20
  -8  14  -1   13.30   10.50
  -9 -14  -1   16.90   15.70
  -9  14  -1   -3.30   20.80
  -9  14  -1   12.50   11.90
 -10 -14  -1    9.10   19.40
 -10  14  -1    9.70   15.30
 -10 -15   1   95.29   18.50
 -10 -15   1  112.59   23.70
 -10  15   1  100.49   19.40
 -10  15   1   92.19   22.20
 -10  15   1   52.99   26.90
  -9 -15   1   -4.00   13.60
  -9 -15   1  -13.90   19.60
  -9  15   1    3.30   17.00
  -9  15   1   19.90   14.20
  -9  15   1    5.80   10.10
  -8 -15   1  960.50   44.40
  -8 -15   1 1041.60   49.70
  -8  15   1 1022.50   50.29
  -8  15   1 1013.40   47.50
  -8  15   1  918.81   41.70
  -7 -15   1  917.91   38.90
  -7 -15   1  897.21   43.70
  -7  15   1  928.51   42.00
  -7  15   1  977.40   45.50
  -7  15   1  960.20   38.50
  -6 -15   1   81.69   16.30
  -6 -15   1  102.69   15.90
  -6 -15   1  110.19   12.90
   6  15  -1   67.59   15.80
  -6  15   1  107.39   16.00
  -6  15   1  107.09   11.90
  -6  15   1   88.59   13.10
  -5 -15   1  554.14   22.40
  -5 -15   1  523.15   28.40
   5 -15  -1  508.65   25.20
  -5  15   1  531.95   28.70
  -5  15   1  559.84   25.00
   5  15  -1  554.64   32.10
  -5  15   1  560.04   23.20
  -4 -15   1 1230.48   33.80
  -4 -15   1 1217.38   42.70
   4 -15  -1 1214.18   37.70
  -4  15   1 1175.18   35.30
   4  15  -1 1293.57   46.30
  -4  15   1 1272.47   44.80
   3 -15  -1  840.22   24.60
  -3 -15   1  759.62   20.00
  -3 -15   1  770.82   29.00
  -3  15   1  748.83   22.70
   3  15  -1  782.72   31.30
  -3  15   1  746.53   30.80
  -2 -15   1 1972.50   51.49
   2 -15  -1 1936.31   44.20
   2  15  -1 1932.81   52.79
  -2  15   1 1934.81   43.50
  -2  15   1 1971.60   55.19
   1 -15  -1 3595.44   78.29
  -1 -15   1 3726.73   83.19
   1 -15  -1 3750.32   87.69
  -1  15   1 3605.24   89.09
   1  15  -1 3742.23   77.69
   1  15  -1 3947.00   84.49
  -1  15   1 3730.33   78.99
   0 -15  -1 1441.76   39.30
   0 -15  -1 1480.25   36.50
   0 -15   1 1440.06   33.40
   0  15   1 1441.76   36.40
   0  15   1 1436.26   39.60
   0  15  -1 1399.16   36.30
   0  15  -1 1466.55   33.60
   1 -15   1 6521.05  130.29
  -1 -15  -1 5646.33  138.29
  -1 -15  -1 6410.76  137.29
   1  15   1 6464.05  137.69
  -1  15  -1 6401.76  128.99
   1  15   1 6703.73  139.89
  -2 -15  -1 2012.80   57.59
  -2 -15  -1 2116.19   52.79
  -2 -15  -1 2108.59   57.99
  -2  15  -1 2167.28   47.80
   2  15   1 2104.29   52.99
  -2  15  -1 2049.40   48.00
  -3 -15  -1  326.97   15.90
  -3 -15  -1  309.07   19.30
  -3 -15  -1  306.17   19.20
  -3  15  -1  305.47   13.90
   3  15   1  297.27   15.50
  -3  15  -1  293.97   13.70
  -4 -15  -1  226.48   18.80
  -4 -15  -1  238.28   18.70
  -4 -15  -1  263.67   15.80
  -4  15  -1  256.37   14.70
  -4  15  -1  211.78   14.20
  -5 -15  -1 1433.46   53.19
  -5 -15  -1 1344.17   53.69
  -5 -15  -1 1363.46   46.40
  -5  15  -1 1354.06   44.10
  -5  15  -1 1364.96   45.90
  -6 -15  -1 1167.98   50.59
  -6 -15  -1 1164.58   44.60
  -6  15  -1 1090.29   44.10
  -6  15  -1 1111.69   42.00
  -7 -15  -1  165.08   24.20
  -7 -15  -1  124.09   19.20
  -7  15  -1  131.39   20.00
  -7  15  -1  157.88   16.80
  -8 -15  -1  354.56   31.30
  -8  15  -1  360.16   26.80
  -8  15  -1  369.46   33.70
  -9 -15  -1  595.74   41.80
  -9  15  -1  541.45   45.30
  -9  15  -1  513.95   34.00
 -10 -15  -1  -19.20   16.30
 -10  15  -1   -4.00   14.00
 -10 -16   1   70.29   20.70
 -10 -16   1   86.49   17.90
 -10  16   1   85.09   30.30
 -10  16   1   73.89   17.80
 -10  16   1   86.69   22.50
  -9 -16   1  187.58   25.80
  -9 -16   1  117.89   23.20
  -9  16   1  147.59   23.90
  -9  16   1  173.88   25.50
  -9  16   1  128.69   18.70
  -8 -16   1   57.99   16.70
  -8 -16   1   71.49   16.70
  -8  16   1   70.89   16.50
  -8  16   1   67.49   13.60
  -8  16   1   41.00   14.70
  -7 -16   1  172.38   17.70
  -7 -16   1  162.08   22.00
  -7  16   1  175.48   16.00
  -7  16   1  178.58   20.50
  -7  16   1  187.98   20.50
  -6 -16   1  664.93   28.30
  -6 -16   1  674.23   34.40
  -6 -16   1  670.13   37.90
  -6  16   1  660.73   34.80
  -6  16   1  693.63   31.50
  -6  16   1  675.43   28.40
  -5 -16   1  424.96   24.80
   5 -16  -1  394.26   21.80
  -5 -16   1  405.76   19.00
  -5  16   1  396.16   19.10
  -5  16   1  394.46   24.80
  -5  16   1  417.56   20.90
   5  16  -1  449.26   28.40
   4 -16  -1   23.30    6.10
  -4 -16   1   31.60    8.10
  -4 -16   1   30.50    5.10
  -4  16   1   19.60    7.80
  -4  16   1   33.20    5.60
   4  16  -1   47.00   10.60
   3 -16  -1 3205.58   74.59
  -3 -16   1 3227.38   82.49
  -3 -16   1 3302.17   69.69
  -3  16   1 3236.48   73.09
  -3  16   1 3403.16   86.89
   3  16  -1 3331.27   85.59
  -2 -16   1 2694.03   65.89
   2 -16  -1 2545.65   57.49
  -2  16   1 2691.23   57.09
   2  16  -1 2705.93   67.69
  -2  16   1 2551.84   69.49
   1 -16  -1   88.39    8.50
  -1 -16   1  102.09    7.10
   1 -16  -1   88.69    4.70
  -1  16   1   83.39    4.80
   1  16  -1   94.09    4.70
   1  16  -1  100.49    7.50
  -1  16   1   91.29    8.90
   0 -16  -1 2485.65   61.49
   0 -16  -1 2580.54   58.39
   0 -16   1 2501.55   54.89
   0  16   1 2527.55   62.29
   0  16  -1 2518.45   55.19
   0  16  -1 2480.45   58.59
   0  16   1 2515.95   58.29
   1 -16   1 2172.78   45.90
  -1 -16  -1 2129.79   55.09
  -1 -16  -1 2129.19   53.09
   1  16   1 2148.58   53.49
  -2 -16  -1  585.04   25.30
  -2 -16  -1  648.74   22.10
  -2 -16  -1  666.83   26.50
  -2  16  -1  644.44   17.30
   2  16   1  624.54   22.20
  -2  16  -1  612.54   17.50
  -3 -16  -1 1265.07   44.50
  -3 -16  -1 1294.37   38.20
  -3 -16  -1 1274.67   44.30
  -3  16  -1 1292.17   35.30
   3  16   1 1284.57   38.40
  -3  16  -1 1297.97   35.10
  -4 -16  -1  710.63   34.30
  -4 -16  -1  699.63   27.90
  -4 -16  -1  754.72   34.10
  -4  16  -1  678.33   26.30
  -4  16  -1  749.92   26.40
  -5 -16  -1   57.59   13.70
  -5 -16  -1   35.10    9.80
  -5 -16  -1   62.29   10.60
  -5  16  -1   67.99   11.20
  -5  16  -1   53.99    9.60
  -6 -16  -1  362.36   23.90
  -6 -16  -1  376.66   27.50
  -6  16  -1  320.37   23.50
  -6  16  -1  358.16   21.90
  -7 -16  -1  373.06   30.10
  -7 -16  -1  387.66   28.10
  -7  16  -1  358.06   24.70
  -7  16  -1  407.86   28.30
  -8 -16  -1   97.29   20.30
  -8  16  -1   85.99   15.80
  -8  16  -1  129.99   21.40
  -9 -16  -1  143.29   24.40
  -9  16  -1  113.59   19.40
  -9  16  -1   97.39   25.40
 -10 -16  -1  255.17   34.30
 -10  16  -1  253.57   29.10
 -10 -17   1   54.99   19.70
 -10 -17   1   78.09   17.50
 -10  17   1   98.59   23.70
 -10  17   1   45.30   15.60
  -9 -17   1   53.29   19.10
  -9 -17   1   47.90   16.50
  -9  17   1   47.60   13.50
  -9  17   1   19.20   13.80
  -9  17   1   31.60   18.60
  -8 -17   1  118.39   20.00
  -8 -17   1   96.79   17.30
  -8  17   1  102.29   18.90
  -8  17   1   89.69   14.30
  -8  17   1  103.29   18.70
  -7 -17   1  304.87   24.90
  -7 -17   1  303.37   21.90
  -7  17   1  276.67   23.10
  -7  17   1  297.97   20.20
  -7  17   1  282.87   24.80
  -6 -17   1  181.08   18.00
  -6 -17   1  162.88   15.00
  -6 -17   1  161.88   24.70
  -6  17   1  177.78   18.80
  -6  17   1  196.08   17.20
  -6  17   1  203.58   15.40
  -5 -17   1  108.49    9.90
   5 -17  -1  101.39   12.60
  -5 -17   1  119.99   13.80
  -5  17   1  113.99   11.30
  -5  17   1   86.59   14.20
  -5  17   1   88.59    9.30
   5  17  -1   97.79   17.60
  -4 -17   1  976.30   37.00
  -4 -17   1  972.50   27.20
   4 -17  -1  962.60   31.20
  -4  17   1  937.51   38.50
  -4  17   1  941.91   29.00
   4  17  -1  958.40   40.00
  -3 -17   1   48.50    7.90
  -3 -17   1   29.30    2.80
   3 -17  -1   24.40    4.50
   3  17  -1   16.30    7.00
  -3  17   1   31.00    7.60
  -2 -17   1  150.18   10.70
   2 -17  -1  149.99    6.60
  -2  17   1  150.48    6.10
   2  17  -1  165.68   12.20
  -2  17   1  154.18   12.30
   1 -17  -1  846.52   21.10
  -1 -17   1  850.61   25.30
   1 -17  -1  849.91   29.00
   1  17  -1  873.21   26.30
  -1  17   1  870.81   30.70
  -1  17   1  860.11   21.30
   1  17  -1  874.61   21.40
   0 -17  -1    4.70    3.20
   0 -17   1    6.40    1.90
   0 -17  -1    2.80    2.30
   0  17   1    5.80    3.30
   0  17  -1    0.30    1.60
   0  17   1    4.40    2.40
   0  17  -1    4.00    2.50
  -1 -17  -1  390.36   17.80
  -1 -17  -1  415.46   16.70
  -1 -17  -1  412.76   17.90
   1 -17   1  428.86   10.70
   1  17   1  427.06   17.00
  -2 -17  -1 1144.19   38.30
  -2 -17  -1 1186.18   33.60
  -2 -17  -1 1176.38   38.60
  -2  17  -1 1121.59   27.00
  -2  17  -1 1140.29   27.40
   2  17   1 1157.18   33.80
  -3 -17  -1  109.09   12.30
  -3 -17  -1  122.49   13.20
  -3 -17  -1  112.09    9.80
   3  17   1  115.29    9.70
  -3  17  -1  104.79    7.80
  -3  17  -1  108.49    7.80
  -4 -17  -1  189.28   17.60
  -4 -17  -1  201.38   19.10
  -4 -17  -1  214.98   14.60
  -4  17  -1  248.08   13.70
  -4  17  -1  224.48   13.90
  -5 -17  -1  514.75   31.70
  -5 -17  -1  418.46   27.20
  -5 -17  -1  424.06   23.40
  -5  17  -1  475.75   22.30
  -5  17  -1  430.26   22.90
  -6 -17  -1  298.57   22.70
  -6 -17  -1  306.87   25.00
  -6  17  -1  272.87   18.90
  -6  17  -1  286.57   21.60
  -7 -17  -1  102.19   19.10
  -7 -17  -1  126.09   18.40
  -7  17  -1   97.19   18.00
  -7  17  -1   90.99   14.70
  -8 -17  -1  276.37   28.90
  -8  17  -1  326.97   30.10
  -8  17  -1  356.06   26.10
  -9 -17  -1   19.90   17.10
  -9  17  -1   18.50   13.10
  -9  17  -1   19.60   23.10
 -10 -17  -1   -7.00   20.30
 -10  17  -1   -0.10   15.00
 -10 -18   1  207.08   31.70
 -10 -18   1  195.38   24.20
 -10  18   1  139.59   26.60
 -10  18   1  115.49   20.50
  -9 -18   1  723.73   43.60
  -9 -18   1  828.72   48.00
  -9  18   1  808.82   46.40
  -9  18   1  907.11   50.09
  -9  18   1  785.02   39.80
  -8 -18   1   53.59   16.20
  -8 -18   1  111.19   17.90
  -8  18   1   78.09   17.00
  -8  18   1   69.29   13.10
  -8  18   1   66.09   18.00
  -7 -18   1  291.07   21.00
  -7 -18   1  263.87   24.80
  -7  18   1  266.27   18.90
  -7  18   1  249.48   21.50
  -7  18   1  302.07   25.10
  -6 -18   1 1394.06   43.80
  -6 -18   1 1350.06   52.89
  -6  18   1 1395.86   47.30
  -6  18   1 1394.76   44.30
  -6  18   1 1357.46   53.89
   5 -18  -1 1334.27   44.20
  -5 -18   1 1421.16   53.69
  -5 -18   1 1379.86   39.80
  -5 -18   1 1423.06   50.69
   5  18  -1 1405.16   54.59
  -5  18   1 1442.76   44.00
  -5  18   1 1412.46   52.09
  -5  18   1 1404.86   41.50
  -4 -18   1  352.26   13.50
  -4 -18   1  363.56   21.20
   4 -18  -1  338.57   16.60
  -4  18   1  350.56   15.10
   4  18  -1  325.27   22.90
  -4  18   1  339.27   22.30
  -4  18   1  387.86   16.70
   3 -18  -1 2110.69   55.79
  -3 -18   1 2514.35   66.09
  -3  18   1 2437.16   54.89
  -3  18   1 2468.15   69.99
   3  18  -1 2659.33   69.79
  -2 -18   1 1472.35   41.80
   2 -18  -1 1462.75   33.30
   2  18  -1 1440.46   43.20
  -2  18   1 1433.96   32.30
  -2  18   1 1497.25   46.70
   1 -18  -1   15.90    2.40
  -1 -18   1    6.50    2.90
   1 -18  -1   13.50    5.00
  -1  18   1    9.20    5.10
   1  18  -1   12.00    2.40
   1  18  -1   17.00    4.20
   0 -18  -1 3101.89   71.59
   0 -18  -1 3163.58   75.79
   0  18  -1 3251.87   73.49
   0  18  -1 3193.28   68.49
   0  18   1 3174.98   76.69
  -1 -18  -1 1393.06   39.60
  -1 -18  -1 1342.67   39.60
  -1 -18  -1 1353.76   37.70
   1  18   1 1349.56   37.80
  -2 -18  -1   55.59    7.30
  -2 -18  -1   64.39    9.50
  -2 -18  -1   50.29    8.30
  -2  18  -1   59.59    3.40
   2  18   1   59.39    6.90
  -2  18  -1   59.39    3.50
  -3 -18  -1 2506.65   63.39
  -3 -18  -1 2554.54   72.19
  -3 -18  -1 2415.96   70.99
   3  18   1 2456.75   63.39
  -3  18  -1 2458.25   58.29
  -3  18  -1 2648.54   59.19
  -4 -18  -1 2068.89   56.59
  -4 -18  -1 2004.30   65.39
  -4 -18  -1 1978.80   64.39
  -4  18  -1 2048.90   52.89
  -4  18  -1 1974.70   53.49
  -5 -18  -1   -8.70    9.50
  -5 -18  -1    2.40    7.10
  -5 -18  -1   10.40    7.00
  -5  18  -1    5.80    4.70
  -5  18  -1    7.30    5.80
  -6 -18  -1  731.43   39.30
  -6 -18  -1  755.52   34.40
  -6  18  -1  741.23   31.70
  -6  18  -1  758.62   34.60
  -7 -18  -1 1724.23   68.79
  -7 -18  -1 1687.43   60.79
  -7  18  -1 1698.33   57.39
  -7  18  -1 1872.21   63.69
  -8 -18  -1  148.79   26.80
  -8 -18  -1  108.49   23.00
  -8  18  -1  150.78   24.20
  -8  18  -1  172.08   19.50
  -9 -18  -1  384.16   35.80
  -9  18  -1  357.26   28.90
  -9  18  -1  395.06   40.80
 -10 -19   1  148.89   26.50
 -10 -19   1  150.58   22.00
 -10  19   1   91.69   25.40
 -10  19   1  137.09   20.90
  -9 -19   1   -4.90   14.90
  -9 -19   1   28.30   18.40
  -9  19   1   14.90   10.30
  -9  19   1    0.20   13.00
  -9  19   1   10.60   17.50
  -8 -19   1  117.09   20.00
  -8 -19   1  123.19   18.80
  -8  19   1  119.09   16.30
  -8  19   1  111.79   19.20
  -8  19   1  123.89   21.30
  -7 -19   1   84.49   13.30
  -7 -19   1   87.19   16.80
  -7  19   1   70.29   14.40
  -7  19   1   85.69   12.50
  -7  19   1   81.39   16.50
  -6 -19   1   16.00    7.40
  -6 -19   1   37.40   10.90
  -6  19   1   17.70    9.20
  -6  19   1   16.90    8.30
  -6  19   1   21.60    6.70
  -5 -19   1  224.58   21.60
  -5 -19   1  291.97   21.30
  -5 -19   1  264.07   13.90
  -5  19   1  272.07   14.90
  -5  19   1  276.07   16.70
  -5  19   1  272.87   22.00
  -4 -19   1  742.53   21.50
  -4 -19   1  758.72   32.10
   4 -19  -1  746.13   25.90
  -4  19   1  762.42   25.20
  -4  19   1  761.32   34.50
  -4  19   1  740.43   23.70
   4  19  -1  708.43   34.50
   3 -19  -1  111.49    7.70
  -3 -19   1  140.99   12.10
   3  19  -1  148.59   13.90
  -3  19   1  137.59    6.80
  -3  19   1  130.29   13.20
  -2 -19   1  366.16   17.20
   2 -19  -1  374.86   10.90
   2  19  -1  367.76   18.40
  -2  19   1  384.06   20.90
  -1 -19   1 1203.48   33.50
   1 -19  -1 1216.68   28.70
   1 -19  -1 1250.97   38.50
  -1  19   1 1260.67   40.10
   1  19  -1 1308.47   35.10
   1  19  -1 1229.88   29.90
   0 -19  -1  242.48   13.70
   0 -19   1  273.97    9.50
   0 -19  -1  266.17   11.70
   0  19   1  264.27   14.10
   0  19  -1  272.37   12.90
  -1 -19  -1  273.37   14.60
  -1 -19  -1  280.17   14.70
  -1 -19  -1  308.17   14.40
  -1  19  -1  265.07   14.60
   1  19   1  281.67   13.90
  -2 -19  -1 1510.45   46.20
  -2 -19  -1 1467.55   40.40
  -2 -19  -1 1394.26   45.10
   2  19   1 1498.65   41.00
  -3 -19  -1  227.68   13.40
  -3 -19  -1  220.78   17.70
  -3 -19  -1  238.58   17.20
   3  19   1  217.98   13.10
  -3  19  -1  242.88   10.40
  -3  19  -1  247.78   10.80
  -4 -19  -1   -7.50    6.40
  -4 -19  -1    7.10    5.40
  -4 -19  -1    7.50    6.60
  -4  19  -1    6.30    3.60
  -4  19  -1    1.80    4.00
  -5 -19  -1   24.40    9.00
  -5 -19  -1   26.10   11.70
  -5 -19  -1   39.70    9.20
  -5  19  -1   11.80    5.60
  -5  19  -1   24.80    7.20
  -6 -19  -1    7.40    9.00
  -6 -19  -1    5.40    8.80
  -6  19  -1    5.90    8.80
  -6  19  -1   -6.40    5.50
  -7 -19  -1    1.10   12.00
  -7 -19  -1   -8.50   11.60
  -7  19  -1   -2.30   11.00
  -7  19  -1    2.40    7.60
  -8 -19  -1   89.19   22.30
  -8 -19  -1  130.89   22.80
  -8  19  -1  141.09   22.90
  -8  19  -1  113.39   17.30
  -9 -19  -1  100.99   22.30
  -9  19  -1   58.49   23.30
  -9  19  -1   52.89   15.90
 -10 -20   1  105.69   25.70
 -10 -20   1  101.99   19.40
 -10  20   1   81.59   17.30
 -10  20   1   83.79   23.40
  -9 -20   1  246.88   28.70
  -9 -20   1  280.17   31.40
  -9  20   1  306.37   25.00
  -9  20   1  250.97   30.00
  -9  20   1  235.28   31.90
  -8 -20   1   36.90   15.40
  -8 -20   1   43.10   14.40
  -8  20   1   44.90   15.80
  -8  20   1   43.30   14.80
  -8  20   1   39.60   11.00
  -7 -20   1  123.69   19.00
  -7 -20   1  122.89   15.30
  -7  20   1   96.09   17.40
  -7  20   1  125.79   16.70
  -7  20   1  120.29   14.00
  -6 -20   1  391.46   26.20
  -6 -20   1  377.26   19.80
  -6  20   1  374.76   22.50
  -6  20   1  419.96   20.90
  -6  20   1  421.26   28.40
  -5 -20   1  562.04   21.00
  -5 -20   1  576.84   32.50
  -5 -20   1  596.24   30.70
  -5  20   1  539.95   31.00
  -5  20   1  592.74   22.60
  -5  20   1  570.04   24.00
  -4 -20   1   24.50    7.20
  -4 -20   1   32.20    4.20
   4 -20  -1   30.80    5.90
  -4  20   1   19.60    4.90
  -4  20   1   23.70    4.60
   4  20  -1   34.50   10.00
  -4  20   1   26.00    8.90
  -3 -20   1 1201.68   39.50
   3 -20  -1 1033.20   29.60
  -3  20   1 1211.78   29.20
  -3  20   1 1211.18   43.70
  -3  20   1 1192.78   28.40
   3  20  -1 1217.08   42.50
  -2 -20   1  517.95   21.50
   2 -20  -1  558.34   14.10
  -2  20   1  560.94   26.10
   2  20  -1  586.04   24.10
   1 -20  -1  135.39    5.70
   1 -20  -1  120.09   10.80
  -1 -20   1  127.19    8.40
  -1  20   1  121.59   11.20
   1  20  -1  132.99    9.20
   1  20  -1  131.59    6.70
   0 -20  -1 1617.34   44.10
   0 -20  -1 1862.11   49.50
   0 -20   1 1883.81   41.50
   0  20  -1 1863.11   47.10
   0  20   1 1911.41   50.49
  -1 -20  -1  506.25   20.90
  -1 -20  -1  520.85   21.00
  -1 -20  -1  531.65   20.20
   1  20   1  512.55   19.90
  -1  20  -1  492.35   21.00
  -2 -20  -1   16.60    4.70
  -2 -20  -1   15.10    5.80
  -2 -20  -1   17.10    6.40
   2  20   1   10.00    4.20
  -3 -20  -1  323.87   21.30
  -3 -20  -1  342.17   16.50
  -3 -20  -1  329.77   20.40
  -3  20  -1  340.27   12.30
  -3  20  -1  341.47   12.10
   3  20   1  325.27   16.30
  -4 -20  -1  514.65   22.50
  -4 -20  -1  473.35   27.40
  -4 -20  -1  521.95   29.60
  -4  20  -1  485.55   19.70
  -4  20  -1  511.65   19.20
  -5 -20  -1   -3.80    8.00
  -5 -20  -1    2.70    7.00
  -5  20  -1    7.00    6.10
  -5  20  -1    6.70    4.80
  -6 -20  -1  109.39   17.90
  -6 -20  -1  121.59   16.10
  -6  20  -1  121.59   13.20
  -6  20  -1  136.99   16.40
  -7 -20  -1  311.97   29.90
  -7 -20  -1  303.47   25.40
  -7  20  -1  313.07   25.00
  -7  20  -1  280.47   20.70
  -8 -20  -1   86.99   19.80
  -8 -20  -1   90.69   20.40
  -8  20  -1   71.19   14.60
  -8  20  -1   87.39   18.60
  -9 -20  -1  173.48   29.20
  -9  20  -1  101.09   26.70
  -9  20  -1  126.19   19.70
 -10 -21   1  312.37   34.70
 -10 -21   1  320.47   27.80
 -10  21   1  305.37   28.40
 -10  21   1  332.67   37.20
  -9 -21   1  -30.30   17.00
  -9 -21   1   -2.00   15.60
  -9 -21   1  -11.40   10.00
  -9  21   1  -19.80   17.50
  -9  21   1   -7.20   10.00
  -9  21   1   20.80   15.50
  -8 -21   1  684.53   35.70
  -8 -21   1  777.02   44.60
  -8  21   1  727.73   39.50
  -8  21   1  745.73   43.80
  -8  21   1  706.83   33.90
  -7 -21   1 1003.50   47.40
  -7 -21   1 1026.80   38.40
  -7  21   1 1040.00   38.80
  -7  21   1 1006.70   41.70
  -7  21   1 1029.40   49.99
  -6 -21   1   13.00    8.10
  -6 -21   1   20.30    7.20
  -6  21   1   19.50    6.70
  -6  21   1    5.10    9.50
  -6  21   1   26.70    8.30
  -5 -21   1  859.11   41.30
  -5 -21   1  935.91   39.60
  -5 -21   1  930.31   28.00
  -5  21   1  926.61   31.80
  -5  21   1  927.71   41.70
  -5  21   1  919.21   29.70
  -4 -21   1 1849.71   57.59
  -4 -21   1 1821.52   42.10
  -4 -21   1 1839.82   60.19
  -4  21   1 1864.81   45.50
  -4  21   1 1840.22   61.59
  -4  21   1 1876.01   47.00
  -3 -21   1  110.09   11.00
   3 -21  -1  103.89    6.60
   3  21  -1  107.49   12.50
  -3  21   1  115.29   13.40
  -3  21   1   96.59    5.00
  -3  21   1  101.39    5.40
  -2 -21   1 1410.56   41.10
   2  21  -1 1363.86   42.60
  -2  21   1 1423.26   46.80
   1 -21  -1 1859.91   41.00
   1 -21  -1 1889.21   52.59
  -1  21   1 1842.02   54.09
   1  21  -1 1866.81   43.30
   0 -21  -1  608.44   23.80
   0 -21   1  669.73   17.60
   0 -21  -1  656.63   20.80
   0  21   1  665.63   24.90
   0  21  -1  647.94   22.50
  -1 -21  -1  733.23   26.30
  -1 -21  -1  716.13   25.00
  -1 -21  -1  757.12   26.70
  -1  21  -1  715.03   26.80
   1  21   1  758.42   25.70
  -2 -21  -1 2711.53   67.39
  -2 -21  -1 2817.12   74.09
  -2 -21  -1 2795.82   74.09
   2  21   1 2775.02   68.09
  -3 -21  -1 1136.19   42.30
  -3 -21  -1 1156.28   43.20
  -3 -21  -1 1173.88   35.60
  -3  21  -1 1148.39   28.40
   3  21   1 1190.98   36.00
  -3  21  -1 1151.08   28.20
  -4 -21  -1  353.06   23.40
  -4 -21  -1  335.37   24.60
  -4 -21  -1  342.47   18.10
  -4  21  -1  293.17   14.50
  -4  21  -1  331.17   14.40
  -5 -21  -1 2100.49   70.59
  -5 -21  -1 2093.19   60.39
  -5  21  -1 2018.60   57.39
  -5  21  -1 2081.99   55.59
  -6 -21  -1  509.15   33.20
  -6 -21  -1  540.45   28.60
  -6  21  -1  523.65   24.60
  -6  21  -1  567.04   28.00
  -7 -21  -1   48.90   13.50
  -7 -21  -1   36.60   14.80
  -7  21  -1   27.10   13.30
  -7  21  -1   45.90   10.30
  -8 -21  -1  455.55   36.00
  -8 -21  -1  583.84   42.10
  -8  21  -1  519.85   30.20
  -8  21  -1  501.35   35.30
  -9 -21  -1  300.47   33.20
  -9  21  -1  257.27   25.20
 -10 -22   1   10.40   13.90
 -10 -22   1   -6.00   18.30
 -10  22   1   17.40   17.20
 -10  22   1  -14.40   12.40
  -9 -22   1   13.60   14.10
  -9 -22   1   35.90   18.50
  -9 -22   1   22.40   11.20
  -9  22   1   28.10   16.00
  -9  22   1   13.30   18.90
  -9  22   1   50.49   13.60
  -8 -22   1   13.50   12.60
  -8 -22   1   18.80   13.00
  -8  22   1  -20.90   12.20
  -8  22   1  -19.70   10.90
  -8  22   1    8.10    8.60
  -7 -22   1   23.20   12.90
  -7 -22   1    2.70    9.00
  -7  22   1   25.70    8.40
  -7  22   1   21.80   11.60
  -7  22   1   19.90   10.60
  -6 -22   1   79.69   11.00
  -6 -22   1   84.29   15.00
  -6  22   1   80.29   15.50
  -6  22   1   98.89   10.50
  -6  22   1  102.99   13.10
  -5 -22   1    9.10    9.10
  -5 -22   1   16.20    7.80
  -5 -22   1    7.60    4.40
  -5  22   1    3.40    4.10
  -5  22   1   14.70    8.30
  -5  22   1    6.30    5.20
  -4 -22   1   93.39   12.70
  -4 -22   1  103.79   15.00
  -4 -22   1   97.39    5.40
  -4  22   1  124.19    7.50
  -4  22   1   99.49    8.00
  -4  22   1  105.09   15.70
  -3 -22   1   45.10    8.70
  -3  22   1   56.69   11.40
  -2 -22   1  132.39   10.70
  -2  22   1  146.49   13.70
   1 -22  -1   44.10    3.40
   1 -22  -1   40.60    3.80
   1  22  -1   42.70    4.50
  -1  22   1   41.00    8.20
   0 -22   1   92.49    5.20
   0 -22  -1  107.09    9.40
   0 -22  -1   81.69    7.00
   0 -22   1   86.89    5.60
   0  22  -1   73.69    7.70
   0  22   1   95.49    9.30
  -1 -22  -1  308.97   15.30
  -1 -22  -1  316.97   16.10
  -1 -22  -1  276.97   15.30
  -1  22  -1  334.97   17.00
   1  22   1  296.67   15.20
  -2 -22  -1    2.10    5.30
  -2 -22  -1   -0.50    4.60
  -2 -22  -1    2.70    3.80
  -2  22  -1    2.30    4.50
   2  22   1   -2.30    3.30
  -3 -22  -1  368.76   17.40
  -3 -22  -1  407.06   23.10
  -3 -22  -1  383.66   23.40
   3  22   1  359.76   17.40
  -3  22  -1  365.36   10.90
  -3  22  -1  374.86   10.90
  -4 -22  -1   76.09   10.10
  -4 -22  -1   67.49   13.30
  -4 -22  -1   49.90   11.00
  -4  22  -1   84.99    7.90
  -4  22  -1   77.89    7.30
  -5 -22  -1   15.60    8.20
  -5 -22  -1   27.00   10.20
  -5  22  -1   28.00    6.20
  -5  22  -1   35.30    7.70
  -6 -22  -1   -2.20    9.50
  -6 -22  -1    4.90    9.60
  -6  22  -1   -1.90    7.30
  -6  22  -1    3.10    5.90
  -7 -22  -1   44.80   15.40
  -7 -22  -1   35.80   13.80
  -7  22  -1   29.40   11.30
  -7  22  -1   32.70    9.70
  -8 -22  -1  -42.20   16.80
  -8 -22  -1    8.90   15.60
  -8  22  -1    5.20   10.00
  -8  22  -1   -0.90   14.60
  -9 -22  -1    5.00   16.40
  -9  22  -1   17.40   11.80
  -9  22  -1   -9.10   14.50
  -9 -23   1    7.40   14.50
  -9 -23   1  -16.20   16.90
  -9 -23   1  -16.70   10.00
  -9  23   1    1.90   14.60
  -9  23   1   14.40   17.90
  -9  23   1   -1.90    9.90
  -8 -23   1  804.52   37.10
  -8 -23   1  786.42   45.00
  -8  23   1  781.82   39.60
  -8  23   1  764.42   34.40
  -8  23   1  757.92   45.60
  -7 -23   1  543.15   35.70
  -7 -23   1  579.64   26.60
  -7  23   1  497.45   34.70
  -7  23   1  576.64   30.10
  -7  23   1  586.14   27.10
  -6 -23   1    6.10    6.00
  -6 -23   1    9.30    9.20
  -6  23   1    6.70    5.40
  -6  23   1    9.50    8.80
  -6  23   1    9.40    7.40
  -5 -23   1  331.97   23.30
  -5 -23   1  356.46   14.00
  -5  23   1  338.97   15.40
  -5  23   1  332.87   24.70
  -5  23   1  346.17   17.20
  -4 -23   1  753.02   32.70
  -4 -23   1  730.93   34.70
  -4  23   1  737.13   20.90
  -4  23   1  769.32   22.30
  -4  23   1  678.73   35.00
  -3 -23   1   51.79   10.00
  -3 -23   1   68.69   10.10
  -3  23   1   47.80   10.90
  -2 -23   1  553.74   23.60
  -2 -23   1  553.94   22.40
  -2  23   1  562.74   27.30
   1 -23  -1  912.61   21.40
   1 -23  -1  884.41   22.00
  -1 -23   1  912.01   28.00
   1  23  -1  909.21   24.60
  -1  23   1  886.71   33.80
   0 -23   1  120.59    6.00
   0 -23  -1  121.89    8.70
   0 -23  -1  133.49   10.90
   0 -23  -1  123.49    8.30
   0 -23   1  128.89    6.60
   0  23   1  101.59   10.20
   0  23  -1  119.39    9.50
  -1 -23  -1  512.65   20.60
  -1 -23  -1  488.75   21.10
  -1 -23  -1  497.45   21.10
  -1  23  -1  528.05   22.60
   1  23   1  540.15   21.30
  -2 -23  -1  965.10   36.10
  -2 -23  -1 1040.10   31.50
  -2 -23  -1  963.90   35.60
   2  23   1  963.80   31.20
  -2  23  -1 1012.60   36.40
  -3 -23  -1  473.15   20.00
  -3 -23  -1  475.55   26.70
  -3 -23  -1  490.95   25.80
   3  23   1  455.35   19.90
  -4 -23  -1  202.58   20.70
  -4 -23  -1  231.38   20.00
  -4 -23  -1  217.88   14.90
  -4  23  -1  220.48   11.20
  -4  23  -1  223.08   10.60
  -5 -23  -1 1653.13   51.09
  -5 -23  -1 1704.33   62.29
  -5  23  -1 1727.03   46.50
  -5  23  -1 1676.73   48.10
  -6 -23  -1  709.33   40.50
  -6 -23  -1  671.63   32.00
  -6  23  -1  688.43   28.20
  -6  23  -1  733.63   31.00
  -7 -23  -1    2.70   12.40
  -7 -23  -1   -5.60   12.30
  -7  23  -1    1.50    7.40
  -7  23  -1   17.10   10.40
  -8 -23  -1  176.18   27.30
  -8 -23  -1  177.58   24.90
  -8  23  -1  187.98   19.40
  -8  23  -1  191.38   24.20
  -9 -23  -1  158.88   27.40
  -9  23  -1  126.39   18.90
  -9  23  -1  162.48   27.10
  -9 -24   1  500.25   34.60
  -9 -24   1  469.35   27.30
  -9 -24   1  514.75   41.30
  -9  24   1  469.85   39.30
  -9  24   1  483.65   36.90
  -9  24   1  478.15   29.50
  -8 -24   1  231.88   22.10
  -8 -24   1  254.87   18.90
  -8 -24   1  233.78   29.50
  -8  24   1  235.38   19.60
  -8  24   1  213.98   24.70
  -8  24   1  207.38   28.30
  -7 -24   1   81.49   12.40
  -7 -24   1   71.79   17.50
  -7  24   1   68.79   16.50
  -7  24   1   98.59   14.50
  -7  24   1  133.19   13.90
  -6 -24   1 1218.68   36.20
  -6 -24   1 1222.58   50.89
  -6  24   1 1181.68   52.59
  -6  24   1 1282.87   41.50
  -6  24   1 1216.38   38.20
  -5 -24   1  351.56   23.90
  -5 -24   1  310.57   12.40
  -5  24   1  303.57   15.60
  -5  24   1  303.07   24.30
  -5  24   1  305.87   14.10
  -4 -24   1  348.77   22.20
  -4 -24   1  337.77   23.70
  -4  24   1  351.66   12.40
  -4  24   1  374.46   24.90
  -4  24   1  342.07   11.60
  -3 -24   1 1488.95   47.80
  -3 -24   1 1401.26   45.30
  -3  24   1 1310.27   48.90
  -2 -24   1  301.47   17.40
  -2 -24   1  304.17   16.20
  -2  24   1  304.77   19.50
   1 -24  -1   99.69    4.90
  -1 -24   1   92.69    8.50
   1 -24  -1  102.39    4.60
   1  24  -1  111.09    7.00
  -1  24   1  102.79   11.60
   0 -24  -1 1706.43   42.50
   0 -24  -1 1506.85   46.40
   0 -24  -1 1727.63   43.30
   0 -24   1 1708.33   38.20
   0 -24   1 1645.04   38.80
   0  24   1 1734.73   49.50
   0  24  -1 1725.03   46.20
  -1 -24  -1 1632.34   45.80
  -1 -24  -1 1656.73   47.10
  -1 -24  -1 1665.53   46.90
   1  24   1 1663.03   46.50
  -1  24  -1 1726.93   49.50
  -2 -24  -1   22.50    8.00
  -2 -24  -1   42.00    7.30
  -2 -24  -1   63.89   10.30
   2  24   1   40.00    7.00
  -2  24  -1   51.39    9.20
  -3 -24  -1  607.84   29.10
  -3 -24  -1  586.04   30.00
  -3 -24  -1  615.44   23.60
  -3  24  -1  603.94   29.40
   3  24   1  624.94   23.80
  -4 -24  -1 1064.59   34.70
  -4 -24  -1  962.70   42.90
  -4 -24  -1 1010.50   42.90
  -4  24  -1 1024.10   27.00
  -4  24  -1 1024.10   27.60
  -5 -24  -1   25.20    8.60
  -5 -24  -1   31.30   11.60
  -5  24  -1   52.99    7.50
  -5  24  -1   41.00    7.70
  -6 -24  -1  254.47   26.20
  -6 -24  -1  265.97   20.70
  -6  24  -1  272.37   18.90
  -6  24  -1  273.27   17.20
  -7 -24  -1  336.27   26.20
  -7 -24  -1  422.66   34.30
  -7  24  -1  309.47   20.90
  -7  24  -1  338.67   24.40
  -8 -24  -1    2.30   15.00
  -8 -24  -1    0.80   17.30
  -8  24  -1   -5.30   13.90
  -8  24  -1   13.40    9.30
  -8  24  -1  -11.60   14.30
  -9 -24  -1  108.69   26.30
  -9  24  -1  134.69   19.30
  -9  24  -1  137.99   25.10
  -9 -25   1  -23.50   17.40
  -9 -25   1   13.70   11.50
  -9 -25   1    2.00   16.80
  -9  25   1   27.50   18.10
  -9  25   1    4.20   10.80
  -8 -25   1    7.40   14.10
  -8 -25   1   24.50    8.70
  -8 -25   1  -18.20   11.30
  -8  25   1   -1.60   12.70
  -8  25   1    4.30   12.00
  -8  25   1   -3.50    8.20
  -7 -25   1    8.40   12.30
  -7 -25   1   14.80    8.50
  -7  25   1   10.90    6.80
  -7  25   1    9.90    8.60
  -7  25   1   23.30   12.10
  -6 -25   1   19.40   11.60
  -6 -25   1   10.90    5.70
  -6  25   1   10.70    5.30
  -6  25   1   17.40    7.50
  -6  25   1    8.50   10.30
  -5 -25   1   80.89    6.10
  -5 -25   1   62.49   13.10
  -5 -25   1   62.29    5.40
  -5  25   1   88.19    9.00
  -5  25   1   68.99   14.70
  -5  25   1   85.29    7.60
  -4 -25   1   53.69   11.00
  -4 -25   1   38.80   11.90
  -4  25   1   44.30   10.90
  -3 -25   1   10.80    6.10
  -3 -25   1    3.90    6.80
  -3  25   1   12.30    7.20
  -2 -25   1   35.20    7.10
  -2 -25   1   45.60    8.10
  -2  25   1   28.60    8.30
   1 -25  -1   -0.50    1.50
  -1 -25   1   -3.20    3.60
   1  25  -1    0.90    2.70
  -1  25   1    0.00    4.30
   0 -25   1    4.10    2.10
   0 -25  -1    7.70    3.70
   0 -25  -1   13.30    3.80
   0 -25  -1    3.40    4.50
   0  25  -1    6.80    4.30
   0  25   1   11.10    5.00
  -1 -25  -1   83.79    9.30
  -1 -25  -1   85.09    9.80
  -1 -25  -1  107.29    9.80
   1  25   1   82.29    8.70
  -1  25  -1  101.09   12.20
  -2 -25  -1   11.20    4.80
  -2 -25  -1   16.70    7.10
  -2 -25  -1   12.60    6.50
  -2  25  -1   -0.10    4.90
   2  25   1   12.80    5.10
  -3 -25  -1    9.70    8.50
  -3 -25  -1   12.60    6.60
  -3 -25  -1    6.30    4.90
   3  25   1    4.40    4.40
  -3  25  -1   11.30    5.90
  -4 -25  -1   44.00    8.50
  -4 -25  -1   11.00   18.20
  -4 -25  -1   33.60   10.70
  -4  25  -1   30.60    9.80
  -4  25  -1   52.29    4.70
  -4  25  -1   45.90    4.90
  -5 -25  -1    2.10    7.30
  -5 -25  -1   -7.30    8.30
  -5  25  -1   -1.40    4.00
  -5  25  -1   -7.60    4.70
  -6 -25  -1   16.60    9.90
  -6 -25  -1   -4.40    9.90
  -6  25  -1   24.10    6.80
  -6  25  -1   25.10    8.20
  -7 -25  -1   -2.50   13.10
  -7 -25  -1    7.20   12.80
  -7  25  -1   -2.50    7.00
  -7  25  -1    7.10   10.20
  -7  25  -1    6.40   12.00
  -8 -25  -1   17.30   16.70
  -8 -25  -1    8.70   17.90
  -8  25  -1    5.00    9.70
  -8  25  -1   15.20   15.00
  -8  25  -1   26.90   15.20
  -9 -25  -1   -3.00   20.10
  -9  25  -1    1.20   16.00
  -9  25  -1    2.50   11.80
  -9 -26   1  511.45   27.60
  -9 -26   1  502.85   42.20
  -9  26   1  472.95   39.80
  -9  26   1  479.25   28.80
  -8 -26   1  150.98   17.60
  -8 -26   1  163.78   16.10
  -8 -26   1  153.78   26.30
  -8  26   1  151.98   24.30
  -8  26   1  187.48   21.80
  -8  26   1  202.58   18.00
  -7 -26   1  255.67   15.00
  -7 -26   1  272.17   17.20
  -7 -26   1  255.87   26.50
  -7  26   1  226.58   25.50
  -7  26   1  233.98   16.50
  -7  26   1  238.48   19.90
  -6 -26   1  935.81   45.40
  -6 -26   1 1004.50   28.60
  -6 -26   1 1053.49   29.60
  -6  26   1 1025.90   32.10
  -6  26   1 1004.00   49.60
  -6  26   1 1009.60   34.40
  -5 -26   1  440.46   27.30
  -5  26   1  413.06   15.10
  -5  26   1  395.06   16.40
  -5  26   1  458.35   30.30
  -4 -26   1  145.09   15.00
  -4 -26   1  165.08   19.40
  -4  26   1  160.98   17.40
  -3 -26   1  685.63   29.30
  -3 -26   1  740.13   32.20
  -3  26   1  662.53   33.40
  -2 -26   1  869.01   31.70
  -2 -26   1  844.12   30.00
  -2  26   1  888.21   37.20
  -1 -26   1    9.50    4.30
   1  26  -1    8.00    3.10
  -1  26   1    8.00    5.60
   0 -26  -1 2379.56   56.29
   0 -26  -1 2289.47   55.39
   0 -26   1 2370.96   51.39
   0 -26   1 2293.57   50.59
   0 -26  -1 2327.67   61.99
   0  26   1 2362.36   63.79
   0  26  -1 2281.47   60.29
  -1 -26  -1 1146.89   37.40
  -1 -26  -1 1299.47   38.40
  -1 -26  -1 1275.27   38.60
  -1  26  -1 1279.07   41.30
   1  26   1 1213.68   38.00
  -2 -26  -1  124.99   12.70
  -2 -26  -1  115.09   13.90
  -2 -26  -1  118.59   10.40
  -2  26  -1  115.29   12.70
   2  26   1  150.08   11.10
  -3 -26  -1  695.23   33.60
  -3 -26  -1  680.73   31.70
  -3 -26  -1  705.93   25.70
  -3  26  -1  720.63   32.90
   3  26   1  717.23   26.10
  -4 -26  -1 1243.98   37.90
  -4 -26  -1 1212.48   47.70
  -4  26  -1 1070.79   46.10
  -5 -26  -1   86.39   12.00
  -5 -26  -1   61.49   14.80
  -5  26  -1   87.19    8.90
  -5  26  -1   75.29    7.50
  -5  26  -1   96.59   16.60
  -6 -26  -1  384.26   30.90
  -6 -26  -1  403.96   24.40
  -6  26  -1  384.26   18.90
  -6  26  -1  413.06   30.50
  -6  26  -1  386.86   20.70
  -7 -26  -1  495.35   30.70
  -7 -26  -1  475.75   37.30
  -7  26  -1  546.95   28.70
  -7  26  -1  499.15   24.80
  -7  26  -1  530.55   37.30
  -8 -26  -1   41.40   19.10
  -8 -26  -1   46.20   19.10
  -8  26  -1   17.20   10.00
  -8  26  -1   22.40   16.00
  -8  26  -1   19.30   14.30
  -9 -27   1   -0.70   17.30
  -9 -27   1   -4.20   11.00
  -9  27   1   -0.90   10.50
  -9  27   1   -7.10   18.30
  -8 -27   1  204.78   19.90
  -8 -27   1  226.28   17.10
  -8 -27   1  219.48   29.00
  -8  27   1  202.78   28.50
  -8  27   1  212.28   18.40
  -8  27   1  225.48   23.50
  -7 -27   1  267.57   14.90
  -7 -27   1  262.77   26.90
  -7 -27   1  269.97   16.70
  -7  27   1  273.67   17.20
  -7  27   1  269.37   29.70
  -7  27   1  287.77   20.50
  -6 -27   1   27.70    5.50
  -6 -27   1    8.50    9.90
  -6 -27   1   26.00    5.10
  -6  27   1   26.90    7.40
  -6  27   1   23.70   12.40
  -6  27   1   20.50    5.60
  -5 -27   1  712.93   35.30
  -5  27   1  682.13   37.80
  -5  27   1  708.53   19.90
  -5  27   1  691.53   20.70
  -4 -27   1 1038.30   43.90
  -4 -27   1 1109.49   42.00
  -4  27   1 1067.39   45.90
  -3 -27   1  104.39   13.10
  -3 -27   1  134.59   14.90
  -3  27   1  133.09   17.30
  -2 -27   1  748.83   29.30
  -2 -27   1  779.22   28.20
  -2  27   1  755.32   34.60
  -1 -27   1  585.74   28.00
  -1 -27   1  615.64   21.90
   1  27  -1  598.14   19.20
  -1  27   1  541.65   26.80
   0 -27  -1  293.47   13.10
   0 -27  -1  261.27   16.40
   0 -27  -1  295.07   13.00
   0 -27   1  287.27    9.70
   0 -27   1  311.07    9.50
   0  27   1  277.57   17.00
   0  27  -1  280.27   15.60
  -1 -27  -1  342.97   17.70
  -1 -27  -1  367.66   17.80
  -1 -27  -1  366.46   18.00
  -1  27  -1  347.87   19.40
   1  27   1  352.76   17.60
  -2 -27  -1  906.31   30.70
  -2 -27  -1  957.30   36.40
  -2 -27  -1  957.10   35.60
  -2  27  -1  942.91   37.00
   2  27   1  986.60   31.70
  -3 -27  -1  405.76   25.80
  -3 -27  -1  381.26   18.30
  -3 -27  -1  376.76   23.50
  -3  27  -1  387.66   23.70
   3  27   1  418.26   18.90
  -4 -27  -1  257.27   21.30
  -4 -27  -1  249.08   15.60
  -4  27  -1  247.28   21.40
  -5 -27  -1  791.32   40.40
  -5 -27  -1  718.03   29.80
  -5  27  -1  750.72   22.70
  -5  27  -1  795.72   23.60
  -5  27  -1  781.82   39.80
  -6 -27  -1  200.98   19.20
  -6 -27  -1  220.68   24.70
  -6  27  -1  228.48   14.30
  -6  27  -1  229.88   15.80
  -6  27  -1  268.87   26.70
  -7 -27  -1   22.50   14.80
  -7 -27  -1    0.60   13.10
  -7  27  -1   25.80   14.30
  -7  27  -1   13.70   10.40
  -7  27  -1   25.90    9.00
  -8 -27  -1  215.98   26.10
  -8 -27  -1  219.88   31.60
  -8  27  -1  206.68   29.50
  -8  27  -1  196.68   18.90
  -8  27  -1  251.47   25.20
  -9 -28   1   12.10   19.70
  -9 -28   1   23.90   11.50
  -9  28   1    4.20   10.30
  -9  28   1  -13.70   17.90
  -8 -28   1   -1.30   10.30
  -8 -28   1    5.20    8.00
  -8 -28   1   14.00   14.90
  -8  28   1  -14.90   12.50
  -8  28   1    6.00    8.10
  -8  28   1    1.50   15.70
  -7 -28   1   23.80    6.60
  -7 -28   1   18.70   12.90
  -7 -28   1   22.60    7.90
  -7  28   1   17.50   13.00
  -7  28   1   22.30    7.40
  -7  28   1   23.70   10.00
  -6 -28   1  138.79    7.80
  -6 -28   1  126.59   19.00
  -6  28   1  125.49   11.40
  -6  28   1  146.19   21.70
  -6  28   1  141.59   10.10
  -5 -28   1    7.80    9.60
  -5  28   1   32.50   12.00
  -4 -28   1   37.70   10.00
  -4  28   1   21.20    9.90
  -3 -28   1   -2.20    5.70
  -3 -28   1    0.30    7.70
  -3  28   1    2.50    7.30
  -2 -28   1   27.50    7.70
  -2 -28   1   34.70    7.20
  -2  28   1   45.40   10.70
  -1 -28   1  112.69    9.80
  -1 -28   1   89.69    8.80
   1  28  -1  117.39    8.20
  -1  28   1   84.29   12.30
   0 -28  -1   89.39    7.60
   0 -28  -1   87.89    7.50
   0  28   1   97.89   10.90
   0  28  -1   87.79    9.60
  -1 -28  -1   17.50    6.30
  -1 -28  -1   20.40    6.30
  -1 -28  -1   22.90    6.00
  -1  28  -1   21.40    6.80
   1  28   1   25.30    6.30
  -2 -28  -1    3.50    5.10
  -2 -28  -1   -4.90    6.60
  -2 -28  -1   -0.50    5.80
  -2  28  -1    4.30    6.60
   2  28   1    9.90    4.80
  -3 -28  -1   58.29    8.90
  -3 -28  -1   27.10   10.60
  -3 -28  -1   54.99   11.10
  -3  28  -1   51.09   10.80
   3  28   1   72.59    9.20
  -4 -28  -1  165.88   17.60
  -4 -28  -1  114.99   11.90
  -4  28  -1  115.99   17.00
  -5 -28  -1   25.50    8.60
  -5 -28  -1    7.20   10.20
  -5  28  -1   24.70   11.70
  -5  28  -1   28.70    4.40
  -6 -28  -1   42.90   14.00
  -6 -28  -1   62.89   12.40
  -6  28  -1   34.90    7.10
  -6  28  -1   52.79   15.20
  -6  28  -1   45.10    8.50
  -7 -28  -1   40.30   14.30
  -7 -28  -1   38.60   16.20
  -7  28  -1   27.10    8.50
  -7  28  -1   29.50   10.80
  -7  28  -1   15.70   12.90
  -8 -28  -1    6.50   17.30
  -8 -28  -1  -23.10   17.80
  -8  28  -1    5.70    9.50
  -8  28  -1   10.40   13.80
  -8  28  -1   30.10   18.60
  -9 -29   1   15.40   11.00
  -9 -29   1   16.50   18.40
  -9  29   1   -6.80   10.40
  -9  29   1  -16.20   20.00
  -8 -29   1  561.54   23.70
  -8 -29   1  535.35   40.00
  -8  29   1  532.75   25.80
  -8  29   1  550.24   42.10
  -8  29   1  599.94   31.10
  -7 -29   1  577.74   19.70
  -7 -29   1  596.24   38.40
  -7 -29   1  578.44   20.20
  -7  29   1  604.94   40.90
  -7  29   1  533.75   25.40
  -7  29   1  539.15   22.50
  -6 -29   1    5.90   10.30
  -6  29   1    2.10    4.10
  -6  29   1    8.60    5.20
  -6  29   1   12.90   10.80
  -5 -29   1  469.25   28.90
  -5  29   1  470.25   31.60
  -4 -29   1 1026.30   41.30
  -4  29   1 1109.79   47.90
  -3 -29   1  105.69   14.70
  -3 -29   1  122.29   12.70
  -3  29   1  102.29   15.20
  -2 -29   1  846.12   32.10
  -2 -29   1  854.31   30.30
  -2  29   1  882.51   38.20
  -1 -29   1 2633.04   63.79
  -1 -29   1 2685.53   65.29
  -1  29   1 2695.53   75.89
   1  29  -1 2681.53   62.39
   0 -29  -1  307.77   13.20
   0 -29  -1  289.17   12.80
   0  29  -1  286.97   16.00
   0  29   1  297.67   18.10
  -1 -29  -1  642.24   24.60
  -1 -29  -1  596.34   24.30
  -1 -29  -1  525.05   23.30
   1  29   1  618.84   25.00
  -1  29  -1  653.13   28.00
  -2 -29  -1  887.81   30.10
  -2 -29  -1  897.21   34.20
  -2 -29  -1  847.82   34.20
  -2  29  -1  857.41   36.10
   2  29   1  933.01   30.90
  -3 -29  -1  189.78   13.60
  -3 -29  -1  202.58   20.70
  -3 -29  -1  186.78   17.60
  -3  29  -1  221.68   19.20
   3  29   1  217.28   13.80
  -4 -29  -1  117.69   11.90
  -4 -29  -1   83.19   14.60
  -4  29  -1  126.79   18.20
  -5 -29  -1 1033.20   46.30
  -5 -29  -1  917.91   33.80
  -5  29  -1  975.40   45.90
  -6 -29  -1  331.67   22.20
  -6 -29  -1  298.67   28.70
  -6  29  -1  309.57   27.70
  -6  29  -1  296.37   14.40
  -6  29  -1  318.37   15.70
  -7 -29  -1    9.50   15.40
  -7 -29  -1    6.40   12.90
  -7  29  -1   -3.30    9.20
  -7  29  -1   19.10   14.30
  -7  29  -1    2.90    7.40
  -8 -29  -1  281.47   32.50
  -8  29  -1  264.27   33.40
  -8  29  -1  296.17   20.90
  -8 -30   1   65.19   19.30
  -8  30   1   57.39   13.90
  -8  30   1   97.29   23.30
  -8  30   1   72.39   11.30
  -7 -30   1    7.20   13.20
  -7  30   1   33.30   16.90
  -7  30   1   34.80    7.40
  -7  30   1   22.10    8.40
  -6 -30   1  203.08   22.70
  -6  30   1  225.08    9.20
  -6  30   1  170.58   24.10
  -5 -30   1   90.99   15.00
  -5  30   1  113.09   19.20
  -4 -30   1   -7.00    6.50
  -4  30   1    4.50    9.30
  -3 -30   1  490.75   24.80
  -3 -30   1  451.35   26.30
  -3  30   1  468.65   28.60
  -2 -30   1  323.17   17.30
  -2 -30   1  294.37   18.60
  -2  30   1  296.37   22.00
  -1 -30   1  167.18   10.80
  -1 -30   1  211.98   12.80
   1  30  -1  191.18   10.50
  -1  30   1  183.98   17.00
   0 -30  -1  750.92   23.20
   0 -30  -1  766.22   23.10
   0  30  -1  773.02   28.10
   0  30   1  753.82   30.70
  -1 -30  -1  566.54   23.50
  -1 -30  -1  558.74   23.50
  -1 -30  -1  506.75   22.50
  -1  30  -1  559.04   26.10
   1  30   1  578.94   24.20
  -2 -30  -1   29.90    9.20
  -2 -30  -1   22.30    6.90
  -2 -30  -1   13.00    7.20
  -2  30  -1   20.50    8.60
   2  30   1   24.90    6.60
  -3 -30  -1  299.77   16.70
  -3 -30  -1  295.87   20.90
  -3 -30  -1  324.37   27.70
  -3  30  -1  306.67   22.70
   3  30   1  326.07   16.90
  -4 -30  -1  621.94   33.60
  -4 -30  -1  672.23   25.90
  -4  30  -1  630.14   35.00
  -5 -30  -1   61.09   15.30
  -5 -30  -1   82.39   11.70
  -5  30  -1   77.89   16.70
  -6 -30  -1  126.59   20.70
  -6 -30  -1  149.79   16.50
  -6  30  -1  132.99    8.90
  -6  30  -1  115.69   20.30
  -6  30  -1  115.19    9.40
  -7 -30  -1  156.88   18.90
  -7 -30  -1  143.79   23.40
  -7  30  -1  117.09   22.20
  -7  30  -1  160.28   13.50
  -7  30  -1  126.69   13.70
  -8 -30  -1    3.10   18.50
  -8  30  -1   -0.40    9.30
  -8  30  -1    9.20   17.90
  -8 -31   1  135.29   25.50
  -8  31   1  173.98   19.30
  -8  31   1   94.49   26.20
  -8  31   1  173.18   15.20
  -7 -31   1  111.19   21.10
  -7  31   1  110.29   12.40
  -7  31   1  129.79   24.80
  -7  31   1  118.29   10.30
  -6 -31   1   -5.00   10.40
  -6  31   1    2.80   10.50
  -5 -31   1   80.99   14.80
  -5  31   1   75.19   16.20
  -4 -31   1  275.77   20.50
  -4  31   1  239.28   23.60
  -3 -31   1    6.10    9.40
  -3 -31   1   28.90    9.20
  -3  31   1   -0.20    8.50
  -2 -31   1  175.88   13.40
  -2 -31   1  157.88   14.80
  -2  31   1  180.98   17.50
  -1 -31   1  116.89    9.20
  -1 -31   1  106.49   10.30
   1  31  -1  122.39    8.80
  -1  31   1  113.09   14.90
   0 -31  -1  147.49    9.00
   0 -31  -1  129.49    8.80
   0  31  -1  118.59   11.70
   0  31   1  136.99   13.90
  -1 -31  -1   12.50    6.80
  -1 -31  -1    7.70    6.20
   1  31   1   11.10    5.80
  -1  31  -1    4.80    5.80
  -2 -31  -1  143.89   12.30
  -2 -31  -1  144.89   15.00
  -2 -31  -1  144.19   14.30
  -2  31  -1  146.69   15.80
   2  31   1  152.28   12.30
  -3 -31  -1  116.69   11.30
  -3 -31  -1  120.79   15.70
  -3  31  -1  122.89   16.80
   3  31   1  121.69   11.00
  -4 -31  -1    6.20    9.60
  -4 -31  -1   10.90    7.00
  -4  31  -1    6.50    9.70
  -5 -31  -1  139.09   20.80
  -5 -31  -1  153.18   15.00
  -5  31  -1  130.59   21.10
  -6 -31  -1   66.79   12.50
  -6 -31  -1   79.29   18.70
  -6  31  -1   43.60   17.00
  -7 -31  -1    3.80   16.40
  -7 -31  -1   10.30   13.80
  -7  31  -1   17.30   15.40
  -7  31  -1   -2.70    7.50
  -7  31  -1    0.90    6.60
  -8 -31  -1   49.30   23.30
  -8  31  -1   23.60   18.50
  -8  31  -1   42.70   10.60
  -8 -32   1  118.39   25.70
  -8  32   1   97.59   11.40
  -8  32   1   94.29   21.70
  -8  32   1  147.99   17.00
  -7 -32   1   86.49   20.70
  -7  32   1   59.29   20.10
  -7  32   1   86.89    7.50
  -6 -32   1  672.13   37.90
  -6  32   1  609.54   39.70
  -5 -32   1  290.37   23.80
  -5  32   1  286.87   27.00
  -4 -32   1   27.40    9.80
  -4  32   1   32.00   11.30
  -3 -32   1 1231.28   45.90
  -3 -32   1 1275.37   43.60
  -3  32   1 1249.47   51.19
  -2 -32   1  718.13   29.90
  -2 -32   1  807.22   29.20
  -2  32   1  731.83   35.80
  -1 -32   1  243.88   12.40
  -1 -32   1  276.37   14.40
   1  32  -1  233.28   12.00
  -1  32   1  223.58   18.90
   0 -32  -1 1976.60   47.30
   0 -32  -1 1986.70   47.50
   0  32  -1 1979.60   55.09
   0  32   1 1978.20   59.09
  -1 -32  -1  988.10   32.90
  -1  32  -1  808.42   34.60
   1  32   1 1072.49   35.10
  -2 -32  -1   -5.80    5.90
  -2 -32  -1   -2.80    5.50
  -2 -32  -1   -5.70    8.00
  -2  32  -1  -12.60    6.30
   2  32   1  -11.80    5.40
  -3 -32  -1  834.62   28.90
  -3 -32  -1  846.52   37.00
   3  32   1  848.82   29.10
  -3  32  -1  841.52   39.40
  -4 -32  -1  968.90   43.20
  -4 -32  -1 1016.90   33.20
  -4  32  -1  999.20   46.00
  -5 -32  -1   47.80    9.90
  -5 -32  -1   28.90   12.60
  -5  32  -1   56.69   15.00
  -6 -32  -1  266.97   20.40
  -6 -32  -1  285.37   28.50
  -6  32  -1  252.97   28.60
  -7 -32  -1  586.14   41.70
  -7  32  -1  517.95   18.90
  -7  32  -1  506.45   18.00
  -8 -33   1   69.39   21.70
  -8  33   1   66.69   10.30
  -8  33   1   73.89   22.80
  -8  33   1   61.69    8.60
  -7 -33   1   85.69   20.40
  -7  33   1   65.79   19.40
  -6 -33   1   -6.00   11.70
  -6  33   1   -2.20   11.50
  -5 -33   1  130.39   19.00
  -5  33   1   88.19   19.30
  -4 -33   1   90.79   13.90
  -4  33   1   64.59   14.90
  -3 -33   1    1.80   11.20
  -3 -33   1    9.20    7.20
  -3  33   1   16.80   10.60
  -2 -33   1    1.40    5.60
  -2 -33   1   10.40    7.90
  -2  33   1    7.40    8.10
  -1 -33   1  408.46   16.30
  -1 -33   1  428.96   18.00
  -1  33   1  442.06   25.50
   1  33  -1  393.66   16.10
   0 -33  -1    7.50    3.90
   0  33  -1    8.50    5.80
   0  33   1   23.50    8.40
  -1 -33  -1   53.09    9.30
  -1  33  -1   45.40   10.40
   1  33   1   68.69   10.30
  -2 -33  -1  149.99   16.80
  -2 -33  -1  174.78   13.00
  -2 -33  -1  174.98   15.20
   2  33   1  160.58   13.40
  -2  33  -1  155.78   17.00
  -3 -33  -1   39.90    8.40
  -3 -33  -1   42.50   10.90
  -3  33  -1   29.40   11.70
   3  33   1   23.10    6.70
  -4 -33  -1    0.70    9.60
  -4 -33  -1   -8.80    6.70
  -4  33  -1   11.90   10.70
  -5 -33  -1  125.79   14.10
  -5 -33  -1  174.48   23.10
  -5  33  -1  155.78   22.80
  -6 -33  -1  127.79   22.20
  -6 -33  -1   91.19   13.40
  -6  33  -1   85.59   20.00
  -7 -33  -1    2.90   17.00
  -7 -33  -1  -22.80   17.00
  -7  33  -1   24.60   18.10
  -8 -34   1   17.00   19.30
  -8  34   1   13.40   20.30
  -7 -34   1   66.59   18.30
  -7  34   1   52.19   18.20
  -6 -34   1  173.88   23.60
  -6  34   1  172.58   25.00
  -5 -34   1  215.98   21.50
  -5  34   1  205.08   27.40
  -4 -34   1    4.30    8.80
  -4  34   1   18.40   12.00
  -3 -34   1  460.85   24.70
  -3  34   1  469.55   31.30
  -2 -34   1  428.56   22.30
  -2 -34   1  458.95   23.20
  -2  34   1  398.36   26.50
  -1 -34   1   49.80    6.30
  -1 -34   1   53.89    7.50
  -1  34   1   22.20    9.00
   1  34  -1   40.20    6.40
   0 -34  -1  597.54   18.60
   0 -34  -1  650.53   19.10
   0  34   1  655.53   29.50
   0  34  -1  626.24   26.30
  -1 -34  -1  179.38   16.40
  -1 -34  -1  208.68   15.00
  -1  34  -1  218.58   17.50
   1  34   1  198.18   14.90
  -2 -34  -1    7.90    9.40
  -2 -34  -1   16.10    6.80
  -2 -34  -1   14.40    7.50
   2  34   1    1.30    6.20
  -2  34  -1    8.40    8.40
  -3 -34  -1  405.46   25.00
  -3 -34  -1  417.16   19.40
  -3  34  -1  398.76   27.10
   3  34   1  386.16   18.60
  -4 -34  -1  224.78   21.90
  -4 -34  -1  254.07   15.30
  -4  34  -1  203.38   25.20
  -5 -34  -1    7.30   12.20
  -5 -34  -1   24.50    8.90
  -5  34  -1   19.30   13.30
  -6 -34  -1   58.19   17.40
  -6 -34  -1   82.19   12.50
  -6  34  -1   50.99   18.30
  -7 -34  -1  259.07   31.60
  -7  34  -1  236.28   32.30
  -7 -35   1  450.65   36.00
  -7  35   1  368.46   35.20
  -6 -35   1   28.70   14.00
  -6  35   1   37.80   16.20
  -5 -35   1  393.86   28.00
  -5  35   1  394.76   33.40
  -4 -35   1  482.95   28.00
  -4  35   1  442.96   33.30
  -3 -35   1   66.29   11.40
  -3  35   1  105.59   18.40
  -2 -35   1  596.44   27.60
  -2  35   1  648.34   34.20
  -1 -35   1 1429.26   39.30
  -1 -35   1 1466.65   37.80
   1  35  -1 1468.35   38.70
  -1  35   1 1464.25   52.09
   0 -35  -1  553.44   16.80
   0 -35  -1  552.04   16.60
   0  35  -1  573.64   24.80
   0  35   1  550.94   27.60
  -1 -35  -1  443.76   21.10
  -1 -35  -1  451.45   20.10
   1  35   1  417.56   21.90
  -1  35  -1  479.15   25.70
  -2 -35  -1  916.41   37.60
  -2 -35  -1  994.60   36.80
   2  35   1  983.90   33.20
  -2  35  -1  980.50   41.00
  -3 -35  -1  413.26   25.40
  -3 -35  -1  374.86   18.30
   3  35   1  398.66   18.80
  -3  35  -1  394.66   27.60
  -4 -35  -1  128.99   12.30
  -4 -35  -1  149.49   19.50
  -4  35  -1  159.98   22.20
  -5 -35  -1  702.23   39.70
  -5 -35  -1  663.13   25.60
  -5  35  -1  704.23   42.30
  -6 -35  -1  252.17   29.10
  -6  35  -1  306.17   31.60
  -7 -35  -1   44.30   20.50
  -7  35  -1   43.10   19.50
  -7 -36   1   -9.30   16.20
  -7  36   1   -4.60   15.70
  -6 -36   1  -17.10   13.30
  -6  36   1    8.40   14.30
  -5 -36   1   -4.10   10.60
  -5  36   1  -11.80   13.20
  -4 -36   1    3.50    9.60
  -4  36   1    3.10   11.90
  -3 -36   1    3.80    7.40
  -3  36   1   12.80   11.30
  -2 -36   1  144.49   15.70
  -2  36   1   99.69   16.90
  -1 -36   1    8.40    5.80
  -1 -36   1   18.50    5.00
   1  36  -1    9.50    5.10
  -1  36   1   29.50   10.60
   0 -36  -1  206.78    8.20
   0  36  -1  208.78   15.60
   0  36   1  164.98   16.80
  -1 -36  -1   69.49   10.20
  -1 -36  -1   70.09    9.00
   1  36   1   81.49   11.30
  -1  36  -1   61.49   11.90
  -2 -36  -1   15.90    8.20
  -2  36  -1   -6.10    9.20
   2  36   1   18.00    7.30
  -3 -36  -1   51.49   12.30
  -3 -36  -1   69.39    9.20
  -3  36  -1   52.09   13.80
   3  36   1   57.39    9.10
  -4 -36  -1    7.90   11.30
  -4 -36  -1    9.50    7.20
  -4  36  -1   -8.30   11.20
  -5 -36  -1    0.20    7.50
  -5 -36  -1    5.20   12.90
  -5  36  -1   -2.40   12.90
  -6 -36  -1   68.19   19.30
  -6 -36  -1   12.40    9.70
  -6  36  -1   37.30   18.00
  -7 -36  -1  -23.30   17.90
  -7  36  -1   12.60   18.50
  -7 -37   1  171.58   26.50
  -7  37   1  229.58   31.30
  -6 -37   1   16.60   14.80
  -6  37   1   17.40   15.00
  -5 -37   1  274.57   24.60
  -5  37   1  274.47   28.00
  -4 -37   1  474.05   28.40
  -4  37   1  454.15   33.90
  -3 -37   1   -3.50    7.90
  -3  37   1    3.50   10.20
  -2 -37   1  349.17   27.50
  -2 -37   1  414.46   23.40
  -2  37   1  433.16   28.70
  -1 -37   1 1201.68   30.90
  -1 -37   1 1133.09   31.80
   1  37  -1 1144.39   32.40
  -1  37   1 1218.48   46.30
   0  37   1  253.17   19.50
   0  37  -1  230.28   16.40
  -1 -37  -1  246.38   16.40
  -1 -37  -1  242.38   15.00
   1  37   1  259.77   17.70
  -1  37  -1  269.67   20.00
  -2 -37  -1  624.04   28.10
  -2  37  -1  627.24   33.30
   2  37   1  621.84   25.60
  -3 -37  -1  115.89   16.40
   3  37   1  100.29   11.50
  -3  37  -1  114.89   18.00
  -4 -37  -1   72.39   15.50
  -4 -37  -1   66.39    8.80
  -4  37  -1   67.89   17.30
  -5 -37  -1  322.47   29.70
  -5  37  -1  327.47   30.70
  -6 -37  -1  177.18   26.60
  -6  37  -1  119.39   24.20
  -6 -38   1  495.85   36.40
  -6  38   1  481.35   38.60
  -5 -38   1  116.79   19.10
  -5  38   1  141.89   24.60
  -4 -38   1   47.30   12.30
  -4  38   1   32.20   15.40
  -3 -38   1  578.94   28.70
  -3  38   1  596.14   36.30
  -2 -38   1  199.18   14.70
  -2 -38   1  185.28   17.60
  -2  38   1  178.98   22.50
  -1 -38   1    9.80    4.50
  -1 -38   1   18.00    5.50
  -1  38   1   29.50   10.70
   1  38  -1   13.20    5.30
   0  38   1  388.56   23.70
   0  38  -1  380.46   20.60
  -1 -38  -1  556.34   22.40
  -1 -38  -1  575.84   23.50
  -1  38  -1  539.65   28.30
   1  38   1  571.24   26.40
  -2 -38  -1    7.90    7.70
  -2  38  -1   -0.90    9.70
   2  38   1    5.30    7.30
  -3 -38  -1  483.75   28.00
  -3  38  -1  421.56   29.80
  -4 -38  -1  577.74   34.00
  -4  38  -1  601.44   38.20
  -5 -38  -1    9.30   13.80
  -5 -38  -1    3.40    6.30
  -5  38  -1    3.10   14.70
  -6 -38  -1  286.07   30.80
  -6  38  -1  237.48   32.00
  -6 -39   1   22.00   16.30
  -6  39   1  -36.20   16.00
  -5 -39   1   34.00   14.40
  -5  39   1   25.70   17.20
  -4 -39   1   43.40   12.80
  -4  39   1   33.00   14.70
  -3 -39   1   -1.80    8.40
  -3  39   1    5.90   12.50
  -2 -39   1    9.90   10.00
  -2 -39   1   -2.20    6.60
  -2  39   1    3.00   11.40
   1  39  -1   -2.10    4.80
  -1  39   1    6.80    9.70
   0  39  -1   22.90    8.60
   0  39   1   19.90    9.70
  -1 -39  -1    5.80    7.60
  -1 -39  -1    6.40    6.30
   1  39   1    5.00    8.60
  -1  39  -1    5.40    9.10
  -2 -39  -1   -8.10    7.10
  -2  39  -1    6.80   10.50
   2  39   1   -3.70    7.30
  -3 -39  -1   -4.00   10.00
  -3  39  -1   12.70   11.70
  -4 -39  -1    9.50   12.50
  -4  39  -1   16.30   13.90
  -5 -39  -1   28.80   15.70
  -5  39  -1    2.10   13.90
  -6 -39  -1   25.90   18.00
  -6  39  -1   12.80   16.40
  -6 -40   1  351.06   34.10
  -6  40   1  397.46   37.90
  -5 -40   1  172.98   22.70
  -5  40   1  156.28   26.70
  -4 -40   1   76.99   15.50
  -4  40   1  107.69   21.80
  -3 -40   1  651.73   30.20
  -3  40   1  567.54   36.80
  -2 -40   1  261.97   16.60
  -2 -40   1  276.97   19.90
  -2  40   1  245.88   25.50
   1  40  -1    2.00    5.00
  -1  40   1   11.80   10.70
   0  40  -1  511.75   24.40
   0  40   1  524.55   28.30
  -1 -40  -1  656.03   24.50
  -1 -40  -1  651.93   24.90
  -1  40  -1  733.93   33.70
   1  40   1  702.03   30.30
  -2  40  -1   46.30   13.30
   2  40   1   17.80    8.20
  -3 -40  -1  505.15   29.90
  -3  40  -1  530.85   34.00
  -4 -40  -1  481.45   32.30
  -4  40  -1  460.05   34.80
  -5 -40  -1   -6.70   15.90
  -5  40  -1   37.40   17.80
  -5 -41   1   33.10   16.80
  -5  41   1   95.19   22.20
  -4 -41   1   93.99   16.10
  -4  41   1  140.29   24.10
  -3 -41   1   -8.80    8.80
  -3  41   1    6.50   14.00
  -2 -41   1  297.27   22.20
  -2 -41   1  323.57   17.70
  -2  41   1  319.37   28.50
   1  41  -1  340.37   13.60
  -1  41   1  387.96   26.70
   1  41  -1  352.96   14.10
   0  41   1   56.29   13.30
   0  41  -1   56.69   11.10
  -1 -41  -1   84.89   10.00
  -1 -41  -1   91.79   10.70
  -1  41  -1   74.59   14.40
   1  41   1   74.49   12.40
   2  41   1  457.75   21.50
  -2  41  -1  431.66   30.10
  -3 -41  -1  158.98   19.40
  -3  41  -1  179.38   23.60
  -4 -41  -1   32.20   15.60
  -4  41  -1   31.50   17.70
  -5 -41  -1  206.48   27.50
  -5  41  -1  214.88   29.90
  -5 -42   1   -2.50   15.00
  -5  42   1   16.40   18.00
  -4 -42   1   -4.70   11.90
  -4  42   1   14.10   15.70
  -3  42   1  110.89   21.30
  -2 -42   1   21.00    8.20
  -2  42   1   55.99   16.20
  -1  42   1    0.00   11.30
   0  42   1  157.18   18.50
   0  42  -1  136.39   15.30
  -1 -42  -1  113.19   11.20
  -1 -42  -1  121.49   11.90
  -1  42  -1  163.68   19.30
   1  42   1  139.19   16.10
  -2 -42  -1   -5.40    8.80
   2  42   1   15.20    8.60
  -2  42  -1    2.40   12.80
  -3  42  -1  110.99   22.00
  -4 -42  -1   15.50   14.10
  -4  42  -1   48.20   18.60
  -5 -42  -1   15.50   17.50
  -5  42  -1  -34.70   17.70
  -3  43   1   19.20   15.20
  -1  43   1  625.84   35.80
   0  43  -1  104.09   13.20
   0  43   1  103.99   16.00
  -1 -43  -1   38.40    7.60
  -1 -43  -1   35.10    7.10
   1  43   1   59.19   12.40
  -1  43  -1   41.60   13.50
  -2  43  -1  644.94   36.00
   2  43   1  615.24   24.90
  -3  43  -1  230.68   27.90
  -4 -43  -1   -1.60   14.40
  -4  43  -1  111.59   22.50
  -4 -44   1   -0.70   12.60
  -4  44   1   52.29   19.40
  -3  44   1  162.18   25.20
  -2  44   1   28.80   16.00
  -1  44   1   16.80   14.20
   0  44  -1   39.80   10.50
   0  44   1   44.90   13.40
  -1  44  -1   93.09   16.30
   1  44   1  102.29   14.50
  -2 -44  -1   10.20    9.50
   2  44   1   13.80    8.50
  -2  44  -1   -6.20   13.30
  -3 -44  -1   -0.70   12.60
  -3  44  -1   88.49   20.60
  -4 -44  -1   -2.70   17.00
  -4  44  -1   30.80   19.40
  -4  45   1  100.59   23.80
  -3  45   1   34.20   18.90
  -2 -45   1   -3.80    8.30
  -2  45   1   50.49   18.50
  -1  45   1  208.78   23.00
   0  45  -1   73.59   11.90
   0  45   1   59.09   15.20
  -1  45  -1   95.89   16.20
   1  45   1   96.19   14.40
   2  45   1   75.49   10.20
  -2  45  -1   95.69   18.40
  -3  45  -1   38.30   17.90
  -3  46   1  489.05   38.70
  -2  46   1  280.17   29.40
  -1  46   1    4.50   14.10
   0  46   1  536.35   30.20
   0  46  -1  483.85   23.90
   1  46   1  483.85   25.80
  -1  46  -1  523.65   30.50
  -2  46  -1   19.20   16.10
  -2  47   1   19.00   18.10
  -1  47   1   26.30   15.50
   0  47  -1   11.60   10.70
   0  47   1    6.00   14.20
   1  47   1   34.30   12.50
  -1  47  -1   32.90   14.00
 -11   0   2  293.07   34.00
 -11   0   2  304.17   32.20
 -10   0   2   70.09   19.30
 -10   0   2   78.39   18.30
  -9   0   2  827.62   43.00
  -9   0   2  765.42   42.50
  -8   0   2 1735.73   62.49
  -8   0   2 1811.62   64.99
  -7   0   2   76.69   13.80
  -7   0   2   53.89   11.20
   7   0  -2   68.29   16.70
  -6   0   2  807.72   33.30
  -6   0   2  717.53   32.90
   6   0  -2  763.52   37.00
   5   0  -2 2037.40   63.09
  -5   0   2 2006.70   58.19
  -5   0   2 2020.50   59.69
  -4   0   2 1841.52   53.69
   4   0  -2 1886.11   55.69
  -4   0   2 2015.90   53.89
  -3   0   2   62.09    6.50
  -3   0   2   61.19    6.90
   3   0  -2   74.49    7.70
  -1   0   2  198.18    9.60
  -1   0   2  204.88    9.70
   1   0  -2  179.08    9.10
   1   0  -2  210.58    9.50
   0   0   2 4410.16   98.29
   0   0  -2 4615.54   98.59
   0   0   2 4345.57   98.39
   0   0  -2 4518.85   97.99
  -1   0  -2 2010.90   51.19
  -1   0  -2 2014.20   51.09
   1   0   2 1994.90   51.39
  -2   0  -2  211.18   13.00
   2   0   2  190.08   12.40
   2   0   2  216.78   13.20
  -2   0  -2  215.38   13.20
   3   0   2 1502.05   46.90
  -3   0  -2 1462.35   46.70
  -3   0  -2 1444.76   46.40
  -4   0  -2 4937.61  125.19
   4   0   2 4902.71  122.99
  -4   0  -2 5018.50  124.49
  -4   0  -2 5118.89  124.39
  -5   0  -2  417.96   25.80
  -5   0  -2  358.76   24.40
  -5   0  -2  366.06   24.70
  -6   0  -2   96.09   17.90
  -6   0  -2   79.89   14.80
  -6   0  -2   89.99   16.50
  -7   0  -2 1421.26   59.09
  -7   0  -2 1380.56   60.19
  -8   0  -2  410.36   32.50
  -9   0  -2   17.20   13.80
 -10   0  -2  475.55   42.00
 -11  -1   2   42.80   18.20
 -11  -1   2   38.40   17.20
 -11   1   2   79.29   22.60
 -11   1   2   78.39   20.70
 -10  -1   2   51.79   14.80
 -10  -1   2   87.19   19.00
 -10   1   2   82.49   18.20
 -10   1   2   68.69   17.50
  -9  -1   2    5.50    9.40
  -9  -1   2   -6.00    8.60
  -9   1   2   15.00   10.70
  -9   1   2   -4.30    9.30
  -8  -1   2   99.79   16.50
  -8  -1   2   88.89   15.10
  -8   1   2   86.19   15.60
  -8   1   2   96.99   16.70
   7  -1  -2  439.96   30.70
  -7  -1   2  466.65   26.30
  -7  -1   2  456.95   27.90
  -7   1   2  430.86   27.00
  -7   1   2  437.76   26.20
   7   1  -2  484.65   33.30
  -6  -1   2    4.80    6.10
   6  -1  -2    4.70    7.90
  -6  -1   2   14.90    6.50
  -6   1   2    5.90    5.90
  -6   1   2   13.20    6.10
   6   1  -2   20.80    9.70
  -5  -1   2   28.70    7.20
  -5  -1   2   32.90    7.80
   5  -1  -2   25.70    7.70
   5   1  -2   11.50    5.80
  -5   1   2   27.00    6.60
  -5   1   2   32.70    7.40
  -4  -1   2  123.79   10.30
  -4  -1   2  127.39   10.90
   4  -1  -2  115.49   10.80
   4   1  -2  105.09   10.70
  -4   1   2  114.79   10.20
  -4   1   2  126.19   10.50
   3  -1  -2 2502.85   63.39
  -3  -1   2 2512.25   61.49
  -3  -1   2 2454.65   62.89
   3   1  -2 2507.05   64.09
  -3   1   2 2431.86   62.49
  -3   1   2 2426.26   62.19
   2  -1  -2  524.95   18.60
   2  -1  -2  475.15   18.20
  -2  -1   2  510.25   18.90
  -2  -1   2  491.75   17.50
   2   1  -2  489.75   18.50
  -2   1   2  485.95   18.30
  -2   1   2  467.55   18.10
   2   1  -2  480.05   17.30
   1  -1  -2 1088.49   29.00
  -1  -1   2 1031.00   28.80
  -1  -1   2 1048.10   28.20
   1  -1  -2 1070.49   28.50
   1   1  -2 1031.90   27.80
  -1   1   2 1042.00   28.90
   1   1  -2 1009.30   28.30
   0  -1  -2   85.49    6.20
   0  -1  -2   81.29    6.20
   0  -1   2   90.89    6.40
   0  -1   2   83.09    6.20
   0   1   2   71.89    5.90
   0   1   2   78.59    6.10
   0   1  -2   77.09    5.80
   0   1  -2   89.19    6.30
  -1  -1  -2   89.09    7.50
   1  -1   2   70.99    6.50
  -1  -1  -2   71.59    6.60
   1  -1   2   88.69    7.40
   1   1   2   79.19    6.90
  -1   1  -2   77.29    6.60
   1   1   2   75.69    7.20
  -1   1  -2   72.79    6.80
  -2  -1  -2  607.84   24.00
   2  -1   2  621.64   24.20
  -2  -1  -2  653.93   25.10
   2   1   2  634.44   24.40
  -2   1  -2  619.54   23.90
  -2   1  -2  611.34   24.20
   2   1   2  607.14   24.20
   3  -1   2 2345.37   64.39
  -3  -1  -2 2335.67   64.49
  -3  -1  -2 2034.80   63.09
  -3   1  -2 2409.16   65.69
  -3   1  -2 2436.16   65.29
   3   1   2 2295.97   64.59
  -4  -1  -2  410.96   24.70
  -4  -1  -2  419.96   24.10
  -4  -1  -2  434.56   23.90
   4  -1   2  408.16   22.80
  -4   1  -2  424.76   24.60
   4   1   2  444.56   24.20
  -4   1  -2  384.16   22.80
  -4   1  -2  402.36   23.20
  -5  -1  -2  856.41   38.00
  -5  -1  -2  738.13   37.00
  -5  -1  -2  819.72   38.80
  -5   1  -2  829.62   38.00
  -5   1  -2  816.02   37.50
  -5   1  -2  930.81   39.60
  -6  -1  -2  298.87   23.90
  -6  -1  -2  272.17   24.80
  -6  -1  -2  314.17   25.20
  -6   1  -2  288.87   25.50
  -6   1  -2  271.07   25.60
  -6   1  -2  292.17   24.20
  -7  -1  -2   28.70   15.00
  -7  -1  -2   15.20    9.80
  -7   1  -2   29.90   15.60
  -7   1  -2   28.10   10.60
  -8  -1  -2   21.20   13.80
  -8   1  -2   30.80   13.60
  -9  -1  -2  142.49   24.30
  -9   1  -2   83.99   20.60
 -10  -1  -2   13.60   16.30
 -10   1  -2   45.80   19.50
 -11  -2   2  103.19   23.80
 -11  -2   2   31.20   18.00
 -11   2   2   38.10   16.90
 -11   2   2  109.79   25.20
 -10  -2   2   26.70   13.30
 -10  -2   2   42.80   14.10
 -10   2   2   16.10   13.80
 -10   2   2   12.60   13.20
  -9  -2   2  317.37   25.70
  -9  -2   2  349.37   28.10
  -9   2   2  285.27   25.70
  -9   2   2  288.57   26.00
  -8  -2   2  568.44   31.90
  -8  -2   2  585.44   33.60
  -8   2   2  535.75   31.90
  -8   2   2  516.05   31.30
   7  -2  -2   64.29   14.90
  -7  -2   2   41.10   10.20
  -7  -2   2   53.59   11.50
  -7   2   2   85.49   13.90
   7   2  -2   57.89   15.20
  -7   2   2   50.59   12.20
  -6  -2   2  844.42   35.50
   6  -2  -2  756.82   37.20
  -6  -2   2  780.02   32.40
   6   2  -2  783.42   38.40
  -6   2   2  814.32   34.50
  -6   2   2  742.53   33.20
  -5  -2   2 2233.78   63.49
  -5  -2   2 2049.09   59.29
   5  -2  -2 2179.18   65.29
   5   2  -2 2029.40   64.89
  -5   2   2 2209.48   62.19
  -5   2   2 2107.69   61.49
  -4  -2   2  170.58   11.60
   4  -2  -2  167.88   13.00
  -4  -2   2  203.58   13.80
  -4   2   2  193.08   13.30
   4   2  -2  168.28   13.50
  -4   2   2  194.98   13.20
   3  -2  -2 1480.75   42.30
  -3  -2   2 1478.85   42.40
   3  -2  -2 1442.36   41.90
  -3  -2   2 1465.45   40.10
  -3   2   2 1432.36   41.80
   3   2  -2 1500.25   43.40
  -3   2   2 1467.75   41.80
  -2  -2   2 1227.38   33.20
   2  -2  -2 1217.38   34.50
   2  -2  -2 1255.17   35.10
  -2  -2   2 1276.67   35.70
   2   2  -2 1248.48   35.30
   2   2  -2 1236.88   33.20
  -2   2   2 1255.97   34.80
  -2   2   2 1266.57   35.80
  -1  -2   2  255.47   10.60
   1  -2  -2  271.37   11.20
  -1  -2   2  269.47   11.60
  -1   2   2  269.07   11.40
   1   2  -2  264.77   11.40
   1   2  -2  265.97   10.60
  -1   2   2  269.67   11.90
   0  -2   2   60.19    5.40
   0  -2   2   71.19    5.50
   0  -2  -2   56.29    5.10
   0  -2  -2   54.59    5.20
   0   2   2   46.20    4.90
   0   2   2   53.89    5.10
   0   2  -2   67.29    5.20
   0   2  -2   66.09    5.40
   1  -2   2  288.47   13.80
  -1  -2  -2  300.77   13.90
   1  -2   2  280.67   13.40
  -1  -2  -2  275.27   13.60
   1   2   2  313.67   14.40
   1   2   2  279.77   13.90
  -1   2  -2  299.97   13.90
  -1   2  -2  297.67   13.50
  -2  -2  -2  163.88   11.60
   2  -2   2  164.78   11.50
  -2  -2  -2  152.58   11.20
   2   2   2  157.18   11.30
  -2   2  -2  165.08   11.40
   2   2   2  141.79   10.90
  -2   2  -2  150.68   11.20
   3  -2   2  856.01   32.20
  -3  -2  -2  848.92   32.10
  -3  -2  -2  901.31   33.80
   3   2   2  849.12   32.80
  -3   2  -2  827.72   32.30
  -3   2  -2  843.82   32.20
  -4  -2  -2 1831.92   59.99
  -4  -2  -2 1941.01   59.89
  -4  -2  -2 2034.20   62.79
   4  -2   2 1880.71   58.59
  -4   2  -2 1901.81   60.39
  -4   2  -2 1937.21   60.89
   4   2   2 1828.42   59.09
  -4   2  -2 2013.80   60.59
  -5  -2  -2  941.91   40.90
  -5  -2  -2  975.50   42.20
  -5  -2  -2  976.70   42.30
  -5   2  -2  885.81   39.70
  -5   2  -2  923.01   40.30
  -5   2  -2  902.01   40.50
  -6  -2  -2   94.99   17.70
  -6  -2  -2   77.99   14.20
  -6  -2  -2   46.70   13.50
  -6   2  -2   77.79   16.60
  -6   2  -2   76.09   16.80
  -6   2  -2   83.49   14.60
  -7  -2  -2  768.72   41.50
  -7  -2  -2  744.83   43.40
  -7   2  -2  692.23   41.40
  -7   2  -2  711.33   40.00
  -8  -2  -2  414.96   33.80
  -8   2  -2  355.16   30.40
  -8   2  -2  432.06   43.30
  -9  -2  -2   51.99   17.20
  -9   2  -2   45.50   17.00
 -10  -2  -2  161.68   28.50
 -10   2  -2  100.69   24.80
 -11  -3   2  320.27   32.90
 -11  -3   2  231.98   30.90
 -11   3   2  277.67   30.20
 -11   3   2  221.28   30.60
 -10  -3   2  682.23   40.00
 -10  -3   2  637.84   42.00
 -10   3   2  721.73   43.80
 -10   3   2  668.63   42.10
  -9  -3   2  289.97   25.40
  -9  -3   2  286.57   27.30
  -9   3   2  338.27   28.20
  -9   3   2  218.28   29.10
  -9   3   2  316.37   26.00
  -8  -3   2 1073.29   48.30
  -8  -3   2 1128.79   46.30
  -8   3   2 1054.49   46.20
  -8   3   2 1098.09   47.60
  -7  -3   2 1203.38   47.80
   7  -3  -2 1126.29   50.19
  -7  -3   2 1156.08   44.10
   7   3  -2 1169.28   53.59
  -7   3   2 1160.78   46.10
  -7   3   2 1186.28   46.70
  -6  -3   2  531.75   28.40
  -6  -3   2  562.14   26.70
   6  -3  -2  596.94   32.10
   6   3  -2  585.24   33.60
  -6   3   2  580.74   28.30
  -6   3   2  511.75   27.30
  -5  -3   2  132.29   11.40
   5  -3  -2  130.49   13.60
  -5  -3   2  136.39   13.00
  -5   3   2  121.19   12.00
   5   3  -2  113.99   13.50
  -5   3   2  138.39   12.10
  -4  -3   2 6120.49  140.09
   4  -3  -2 6036.70  140.09
  -4  -3   2 6025.70  135.99
  -4   3   2 6130.99  138.59
  -4   3   2 6101.19  139.89
   4   3  -2 6117.99  142.59
  -3  -3   2 2481.55   64.49
   3  -3  -2 2491.15   64.09
  -3  -3   2 2545.55   61.59
   3  -3  -2 2619.24   65.29
  -3   3   2 2536.25   63.79
  -3   3   2 2561.44   64.99
   3   3  -2 2577.54   65.89
  -2  -3   2  670.03   20.80
  -2  -3   2  634.74   22.60
   2  -3  -2  685.73   22.40
   2  -3  -2  702.93   23.40
  -2   3   2  710.53   22.70
   2   3  -2  669.93   20.80
  -2   3   2  685.53   23.70
   2   3  -2  696.43   23.30
  -1  -3   2 2695.43   62.09
   1  -3  -2 2681.73   62.49
   1  -3  -2 2668.63   60.99
  -1  -3   2 2668.83   60.09
   1   3  -2 2601.14   59.59
  -1   3   2 2665.53   61.59
  -1   3   2 2655.03   62.69
   1   3  -2 2648.44   61.59
   0  -3  -2 6888.91  143.29
   0  -3  -2 6695.43  143.49
   0  -3   2 6742.13  142.69
   0   3   2 6574.64  143.49
   0   3  -2 6739.63  142.49
   0   3  -2 6603.94  141.69
  -1  -3  -2  699.23   24.40
  -1  -3  -2  719.63   24.20
   1  -3   2  712.13   23.80
  -1   3  -2  731.03   23.50
  -1   3  -2  761.52   24.80
   1   3   2  727.33   24.90
   1   3   2  716.43   24.40
   2  -3   2 1403.96   40.60
  -2  -3  -2 1379.76   41.60
  -2  -3  -2 1344.57   40.50
  -2   3  -2 1337.97   41.00
   2   3   2 1327.07   41.30
  -2   3  -2 1343.67   39.80
   2   3   2 1322.87   40.20
  -3  -3  -2 1369.36   43.50
  -3  -3  -2 1392.86   45.40
   3  -3   2 1301.87   42.50
  -3   3  -2 1283.97   43.60
  -3   3  -2 1341.27   43.20
   3   3   2 1337.47   44.30
  -4  -3  -2   44.70   10.40
   4  -3   2   59.49   10.10
  -4  -3  -2   55.89   11.00
  -4  -3  -2   38.80    9.20
  -4   3  -2   66.09   12.00
   4   3   2   81.29   12.70
  -4   3  -2   56.99   10.90
  -4   3  -2   61.49   10.80
  -5  -3  -2 2874.71   83.59
  -5  -3  -2 2850.31   85.49
  -5  -3  -2 2911.61   86.19
  -5   3  -2 2781.82   83.09
  -5   3  -2 2798.72   84.59
  -5   3  -2 2840.52   83.69
  -6  -3  -2 1873.91   68.29
  -6  -3  -2 1860.31   67.29
  -6  -3  -2 1911.41   67.09
  -6   3  -2 1894.91   67.09
  -6   3  -2 1883.61   66.39
  -6   3  -2 1826.12   66.89
  -7  -3  -2  178.78   26.20
  -7  -3  -2  167.58   20.10
  -7   3  -2  169.68   20.20
  -7   3  -2  147.29   22.60
  -8  -3  -2  246.28   26.30
  -8   3  -2  228.58   26.50
  -8   3  -2  200.18   28.70
  -9  -3  -2  630.54   42.60
  -9   3  -2  631.64   43.10
 -10  -3  -2   10.00   19.30
 -10   3  -2   47.70   18.80
 -11  -4   2   33.40   18.80
 -11  -4   2   16.80   17.50
 -11   4   2    3.30   17.50
 -11   4   2   -2.10   14.60
 -10  -4   2   27.70   14.40
 -10  -4   2   -6.20   11.30
 -10   4   2   16.30   13.40
 -10   4   2   14.20   13.10
  -9  -4   2   38.20   13.30
  -9  -4   2   67.89   16.10
  -9   4   2   73.79   16.40
  -9   4   2   47.60   19.90
  -9   4   2   44.90   12.40
  -8  -4   2   24.70   10.30
  -8  -4   2   35.30    9.90
  -8   4   2   35.20   10.70
  -8   4   2   40.30   12.30
  -7  -4   2   68.69   13.10
  -7  -4   2   67.29   11.60
   7  -4  -2   70.79   16.20
  -7   4   2   78.59   13.90
  -7   4   2   87.69   14.00
   7   4  -2   72.09   17.10
  -6  -4   2    5.60    5.80
   6  -4  -2   18.80    8.50
  -6  -4   2    9.30    5.60
  -6   4   2    6.80    5.20
  -6   4   2    8.40    5.60
   6   4  -2   11.30    8.70
   5  -4  -2   -2.80    4.70
  -5  -4   2    2.60    4.20
  -5  -4   2    8.00    4.70
  -5   4   2    8.20    4.90
  -5   4   2    1.10    4.00
   5   4  -2    6.30    5.90
  -4  -4   2  143.29   11.70
   4  -4  -2  122.19   11.40
  -4  -4   2  119.19    9.40
  -4   4   2  119.39   10.90
   4   4  -2  134.99   12.70
   3  -4  -2  584.54   23.00
  -3  -4   2  547.95   19.50
  -3  -4   2  553.24   22.20
   3  -4  -2  561.94   21.70
  -3   4   2  591.54   23.10
  -3   4   2  536.55   21.10
   3   4  -2  555.34   22.90
   2  -4  -2   49.70    5.70
  -2  -4   2   33.10    5.20
  -2  -4   2   28.00    3.90
   2  -4  -2   23.10    4.20
  -2   4   2   27.50    5.40
  -2   4   2   28.80    4.50
   2   4  -2   31.70    5.10
   2   4  -2   28.60    4.00
   1  -4  -2    6.20    2.80
  -1  -4   2    7.40    2.20
   1  -4  -2    3.20    1.80
  -1  -4   2    3.50    1.80
   1   4  -2    5.50    2.00
  -1   4   2    3.80    1.80
  -1   4   2    9.90    3.00
   1   4  -2    2.50    1.80
   0  -4   2  604.04   19.40
   0  -4   2  601.44   19.30
   0  -4  -2  618.04   20.40
   0  -4  -2  627.24   20.10
   0   4  -2  616.14   19.40
   0   4   2  618.14   20.50
   0   4  -2  591.94   18.80
   0   4   2  595.94   20.50
   1  -4   2  516.85   19.00
   1  -4   2  527.75   19.70
  -1  -4  -2  519.35   20.00
  -1  -4  -2  514.05   19.40
   1   4   2  514.45   20.30
  -1   4  -2  506.85   18.50
  -1   4  -2  507.75   19.50
   1   4   2  500.15   19.40
  -2  -4  -2   62.59    8.30
  -2  -4  -2   58.29    8.40
   2  -4   2   71.89    7.40
  -2   4  -2   66.49    7.60
   2   4   2   69.29    7.60
  -2   4  -2   57.69    8.00
   2   4   2   68.59    7.80
  -3  -4  -2  238.38   16.20
  -3  -4  -2  202.38   14.80
   3  -4   2  197.78   13.80
  -3   4  -2  203.88   14.90
  -3   4  -2  186.08   13.90
   3   4   2  199.18   15.10
  -4  -4  -2  257.67   19.20
  -4  -4  -2  299.97   20.50
   4  -4   2  270.57   17.80
  -4  -4  -2  271.37   18.60
   4   4   2  255.57   18.40
  -4   4  -2  234.78   17.60
  -4   4  -2  288.17   19.10
  -4   4  -2  283.97   19.90
  -5  -4  -2   -8.40    5.40
  -5  -4  -2    2.90    8.00
  -5  -4  -2    7.70    7.90
  -5   4  -2   10.60    6.60
  -5   4  -2   16.60    9.70
  -5   4  -2    3.80    6.80
  -6  -4  -2   97.99   17.00
  -6  -4  -2   78.59   15.70
  -6  -4  -2   69.39   13.90
  -6   4  -2   45.60   12.80
  -6   4  -2   63.49   14.60
  -6   4  -2   42.00   10.90
  -7  -4  -2   -1.30   13.00
  -7  -4  -2    1.00    8.50
  -7   4  -2   -6.80    8.60
  -7   4  -2    0.50   11.70
  -8  -4  -2    2.70   11.40
  -8   4  -2    6.90   10.40
  -8   4  -2   13.30   18.20
  -9  -4  -2   12.00   14.20
  -9   4  -2   12.30   12.70
 -10  -4  -2   70.79   23.80
 -10   4  -2   43.50   19.60
 -11  -5   2   82.99   21.20
 -11  -5   2  109.79   22.10
 -11   5   2  126.99   26.90
 -11   5   2  136.39   24.80
 -10  -5   2  376.46   33.90
 -10  -5   2  356.06   30.40
 -10   5   2  364.06   32.50
 -10   5   2  364.56   33.30
  -9  -5   2  290.87   26.80
  -9  -5   2  292.27   25.30
  -9   5   2  278.77   25.40
  -9   5   2  378.56   29.40
  -9   5   2  329.57   32.70
  -8  -5   2  185.48   21.50
  -8  -5   2  215.38   18.90
  -8   5   2  197.38   20.00
  -8   5   2  164.08   19.40
  -7  -5   2  932.21   38.30
  -7  -5   2  958.40   42.20
   7  -5  -2  966.30   45.90
  -7   5   2  938.11   41.80
   7   5  -2  900.31   47.30
  -7   5   2  959.70   40.20
  -6  -5   2  946.41   38.70
   6  -5  -2  839.02   38.90
  -6  -5   2  853.91   33.80
  -6   5   2  905.41   38.10
  -6   5   2  890.61   36.30
   6   5  -2  856.61   41.30
   5  -5  -2   31.30    8.60
  -5  -5   2   55.39    8.60
  -5  -5   2   46.40    8.80
   5   5  -2   61.59   11.80
  -5   5   2   47.90    9.00
  -4  -5   2 3641.94   91.59
  -4  -5   2 3687.63   86.69
   4  -5  -2 3738.23   91.29
  -4   5   2 3711.03   89.59
   4   5  -2 3676.43   94.09
  -4   5   2 3623.14   91.99
  -3  -5   2  275.97   14.90
   3  -5  -2  273.67   15.40
  -3  -5   2  270.77   12.50
   3  -5  -2  303.47   14.80
  -3   5   2  297.07   15.80
   3   5  -2  283.37   15.90
  -3   5   2  302.07   14.60
   2  -5  -2  718.63   23.30
  -2  -5   2  786.52   21.50
  -2  -5   2  750.62   24.80
   2  -5  -2  678.63   24.70
  -2   5   2  730.13   23.40
   2   5  -2  782.82   25.30
   2   5  -2  770.12   21.50
  -2   5   2  739.63   25.90
   1  -5  -2 1056.49   30.90
  -1  -5   2 1085.19   27.80
  -1  -5   2 1119.69   30.40
   1  -5  -2 1104.39   29.10
   1   5  -2 1065.39   27.40
   1   5  -2 1108.29   30.30
  -1   5   2 1061.29   31.40
  -1   5   2 1104.59   29.80
   0  -5  -2 3640.34   83.29
   0  -5   2 3701.53   82.69
   0  -5   2 3670.33   82.39
   0  -5  -2 3702.23   84.09
   0   5   2 3774.92   84.69
   0   5  -2 3749.43   81.89
   0   5   2 3734.63   84.19
   0   5  -2 3683.13   82.39
  -1  -5  -2  753.82   24.90
  -1  -5  -2  727.53   25.30
   1  -5   2  731.53   23.80
  -1   5  -2  755.52   25.00
   1   5   2  750.42   25.80
  -1   5  -2  740.23   23.40
   1   5   2  757.32   25.30
  -2  -5  -2 1205.78   37.50
  -2  -5  -2 1230.68   39.10
   2  -5   2 1208.18   36.90
  -2   5  -2 1204.18   36.50
  -2   5  -2 1283.17   39.20
   2   5   2 1206.58   38.90
   2   5   2 1231.28   38.00
  -3  -5  -2 1241.68   40.60
   3  -5   2 1229.18   39.90
  -3  -5  -2 1162.68   41.70
  -3   5  -2 1187.98   41.70
   3   5   2 1264.27   42.80
  -3   5  -2 1224.48   39.90
   4  -5   2   64.99   10.60
  -4  -5  -2   74.89   12.30
  -4  -5  -2   86.69   13.40
  -4  -5  -2   98.89   13.50
  -4   5  -2   78.59   11.40
  -4   5  -2   85.59   13.00
   4   5   2  106.49   14.40
  -4   5  -2   73.49   12.30
  -5  -5  -2 1251.57   49.99
  -5  -5  -2 1297.57   50.49
  -5  -5  -2 1191.08   47.00
  -5   5  -2 1253.17   47.90
  -5   5  -2 1219.08   46.90
  -5   5  -2 1250.57   49.30
  -6  -5  -2  995.40   48.10
  -6  -5  -2 1128.19   47.10
  -6  -5  -2  993.40   46.60
  -6   5  -2  979.20   45.60
  -6   5  -2 1096.09   46.40
  -6   5  -2  993.80   46.60
  -7  -5  -2   15.90    9.90
  -7   5  -2   15.30   13.10
  -7   5  -2   19.80    9.70
  -8  -5  -2  323.17   30.30
  -8   5  -2  329.17   29.60
  -8   5  -2  303.07   35.20
  -9  -5  -2  628.94   43.80
  -9   5  -2  651.93   43.30
 -10  -5  -2    9.70   17.90
 -10   5  -2   38.10   19.70
 -11  -6   2  150.48   24.50
 -11  -6   2  129.09   25.10
 -11   6   2  139.29   25.70
 -11   6   2  151.58   25.80
 -10  -6   2   92.59   20.10
 -10  -6   2   76.89   18.30
 -10   6   2   65.29   17.60
 -10   6   2   67.69   17.60
  -9  -6   2  915.21   47.70
  -9  -6   2  882.41   42.90
  -9   6   2  966.50   52.19
  -9   6   2  944.21   45.90
  -9   6   2  909.31   47.40
  -8  -6   2  767.12   39.90
  -8  -6   2  778.02   35.90
  -8   6   2  738.63   37.70
  -8   6   2  736.93   39.00
   7  -6  -2  128.99   19.40
  -7  -6   2  138.89   16.60
  -7  -6   2  143.29   14.70
   7   6  -2  102.09   19.00
  -7   6   2  140.29   16.30
  -7   6   2  160.78   16.70
  -6  -6   2 1347.97   49.50
   6  -6  -2 1415.16   51.69
  -6  -6   2 1298.97   44.30
   6   6  -2 1340.27   54.29
  -6   6   2 1403.56   47.60
  -6   6   2 1424.76   50.39
   5  -6  -2 1529.95   50.69
  -5  -6   2 1542.05   50.59
  -5  -6   2 1533.15   45.60
  -5   6   2 1567.24   50.69
  -5   6   2 1534.15   48.00
   5   6  -2 1559.44   54.09
  -4  -6   2   75.39    7.40
   4  -6  -2   81.69    9.50
  -4  -6   2   90.59    9.80
  -4   6   2   83.49    9.30
  -4   6   2   71.39    7.80
   4   6  -2   75.59   11.60
   3  -6  -2 1525.75   48.50
  -3  -6   2 1791.62   44.00
   3  -6  -2 1819.02   47.80
  -3  -6   2 1801.92   49.40
  -3   6   2 1697.23   49.70
   3   6  -2 1832.82   50.59
  -3   6   2 1814.62   47.50
  -2  -6   2 2434.46   55.69
  -2  -6   2 2496.25   61.19
   2  -6  -2 2463.55   59.09
   2  -6  -2 2524.35   62.59
   2   6  -2 2436.36   55.69
  -2   6   2 2490.25   63.39
   2   6  -2 2512.25   61.49
  -2   6   2 2397.56   58.89
  -1  -6   2  917.91   26.60
   1  -6  -2  910.21   25.40
   1  -6  -2  910.91   27.80
  -1  -6   2  933.91   24.00
  -1   6   2  908.31   26.00
   1   6  -2  929.11   23.60
   1   6  -2  890.81   26.30
  -1   6   2  890.61   28.10
   0  -6  -2  584.94   20.20
   0  -6   2  573.14   18.60
   0  -6   2  578.44   18.90
   0  -6  -2  588.24   19.70
   0   6   2  588.54   20.60
   0   6  -2  580.14   18.70
   0   6  -2  581.64   18.10
   0   6   2  568.84   19.90
  -1  -6  -2 3688.23   87.49
  -1  -6  -2 3807.52   86.89
   1  -6   2 3732.13   85.19
   1   6   2 3771.02   87.19
  -1   6  -2 3750.52   86.99
  -1   6  -2 3777.82   84.49
   1   6   2 3623.14   87.89
  -2  -6  -2  529.85   23.40
   2  -6   2  540.95   21.60
  -2  -6  -2  598.74   23.20
   2   6   2  592.24   24.40
  -2   6  -2  571.54   21.90
   2   6   2  573.34   22.80
  -2   6  -2  582.94   23.90
  -3  -6  -2 1483.75   45.70
   3  -6   2 1437.76   44.60
  -3  -6  -2 1445.56   47.70
   3   6   2 1375.56   46.60
  -3   6  -2 1467.95   44.90
  -3   6  -2 1466.05   47.20
  -4  -6  -2 4055.69  110.69
  -4  -6  -2 4275.47  111.19
  -4  -6  -2 4211.28  107.29
   4  -6   2 4245.68  106.19
  -4   6  -2 4297.07  108.19
  -4   6  -2 4221.28  109.99
  -4   6  -2 4303.17  107.29
   4   6   2 4307.57  110.89
  -5  -6  -2  638.24   34.50
  -5  -6  -2  699.43   33.80
  -5  -6  -2  625.94   34.80
  -5   6  -2  655.33   34.10
  -5   6  -2  646.34   32.10
  -5   6  -2  679.63   32.90
  -6  -6  -2  143.69   20.10
  -6  -6  -2  152.58   22.40
  -6  -6  -2  145.39   20.30
  -6   6  -2  147.59   19.80
  -6   6  -2  130.79   19.60
  -6   6  -2  106.59   17.60
  -7  -6  -2  758.32   42.60
  -7   6  -2  720.83   41.60
  -7   6  -2  843.52   42.10
  -8  -6  -2  409.06   34.10
  -8   6  -2  497.05   34.80
  -8   6  -2  442.56   39.20
  -9  -6  -2   29.50   16.40
  -9   6  -2   21.00   14.50
 -10  -6  -2  339.37   37.20
 -10   6  -2  327.87   33.40
 -11  -7   2  -15.80   15.20
 -11  -7   2   22.80   18.30
 -11   7   2  -26.10   16.90
 -11   7   2   15.50   15.80
 -10  -7   2    1.70   11.70
 -10  -7   2   -3.60   12.20
 -10   7   2  -17.40   13.40
 -10   7   2   -9.60   11.10
  -9  -7   2   22.90   12.20
  -9  -7   2   16.20   11.20
  -9   7   2   12.30   10.30
  -9   7   2   38.70   14.20
  -9   7   2  -12.20   16.30
  -8  -7   2   45.70   12.10
  -8  -7   2   21.60    8.90
  -8   7   2   17.00   11.40
  -8   7   2   36.80   10.90
  -7  -7   2   -3.10    6.90
   7  -7  -2    8.00    9.50
  -7  -7   2   -1.00    5.80
   7   7  -2   12.90   12.80
  -7   7   2    4.10    5.90
  -7   7   2    0.60    6.30
   6  -7  -2   28.80    9.50
  -6  -7   2   13.60    7.70
  -6  -7   2   18.60    6.20
   6   7  -2    9.30   10.30
  -6   7   2    9.20    5.30
  -6   7   2   21.50    8.10
  -5  -7   2   99.69   11.60
   5  -7  -2  122.49   13.10
  -5  -7   2   97.49    9.90
  -5   7   2  118.09   12.20
  -5   7   2  148.79   12.20
   5   7  -2   69.29   12.40
   4  -7  -2   15.20    5.40
  -4  -7   2    5.80    4.10
  -4  -7   2    4.80    2.80
  -4   7   2   10.80    4.70
  -4   7   2    5.60    3.50
   4   7  -2    5.90    5.00
   3  -7  -2   31.20    5.40
  -3  -7   2   21.90    3.90
   3  -7  -2   18.20    5.60
  -3  -7   2   35.20    6.20
  -3   7   2   22.90    5.20
   3   7  -2   17.00    4.70
  -3   7   2   19.50    4.10
  -2  -7   2  201.98   11.40
   2  -7  -2  175.68    9.80
   2  -7  -2  197.08   12.00
  -2  -7   2  186.48    8.00
  -2   7   2  190.58   10.00
  -2   7   2  213.58   12.90
   2   7  -2  191.18    8.20
   2   7  -2  191.78   11.20
  -1  -7   2   61.29    5.60
   1  -7  -2   84.79    7.10
   1  -7  -2   70.79    5.50
  -1  -7   2   69.59    4.70
   1   7  -2   73.29    4.60
   1   7  -2   70.29    5.80
  -1   7   2   65.99    5.50
  -1   7   2   78.29    7.00
   0  -7   2  901.91   25.80
   0  -7  -2  930.91   28.00
   0  -7  -2  939.71   27.40
   0  -7   2  927.61   26.40
   0   7   2  963.30   28.30
   0   7   2  936.51   28.40
   0   7  -2  899.01   25.20
   0   7  -2  911.11   26.10
  -1  -7  -2   14.60    3.90
   1  -7   2   17.10    3.70
  -1  -7  -2   18.10    4.80
  -1   7  -2   19.30    4.40
   1   7   2   16.90    4.30
  -1   7  -2   17.90    3.70
   1   7   2   32.10    5.40
   2  -7   2   19.70    4.70
  -2  -7  -2   18.60    4.60
  -2  -7  -2   16.80    5.10
   2   7   2   17.50    4.80
  -2   7  -2   13.60    4.90
  -2   7  -2   14.70    4.10
   2   7   2   15.50    4.90
  -3  -7  -2  139.19   13.70
   3  -7   2  131.79   11.60
  -3  -7  -2  154.28   12.50
  -3   7  -2  136.39   11.70
   3   7   2  166.18   13.00
   3   7   2  148.59   13.10
  -3   7  -2  167.28   13.90
  -4  -7  -2  391.46   25.20
   4  -7   2  411.76   22.20
  -4  -7  -2  422.46   23.10
  -4  -7  -2  401.96   24.90
  -4   7  -2  421.06   23.30
  -4   7  -2  376.26   22.20
   4   7   2  442.56   25.10
  -5  -7  -2   14.80    8.30
  -5  -7  -2   22.30    8.90
  -5  -7  -2   30.30   12.30
  -5   7  -2   32.10    8.60
  -5   7  -2   33.90   10.10
  -6  -7  -2    7.10   11.00
  -6  -7  -2   -1.00    8.00
  -6  -7  -2    0.70   10.30
  -6   7  -2   10.60    8.20
  -6   7  -2   -5.20    9.90
  -6   7  -2    9.40    8.50
  -7  -7  -2    5.70    9.60
  -7   7  -2    4.30   13.60
  -7   7  -2  -12.20    8.50
  -8  -7  -2   42.30   15.60
  -8   7  -2   80.09   22.20
  -8   7  -2   64.99   16.90
  -9  -7  -2    8.60   15.20
  -9   7  -2    3.90   13.90
 -10  -7  -2   13.70   17.50
 -10   7  -2  -14.40   14.20
 -11  -8   2  185.38   27.30
 -11  -8   2  207.78   30.80
 -11   8   2  211.18   30.30
 -11   8   2  242.58   27.00
 -10  -8   2   88.89   17.90
 -10  -8   2   72.19   18.70
 -10   8   2   84.59   17.10
 -10   8   2   56.69   17.10
  -9  -8   2  797.02   44.30
  -9  -8   2  836.02   40.30
  -9   8   2  755.62   40.60
  -9   8   2  798.22   47.50
  -9   8   2  826.22   44.60
  -8  -8   2 1196.98   51.79
  -8  -8   2 1205.88   46.30
  -8   8   2 1114.39   50.79
  -8   8   2 1173.58   48.20
   7  -8  -2   -5.30   10.50
  -7  -8   2    1.00    7.10
  -7  -8   2    7.90    6.00
  -7   8   2   -3.10    5.70
  -7   8   2   16.80    8.50
   7   8  -2    5.30   12.50
   6  -8  -2 1778.42   60.69
  -6  -8   2 1829.02   60.89
  -6  -8   2 1891.61   54.69
  -6   8   2 1878.51   57.39
   6   8  -2 1887.01   66.99
  -6   8   2 1792.22   60.49
   5  -8  -2 1859.31   57.09
  -5  -8   2 1829.42   57.69
  -5  -8   2 1810.52   50.99
  -5   8   2 1821.02   58.29
   5   8  -2 1892.41   61.99
  -5   8   2 1933.91   54.99
  -4  -8   2   14.80    3.80
   4  -8  -2    1.80    3.60
  -4  -8   2   11.50    5.10
  -4   8   2   -3.10    3.30
   4   8  -2    3.90    4.40
  -4   8   2   13.10    4.20
   3  -8  -2 1882.31   52.89
   3  -8  -2 2175.18   58.69
  -3  -8   2 2127.39   49.90
  -3  -8   2 2141.69   56.79
  -3   8   2 2052.69   53.49
   3   8  -2 2216.38   58.49
  -3   8   2 2052.99   57.99
  -2  -8   2 4108.29   96.89
   2  -8  -2 4286.97   99.39
   2  -8  -2 4217.98   94.29
  -2  -8   2 4261.27   89.69
   2   8  -2 4281.87   89.99
  -2   8   2 4286.57  100.39
   2   8  -2 4244.28   97.49
  -2   8   2 4244.38   94.29
   1  -8  -2   41.80    4.20
  -1  -8   2   40.30    3.60
   1  -8  -2   45.10    6.20
  -1  -8   2   33.70    5.00
   1   8  -2   35.40    5.00
  -1   8   2   42.40    6.30
   1   8  -2   31.30    3.20
  -1   8   2   35.00    4.20
   0  -8   2 1072.39   29.30
   0  -8  -2 1068.39   31.80
   0  -8  -2 1080.49   31.00
   0   8   2 1102.09   32.40
   0   8  -2 1123.19   29.90
   0   8  -2 1110.09   29.10
   0   8   2 1127.39   32.00
  -1  -8  -2 2441.36   61.29
   1  -8   2 2475.25   59.49
  -1  -8  -2 2513.15   62.79
  -1   8  -2 2529.05   61.99
   1   8   2 2517.85   62.29
   1   8   2 2427.66   62.99
  -1   8  -2 2458.35   58.49
   2  -8   2  345.87   16.20
  -2  -8  -2  389.66   19.60
  -2  -8  -2  354.86   17.50
  -2   8  -2  359.66   18.60
  -2   8  -2  335.17   15.80
   2   8   2  371.26   17.80
   2   8   2  391.56   19.50
   3  -8   2 2192.48   60.79
  -3  -8  -2 2308.87   62.69
  -3  -8  -2 2320.27   66.39
   3   8   2 2202.58   61.89
   3   8   2 2220.08   64.89
  -3   8  -2 2256.37   61.09
  -4  -8  -2 3281.47   87.79
   4  -8   2 3356.26   86.89
  -4  -8  -2 3326.57   93.29
  -4  -8  -2 3368.26   92.89
   4   8   2 3270.57   91.19
  -4   8  -2 3304.67   88.19
  -4   8  -2 3282.17   87.09
  -5  -8  -2  580.14   33.00
  -5  -8  -2  600.54   31.00
  -5  -8  -2  620.34   34.80
  -5   8  -2  545.55   29.30
  -5   8  -2  551.64   29.60
  -6  -8  -2  203.58   25.20
  -6  -8  -2  184.78   22.10
  -6  -8  -2  152.98   18.40
  -6   8  -2  205.38   19.80
  -6   8  -2  182.98   21.90
  -7  -8  -2 1245.88   56.29
  -7   8  -2 1159.78   53.59
  -7   8  -2 1143.19   50.69
  -8  -8  -2  545.55   40.40
  -8   8  -2  502.45   39.10
  -8   8  -2  519.75   35.60
  -9  -8  -2   21.70   16.40
  -9   8  -2   -7.30   13.70
 -10  -8  -2  213.08   32.90
 -10   8  -2  216.58   29.80
 -11  -9   2  120.09   25.80
 -11  -9   2  206.78   27.60
 -11   9   2  168.08   27.70
 -11   9   2  162.88   26.30
 -10  -9   2  243.48   27.90
 -10  -9   2  241.98   25.60
 -10   9   2  258.87   29.30
 -10   9   2  265.87   27.00
  -9  -9   2   49.20   15.30
  -9  -9   2   37.70   12.70
  -9   9   2   40.60   18.00
  -9   9   2   46.50   13.10
  -9   9   2   19.90   13.30
  -8  -9   2  362.16   28.60
  -8  -9   2  341.87   23.50
  -8   9   2  351.66   25.40
  -8   9   2  376.76   28.70
  -7  -9   2 1371.86   46.80
   7  -9  -2 1354.16   54.49
  -7  -9   2 1302.57   52.49
  -7   9   2 1427.16   50.09
   7   9  -2 1366.16   59.29
  -7   9   2 1347.57   53.19
  -6  -9   2  560.34   29.80
  -6  -9   2  572.54   25.10
   6  -9  -2  572.94   30.40
   6   9  -2  505.75   33.10
  -6   9   2  576.64   27.40
  -6   9   2  541.05   29.60
  -5  -9   2  518.65   26.20
   5  -9  -2  513.15   25.60
  -5  -9   2  512.85   21.50
  -5   9   2  546.75   24.00
   5   9  -2  515.15   29.00
  -5   9   2  508.05   26.50
  -4  -9   2 2480.55   58.69
  -4  -9   2 2431.36   66.59
   4  -9  -2 2459.25   63.79
   4   9  -2 2391.16   68.79
  -4   9   2 2063.99   65.49
  -4   9   2 2439.76   62.59
   3  -9  -2  993.80   30.30
   3  -9  -2  931.31   33.40
  -3  -9   2  918.91   25.60
  -3  -9   2  926.11   31.80
  -3   9   2  959.50   29.70
  -3   9   2  949.11   34.20
   3   9  -2  948.51   33.20
   2  -9  -2   44.50    5.10
  -2  -9   2   40.40    3.30
   2  -9  -2   54.69    8.10
  -2  -9   2   43.80    6.30
   2   9  -2   34.30    3.30
  -2   9   2   50.69    5.20
   2   9  -2   37.00    5.90
  -2   9   2   42.90    6.90
   1  -9  -2  692.53   24.40
   1  -9  -2  697.03   20.90
  -1  -9   2  699.93   18.90
  -1  -9   2  691.33   22.20
  -1   9   2  691.83   24.90
   1   9  -2  675.33   22.00
   1   9  -2  717.53   18.70
  -1   9   2  711.53   21.80
   0  -9  -2 1292.77   35.20
   0  -9   2 1304.87   33.40
   0  -9  -2 1272.67   35.90
   0   9  -2 1296.47   32.90
   0   9   2 1275.27   35.70
   0   9   2 1251.07   36.30
   0   9  -2 1267.07   33.70
  -1  -9  -2  186.08   11.10
   1  -9   2  188.28   10.20
  -1  -9  -2  177.68   11.40
  -1   9  -2  189.18   11.50
   1   9   2  195.48   12.10
  -1   9  -2  193.38    9.70
   1   9   2  181.68   11.20
  -2  -9  -2 2196.68   58.29
   2  -9   2 2196.88   56.49
  -2  -9  -2 2309.07   61.79
   2   9   2 2175.78   58.69
  -2   9  -2 2079.99   55.29
   2   9   2 2269.27   61.49
   3  -9   2 2038.20   55.99
  -3  -9  -2 1975.40   60.69
  -3  -9  -2 2094.39   57.89
   3   9   2 1980.40   57.19
  -3   9  -2 1973.60   55.49
  -4  -9  -2  107.99   15.70
   4  -9   2   94.09   11.00
  -4  -9  -2   86.29   12.60
  -4  -9  -2  107.19   16.00
  -4   9  -2   71.39   11.70
  -4   9  -2   77.39   11.60
  -5  -9  -2 1306.17   52.19
  -5  -9  -2 1299.97   52.99
  -5  -9  -2 1239.98   47.60
  -5   9  -2 1471.85   50.39
  -5   9  -2 1295.97   48.10
  -6  -9  -2 1338.17   58.19
  -6  -9  -2 1439.16   57.99
  -6  -9  -2 1362.36   53.59
  -6   9  -2 1392.16   53.59
  -6   9  -2 1369.66   52.89
  -7  -9  -2  149.19   22.30
  -7   9  -2  173.58   23.70
  -7   9  -2  186.78   21.00
  -8  -9  -2  344.17   33.90
  -8   9  -2  358.66   35.20
  -8   9  -2  389.66   31.30
  -9  -9  -2  343.67   35.30
  -9   9  -2  398.26   49.90
  -9   9  -2  358.16   32.60
 -10  -9  -2   24.40   19.10
 -10   9  -2   -2.60   15.10
 -11 -10   2   39.00   17.80
 -11 -10   2   39.50   18.40
 -11  10   2   60.09   22.70
 -11  10   2   42.60   18.70
 -10 -10   2   41.20   16.00
 -10 -10   2   24.10   13.60
 -10  10   2   68.59   26.50
 -10  10   2   40.50   14.50
 -10  10   2   62.49   19.60
  -9 -10   2   54.19   13.50
  -9 -10   2   48.40   15.60
  -9  10   2   46.30   19.20
  -9  10   2   37.00   12.00
  -9  10   2   56.99   16.50
  -8 -10   2  152.88   16.90
  -8 -10   2  130.99   19.80
  -8  10   2  188.28   18.20
  -8  10   2  134.09   20.80
  -7 -10   2   13.20    8.10
   7 -10  -2    1.30   10.40
  -7 -10   2    6.20    6.20
  -7  10   2   18.20    9.10
  -7  10   2    9.90    7.20
   7  10  -2   -5.80   12.30
  -6 -10   2  135.29   11.80
   6 -10  -2   99.69   14.80
  -6 -10   2  155.88   16.10
  -6  10   2  144.49   15.30
  -6  10   2  104.79   12.40
   6  10  -2  140.79   20.60
   5 -10  -2  299.27   19.10
  -5 -10   2  271.97   18.90
  -5 -10   2  308.77   15.60
   5  10  -2  310.37   22.00
  -5  10   2  287.17   17.10
  -5  10   2  309.77   20.70
  -4 -10   2  138.19   12.90
   4 -10  -2  177.28   12.90
  -4 -10   2  139.29    9.00
   4  10  -2  120.49   13.10
  -4  10   2  167.88   11.60
  -4  10   2  156.88   14.20
   3 -10  -2  153.78   10.20
  -3 -10   2  136.59   10.80
   3 -10  -2  174.78   13.00
  -3 -10   2  144.89    7.50
  -3  10   2  157.18    9.90
   3  10  -2  160.28   12.60
  -3  10   2  147.19   12.20
   2 -10  -2  244.08   14.30
  -2 -10   2  253.77   13.50
  -2 -10   2  270.97    8.50
   2 -10  -2  254.87   11.70
  -2  10   2  246.88   15.10
  -2  10   2  270.87   11.80
   2  10  -2  268.17    8.50
   2  10  -2  247.98   13.40
   1 -10  -2   92.79    8.10
  -1 -10   2   68.29    6.00
  -1 -10   2   72.69    4.70
   1 -10  -2   88.39    6.10
   1  10  -2   77.89    6.50
   1  10  -2   85.99    4.80
  -1  10   2   87.99    6.40
  -1  10   2   75.79    7.50
   0 -10  -2  399.16   15.90
   0 -10   2  405.76   14.50
   0 -10  -2  389.36   16.70
   0  10  -2  398.26   14.90
   0  10   2  381.06   16.80
   0  10   2  374.16   16.00
   0  10  -2  458.75   14.80
  -1 -10  -2  818.32   26.40
  -1 -10  -2  750.42   26.70
   1 -10   2  743.73   23.60
   1  10   2  780.52   27.40
  -1  10  -2  718.23   22.50
  -1  10  -2  798.82   26.60
   1  10   2  766.22   26.40
  -2 -10  -2    4.10    4.10
   2 -10   2    8.40    3.40
  -2 -10  -2    6.90    3.50
  -2  10  -2    9.10    3.80
   2  10   2    4.60    3.80
   2  10   2    0.00    3.60
  -3 -10  -2  492.35   22.90
  -3 -10  -2  482.65   25.40
   3 -10   2  494.35   21.70
   3  10   2  500.35   25.10
   3  10   2  456.95   22.30
  -3  10  -2  465.65   21.20
  -4 -10  -2  281.47   21.50
   4 -10   2  249.28   16.70
  -4 -10  -2  271.27   20.50
  -4 -10  -2  259.97   18.20
  -4  10  -2  235.18   17.00
  -4  10  -2  255.97   17.60
  -5 -10  -2   28.00   11.50
  -5 -10  -2   12.10    9.00
  -5 -10  -2   15.80    8.70
  -5  10  -2   19.50    9.20
  -5  10  -2   12.90    7.10
  -6 -10  -2   59.59   13.60
  -6 -10  -2   61.39   14.90
  -6 -10  -2   52.69   17.00
  -6  10  -2   69.59   14.20
  -6  10  -2   37.00   10.80
  -7 -10  -2  200.98   23.10
  -7  10  -2  180.48   20.40
  -7  10  -2  240.78   25.60
  -8 -10  -2  138.49   23.40
  -8  10  -2  118.39   24.40
  -8  10  -2  130.39   21.10
  -9 -10  -2   -2.40   14.20
  -9  10  -2  -26.30   22.90
  -9  10  -2    6.00   14.40
 -10 -10  -2   10.20   20.40
 -10  10  -2   22.10   16.40
 -11 -11   2  322.07   32.50
 -11 -11   2  239.28   31.70
 -11  11   2  298.17   32.10
 -11  11   2  324.77   36.30
 -10 -11   2  654.43   43.40
 -10 -11   2  610.94   36.60
 -10  11   2  683.13   40.70
 -10  11   2  676.43   46.30
 -10  11   2  611.04   50.19
  -9 -11   2   56.89   16.30
  -9 -11   2   62.09   14.20
  -9  11   2   65.09   17.60
  -9  11   2   76.69   16.10
  -9  11   2   58.59   19.70
  -8 -11   2  752.42   40.70
  -8 -11   2  667.03   32.40
  -8  11   2  699.53   35.40
  -8  11   2  681.73   38.60
  -8  11   2  667.63   39.10
  -7 -11   2 1530.55   49.50
   7 -11  -2 1531.45   64.29
  -7 -11   2 1485.35   57.19
   7  11  -2 1544.45   64.29
  -7  11   2 1549.34   58.39
  -7  11   2 1523.05   52.59
   6 -11  -2  629.94   31.90
  -6 -11   2  657.63   32.80
  -6 -11   2  662.53   26.70
  -6  11   2  644.44   28.90
   6  11  -2  678.63   37.90
  -6  11   2  624.04   32.70
   5 -11  -2  638.34   28.90
  -5 -11   2  675.23   30.80
  -5 -11   2  688.03   24.60
   5  11  -2  724.63   34.60
  -5  11   2  679.73   27.70
  -5  11   2  649.34   31.70
  -4 -11   2 2252.47   54.49
  -4 -11   2 2208.48   63.69
   4 -11  -2 2257.07   60.19
  -4  11   2 2218.68   58.89
  -4  11   2 2186.78   65.59
   4  11  -2 2353.26   67.19
  -3 -11   2  271.77   15.50
   3 -11  -2  275.37   13.60
   3 -11  -2  278.17   16.90
  -3 -11   2  262.07   10.10
  -3  11   2  269.27   13.20
  -3  11   2  262.97   16.50
   3  11  -2  245.58   15.50
   2 -11  -2  393.26   15.20
  -2 -11   2  418.96   11.00
   2 -11  -2  406.46   19.10
  -2 -11   2  409.76   17.70
  -2  11   2  411.46   15.30
   2  11  -2  405.76   17.80
  -2  11   2  413.96   20.10
   1 -11  -2 2627.94   66.89
   1 -11  -2 2761.52   62.09
  -1 -11   2 2619.54   63.39
  -1  11   2 2698.43   62.99
  -1  11   2 2731.53   68.59
   1  11  -2 2660.13   63.49
   1  11  -2 2742.53   58.59
   0 -11   2 3605.64   80.69
   0 -11  -2 3683.43   83.59
   0 -11  -2 3671.43   85.29
   0  11  -2 3597.44   81.69
   0  11   2 3662.73   84.49
   0  11   2 3649.53   85.89
   1 -11   2  600.14   19.80
  -1 -11  -2  628.04   23.40
  -1 -11  -2  612.24   22.30
   1  11   2  571.54   22.00
  -1  11  -2  608.74   22.40
  -1  11  -2  477.05   17.60
   1  11   2  590.04   23.10
  -2 -11  -2 4364.56  104.29
  -2 -11  -2 4297.57  100.39
   2 -11   2 4195.58   97.29
  -2  11  -2 4259.27   96.59
   2  11   2 4189.48  103.39
   2  11   2 4218.38  100.49
   3 -11   2 2515.45   65.39
  -3 -11  -2 2507.15   71.99
  -3 -11  -2 2501.95   67.39
   3  11   2 2376.86   66.69
  -3  11  -2 2549.65   65.39
   3  11   2 2534.15   71.59
  -4 -11  -2   29.70    8.00
   4 -11   2   32.70    7.40
  -4 -11  -2   25.20    9.70
  -4 -11  -2   25.30    8.70
  -4  11  -2   28.30    7.70
  -4  11  -2   34.70    8.20
  -5 -11  -2 1841.82   66.29
  -5 -11  -2 1927.11   61.99
  -5 -11  -2 1884.81   66.59
  -5  11  -2 1956.20   61.49
  -5  11  -2 1964.10   61.49
  -6 -11  -2 1635.34   59.19
  -6 -11  -2 1611.64   66.09
  -6 -11  -2 1659.83   64.19
  -6  11  -2 1574.34   56.79
  -6  11  -2 1596.44   58.59
  -7 -11  -2   35.10   14.10
  -7  11  -2   39.30   15.10
  -7  11  -2   28.70   10.30
  -8 -11  -2  486.15   37.10
  -8  11  -2  482.75   33.50
  -8  11  -2  427.46   37.30
  -9 -11  -2  642.14   46.80
  -9  11  -2  665.33   41.80
  -9  11  -2  580.34   49.10
 -10 -11  -2   31.90   22.70
 -10  11  -2   42.80   17.90
 -11 -12   2   59.29   19.10
 -11 -12   2   66.69   20.90
 -11  12   2   79.09   22.40
 -11  12   2   78.69   19.90
 -10 -12   2   26.50   16.00
 -10 -12   2   58.69   16.00
 -10  12   2   45.10   16.40
 -10  12   2   26.50   14.00
 -10  12   2   48.00   25.30
  -9 -12   2  100.09   20.60
  -9 -12   2   88.59   15.60
  -9 -12   2  112.99   20.30
  -9  12   2  123.89   21.80
  -9  12   2  115.79   23.40
  -9  12   2  128.39   19.30
  -8 -12   2  391.06   30.10
  -8 -12   2  330.57   22.80
  -8  12   2  323.67   23.80
  -8  12   2  241.58   25.40
  -8  12   2  326.97   27.30
  -7 -12   2   44.30   11.60
  -7 -12   2   31.00    8.80
   7  12  -2   28.10   15.10
  -7  12   2   52.09   10.50
  -7  12   2   50.89   13.00
  -6 -12   2  709.73   34.80
  -6 -12   2  708.33   28.00
   6 -12  -2  795.22   35.50
  -6  12   2  763.82   31.60
   6  12  -2  723.53   39.10
  -6  12   2  742.03   36.20
   5 -12  -2 1284.07   44.20
  -5 -12   2 1304.67   46.60
  -5 -12   2 1314.57   38.10
   5  12  -2 1392.06   51.69
  -5  12   2 1330.27   48.60
  -5  12   2 1339.07   42.40
   4 -12  -2  228.38   14.40
  -4 -12   2  192.78   15.30
  -4 -12   2  212.68   10.80
   4  12  -2  206.68   16.40
  -4  12   2  251.27   13.80
  -4  12   2  248.48   17.60
  -3 -12   2 2763.12   70.69
  -3 -12   2 2676.83   59.49
   3 -12  -2 2764.62   66.29
   3  12  -2 2692.33   72.09
  -3  12   2 2735.63   73.99
  -3  12   2 2748.72   65.79
  -2 -12   2 2133.39   54.59
   2 -12  -2 2122.39   57.49
   2 -12  -2 2111.59   50.69
  -2  12   2 2006.30   58.29
   2  12  -2 2094.89   54.79
  -2  12   2 2054.29   50.39
   1 -12  -2   71.09    5.70
   1 -12  -2   87.99    8.00
  -1 -12   2   77.09    6.60
   1  12  -2   71.19    6.30
  -1  12   2   58.89    5.70
   1  12  -2   78.09    4.60
  -1  12   2   63.09    7.30
   0 -12   2  988.90   27.20
   0 -12  -2 1017.40   31.40
   0 -12  -2 1001.40   29.60
   0  12   2 1064.39   30.90
   0  12  -2  962.20   28.10
   0  12   2  976.70   31.40
   0  12  -2  968.20   26.90
  -1 -12  -2 1501.45   43.80
  -1 -12  -2 1516.45   42.80
   1 -12   2 1580.24   39.80
   1  12   2 1554.84   43.60
  -1  12  -2 1566.94   38.50
   1  12   2 1497.15   44.10
  -2 -12  -2   45.50    7.40
  -2 -12  -2   28.80    7.30
   2 -12   2   43.80    6.50
   2  12   2   35.50    6.50
  -2  12  -2   35.40    5.80
   2  12   2   50.89    8.50
  -3 -12  -2   76.59   12.10
  -3 -12  -2   97.19   10.20
   3 -12   2   87.19    9.30
   3  12   2   88.19    9.70
   3  12   2   89.49   12.50
  -3  12  -2   70.29    9.10
  -4 -12  -2  881.81   39.40
  -4 -12  -2  873.51   39.00
  -4 -12  -2  862.81   34.90
  -4  12  -2  921.41   34.30
  -4  12  -2  903.81   34.30
  -5 -12  -2  157.78   19.00
  -5 -12  -2  112.09   17.00
  -5 -12  -2  179.88   17.40
  -5  12  -2  153.68   16.40
  -5  12  -2  153.48   15.50
  -6 -12  -2    8.80    8.90
  -6 -12  -2    9.10   10.50
  -6  12  -2    1.10    9.10
  -6  12  -2    3.50    7.80
  -7 -12  -2  234.28   30.90
  -7 -12  -2  312.77   28.20
  -7  12  -2  278.67   26.70
  -7  12  -2  251.47   23.40
  -8 -12  -2   70.29   20.00
  -8  12  -2  110.19   23.60
  -8  12  -2  114.99   19.00
  -9 -12  -2   13.20   15.50
  -9  12  -2   -1.60   12.60
  -9  12  -2   38.70   25.20
 -10 -12  -2  152.28   29.20
 -10  12  -2  162.78   26.20
 -11 -13   2  125.59   22.40
 -11 -13   2  105.59   25.20
 -11  13   2   88.99   26.30
 -11  13   2  124.19   23.20
 -10 -13   2  180.28   26.60
 -10 -13   2  170.18   22.60
 -10  13   2  168.68   24.50
 -10  13   2  167.18   26.50
 -10  13   2  159.78   28.90
  -9 -13   2   91.59   16.10
  -9 -13   2   62.79   19.20
  -9 -13   2   90.39   19.40
  -9  13   2   57.29   19.60
  -9  13   2  105.89   17.40
  -9  13   2  102.99   20.40
  -8 -13   2  310.77   21.80
  -8 -13   2  305.47   26.70
  -8  13   2  258.17   26.20
  -8  13   2  283.67   22.10
  -8  13   2  257.27   25.10
  -7 -13   2  490.85   24.40
  -7 -13   2  457.05   30.20
  -7  13   2  461.05   30.50
   7  13  -2  519.85   36.00
  -7  13   2  458.15   25.90
   6 -13  -2  121.29   16.00
  -6 -13   2  127.99   11.30
  -6 -13   2  135.99   16.40
  -6  13   2  119.39   16.90
   6  13  -2  125.29   19.20
  -6  13   2  135.89   13.20
   5 -13  -2  105.39   13.60
  -5 -13   2  132.99    9.70
  -5 -13   2  131.39   13.60
   5  13  -2  110.99   16.50
  -5  13   2  142.29   11.90
  -5  13   2   90.49   13.40
   4 -13  -2 1369.96   41.40
  -4 -13   2 1331.37   45.10
  -4 -13   2 1386.76   35.70
   4  13  -2 1422.76   48.40
  -4  13   2 1304.27   39.90
  -4  13   2 1471.75   49.00
  -3 -13   2   41.10    7.20
   3 -13  -2   47.40    6.50
  -3 -13   2   25.50    2.90
  -3  13   2   35.50    7.50
   3  13  -2   21.60    6.30
  -3  13   2   36.00    5.30
   2 -13  -2  194.98   13.70
   2 -13  -2  207.68   10.20
  -2 -13   2  214.68   12.40
   2  13  -2  202.58   12.40
  -2  13   2  180.88   14.00
  -2  13   2  203.98   10.00
  -1 -13   2 1212.98   34.30
   1 -13  -2 1281.97   38.30
   1 -13  -2 1243.58   32.80
  -1  13   2 1229.88   33.70
   1  13  -2 1291.87   34.80
  -1  13   2 1218.48   38.80
   1  13  -2 1270.47   29.70
   0 -13   2 3208.48   73.39
   0 -13  -2 3392.06   76.89
   0 -13  -2 3301.47   78.89
   0  13  -2 3308.67   74.99
   0  13   2 3346.17   77.89
   0  13   2 3343.97   79.79
   0  13  -2 3101.59   73.09
  -1 -13  -2 1517.75   43.70
  -1 -13  -2 1550.54   44.90
   1 -13   2 1675.23   40.60
   1  13   2 1548.74   45.30
  -1  13  -2 1568.14   38.80
   1  13   2 1556.64   44.40
  -2 -13  -2 1810.72   50.69
   2 -13   2 1806.62   47.70
  -2 -13  -2 1848.62   54.39
  -2  13  -2 1825.62   46.80
   2  13   2 1855.51   54.29
   2  13   2 1842.12   51.59
  -3 -13  -2  564.94   28.60
  -3 -13  -2  650.43   26.40
   3 -13   2  613.24   24.10
   3  13   2  565.14   25.20
   3  13   2  614.24   28.50
  -3  13  -2  607.34   23.80
  -4 -13  -2   28.70    9.40
  -4 -13  -2   32.00   11.30
  -4 -13  -2   45.40    9.50
  -4  13  -2   38.90    8.70
  -4  13  -2   25.20    7.30
  -5 -13  -2  262.37   22.50
  -5 -13  -2  244.38   24.30
  -5 -13  -2  297.17   21.40
  -5  13  -2  261.17   19.70
  -5  13  -2  260.37   19.20
  -6 -13  -2  126.79   18.40
  -6 -13  -2  142.49   21.80
  -6  13  -2  116.99   17.80
  -6  13  -2   96.99   14.70
  -7 -13  -2   19.00   12.20
  -7 -13  -2    4.60   12.10
  -7  13  -2  -10.10    8.00
  -7  13  -2   -5.40   12.50
  -8 -13  -2   85.59   20.00
  -8  13  -2   96.69   22.50
  -8  13  -2   98.79   18.50
  -9 -13  -2  195.58   28.80
  -9  13  -2  118.29   21.70
  -9  13  -2  151.98   29.70
 -10 -14   2   20.70   13.30
 -10 -14   2   19.30   14.20
 -10  14   2    3.70   24.10
 -10  14   2   34.10   14.20
 -10  14   2   14.50   16.30
  -9 -14   2  672.93   39.90
  -9 -14   2  681.33   34.40
  -9 -14   2  713.33   42.40
  -9  14   2  659.53   42.10
  -9  14   2  651.03   42.70
  -9  14   2  594.24   35.20
  -8 -14   2  773.22   38.30
  -8 -14   2  827.32   35.50
  -8 -14   2  856.11   43.80
  -8  14   2  818.02   44.10
  -8  14   2  791.82   37.60
  -8  14   2  821.62   42.50
  -7 -14   2   27.40    8.20
  -7 -14   2   26.40   10.90
   7  14  -2   25.30   14.40
  -7  14   2   39.30   12.50
  -7  14   2   30.50    9.30
  -6 -14   2 1385.46   41.80
   6 -14  -2 1374.96   49.80
  -6 -14   2 1404.66   52.09
  -6  14   2 1387.36   45.90
  -6  14   2 1349.36   53.19
   6  14  -2 1343.37   56.19
   5 -14  -2 1622.24   50.09
  -5 -14   2 1566.24   53.19
  -5 -14   2 1542.85   42.40
   5  14  -2 1591.84   57.29
  -5  14   2 1557.14   47.00
  -5  14   2 1614.04   55.99
  -4 -14   2   23.40    6.20
   4 -14  -2   20.40    5.60
  -4 -14   2   22.00    3.90
  -4  14   2   17.70    7.20
   4  14  -2   15.10    6.60
  -4  14   2   19.90    5.00
  -3 -14   2 2661.33   70.19
   3 -14  -2 2710.23   65.29
  -3 -14   2 2635.24   56.79
  -3 -14   2 2777.42   56.79
  -3  14   2 2701.53   74.79
   3  14  -2 2703.13   72.49
  -3  14   2 2755.12   64.69
   2 -14  -2 4053.89   90.69
  -2 -14   2 4135.09   95.69
   2 -14  -2 4072.29   99.39
  -2  14   2 4081.09   90.79
   2  14  -2 4182.68   96.49
  -2  14   2 4063.89  101.39
  -1 -14   2 1027.10   30.70
   1 -14  -2 1125.19   35.20
   1 -14  -2 1089.49   29.50
  -1  14   2 1103.59   30.60
   1  14  -2 1083.59   31.10
   1  14  -2 1082.29   26.30
  -1  14   2 1078.39   35.90
   0 -14   2 1562.84   42.70
   0 -14  -2 1839.52   49.00
   0 -14  -2 1907.21   47.10
   0  14   2 1829.82   49.70
   0  14  -2 1781.32   43.50
   0  14  -2 1803.52   45.20
   0  14   2 1867.31   48.00
  -1 -14  -2 3299.37   82.49
  -1 -14  -2 3457.65   81.89
   1  14   2 3462.85   82.59
  -1  14  -2 3372.66   75.29
   1  14   2 3415.46   83.49
  -2 -14  -2   61.19   10.00
   2 -14   2   64.79    6.70
  -2 -14  -2   52.09    8.00
   2  14   2   73.19    8.20
  -2  14  -2   59.79    6.10
   2  14   2   39.60    7.30
  -3 -14  -2  815.92   30.70
  -3 -14  -2  855.71   35.30
   3 -14   2  804.22   28.40
   3  14   2  798.02   33.60
  -3  14  -2  798.62   27.90
   3  14   2  749.53   30.00
  -4 -14  -2 3239.98   93.29
  -4 -14  -2 3324.87   86.89
  -4 -14  -2 3329.17   93.79
  -4  14  -2 3242.28   83.69
  -4  14  -2 3204.98   84.09
  -5 -14  -2 1337.87   48.30
  -5 -14  -2 1317.47   53.39
  -5 -14  -2 1257.07   53.09
  -5  14  -2 1308.97   46.40
  -5  14  -2 1305.67   46.20
  -6 -14  -2  522.95   31.50
  -6 -14  -2  532.65   34.60
  -6  14  -2  471.15   29.10
  -6  14  -2  511.25   29.20
  -7 -14  -2 1241.58   54.59
  -7 -14  -2 1333.47   60.29
  -7  14  -2 1463.55   55.09
  -7  14  -2 1329.97   56.09
  -8 -14  -2  447.86   38.70
  -8  14  -2  463.05   37.10
  -8  14  -2  471.05   33.20
  -9 -14  -2   24.00   18.30
  -9  14  -2    5.90   23.70
  -9  14  -2   46.50   15.90
 -10 -15   2   40.10   15.40
 -10 -15   2   28.40   15.20
 -10  15   2   29.90   15.10
 -10  15   2   52.59   18.40
 -10  15   2    1.00   23.50
  -9 -15   2    6.40   15.90
  -9 -15   2   16.20   14.00
  -9 -15   2    8.10    9.80
  -9  15   2   13.10   10.20
  -9  15   2  -14.90   10.80
  -9  15   2   -9.40   17.10
  -8 -15   2   25.30    8.80
  -8 -15   2    4.60   10.20
  -8 -15   2   25.40   12.50
  -8  15   2   15.50   13.30
  -8  15   2   17.20    9.50
  -8  15   2   16.90   11.00
  -7 -15   2  201.98   17.80
  -7 -15   2  232.98   16.30
  -7 -15   2  203.78   20.20
   7  15  -2  209.28   27.00
  -7  15   2  232.88   18.50
  -7  15   2  206.28   21.10
   6 -15  -2  107.49   15.40
  -6 -15   2  106.99   10.50
  -6 -15   2   77.19   13.70
  -6 -15   2  121.99   12.30
  -6  15   2   91.49   12.20
  -6  15   2   97.19   15.70
   6  15  -2   94.79   18.30
  -5 -15   2  116.49    9.00
  -5 -15   2  132.69   13.90
   5 -15  -2  111.39   12.60
  -5  15   2  133.19   17.70
   5  15  -2  152.98   19.80
  -5  15   2  155.08   12.30
  -4 -15   2  229.28   10.20
   4 -15  -2  229.28   14.20
  -4 -15   2  237.58   10.00
  -4 -15   2  227.28   16.50
   4  15  -2  229.58   18.40
  -4  15   2  244.88   18.20
  -4  15   2  228.68   13.10
  -3 -15   2  424.16   20.20
   3 -15  -2  411.26   16.50
  -3  15   2  368.96   15.40
  -3  15   2  354.06   21.10
   3  15  -2  384.36   20.40
  -2 -15   2   61.89    8.50
   2 -15  -2   80.99    9.40
   2 -15  -2   73.49    6.20
  -2  15   2   86.49   11.60
  -2  15   2   66.69    6.10
   2  15  -2   73.79    8.00
  -1 -15   2  872.91   26.90
   1 -15  -2  855.71   30.60
   1 -15  -2  910.51   25.60
  -1  15   2  934.81   26.90
   1  15  -2  862.01   22.30
   1  15  -2  887.71   27.00
  -1  15   2  898.51   32.10
   0 -15  -2   81.09    8.30
   0 -15  -2   93.39    7.70
   0  15  -2   73.69    6.80
   0  15  -2   78.89    6.10
   0  15   2  102.29    9.10
   0  15   2   93.09    7.90
  -1 -15  -2    1.90    3.60
  -1 -15  -2   13.70    4.40
   1  15   2    5.60    3.60
   1  15   2    5.70    3.80
  -2 -15  -2  290.17   15.70
  -2 -15  -2  281.27   17.60
   2 -15   2  273.77   13.30
  -2  15  -2  279.57   12.70
   2  15   2  252.97   16.60
   2  15   2  279.07   15.80
  -3 -15  -2  187.08   16.20
   3 -15   2  232.58   13.50
  -3 -15  -2  187.78   14.00
  -3 -15  -2  206.68   17.60
   3  15   2  192.48   14.40
  -3  15  -2  230.68   13.20
   3  15   2  200.58   16.50
  -4 -15  -2   12.00    7.20
  -4 -15  -2   12.40    9.00
  -4 -15  -2   20.40    8.70
  -4  15  -2    3.60    5.20
  -4  15  -2   21.80    6.50
  -5 -15  -2   17.20    9.00
  -5 -15  -2   31.60   10.40
  -5 -15  -2   31.50   13.50
  -5  15  -2   20.30    7.30
  -5  15  -2   30.00    9.30
  -6 -15  -2  100.39   16.50
  -6 -15  -2  109.29   18.50
  -6  15  -2  104.89   16.30
  -6  15  -2  116.99   15.90
  -7 -15  -2    3.10   10.90
  -7 -15  -2    1.50   14.10
  -7  15  -2    1.20   12.30
  -7  15  -2   -4.70    8.50
  -8 -15  -2   31.30   16.30
  -8  15  -2   52.29   14.70
  -8  15  -2   75.69   20.10
  -9 -15  -2   28.30   18.70
  -9  15  -2   61.09   25.00
  -9  15  -2   25.10   13.50
 -10 -16   2   -6.10   12.30
 -10 -16   2    6.50   16.30
 -10  16   2   13.00   23.50
 -10  16   2    9.20   12.70
 -10  16   2   29.40   16.50
  -9 -16   2  277.07   22.30
  -9 -16   2  309.27   30.90
  -9 -16   2  244.08   27.30
  -9  16   2  250.77   30.10
  -9  16   2  256.97   23.90
  -9  16   2  319.77   29.70
  -8 -16   2  464.95   25.50
  -8 -16   2  492.85   29.10
  -8 -16   2  501.55   34.80
  -8  16   2  472.35   32.60
  -8  16   2  555.74   37.30
  -8  16   2  483.05   29.20
  -7 -16   2    8.20    6.60
  -7 -16   2   15.30    8.90
  -7 -16   2   23.30   11.00
  -7  16   2   13.70    7.70
   7  16  -2   10.40   15.40
  -7  16   2   15.30   10.40
  -6 -16   2  721.33   28.90
  -6 -16   2  825.02   38.20
   6 -16  -2  751.52   34.70
  -6 -16   2  834.72   28.40
   6  16  -2  850.31   43.10
  -6  16   2  759.82   38.40
  -6  16   2  783.52   31.40
   5 -16  -2  573.24   26.40
  -5 -16   2  629.64   30.40
  -5 -16   2  604.74   21.80
  -5 -16   2  644.64   21.40
  -5  16   2  591.94   24.80
  -5  16   2  594.34   31.70
   5  16  -2  637.54   34.20
  -4 -16   2    5.50    2.50
   4 -16  -2    5.50    4.60
  -4 -16   2    3.30    2.60
  -4 -16   2   16.30    5.90
  -4  16   2    6.20    5.70
   4  16  -2    4.60    6.40
  -4  16   2   13.50    4.00
   3 -16  -2 1385.56   38.00
  -3 -16   2 1442.06   43.90
  -3  16   2 1372.26   37.20
   3  16  -2 1403.56   45.30
  -3  16   2 1415.46   48.00
   2 -16  -2 1215.48   32.60
  -2 -16   2 1216.78   37.10
   2 -16  -2 1271.67   41.00
  -2  16   2 1230.78   32.90
  -2  16   2 1213.48   42.20
   2  16  -2 1233.88   37.80
   1 -16  -2   53.99    8.50
  -1 -16   2   59.49    6.10
   1 -16  -2   61.49    5.90
   1  16  -2   62.69    6.20
  -1  16   2   63.49    6.00
  -1  16   2   74.29   10.30
   1  16  -2   66.09    4.60
   0 -16  -2 2088.49   55.69
   0 -16  -2 2044.80   52.59
   0  16  -2 2082.09   49.30
   0  16   2 2041.50   56.19
   0  16   2 2114.39   53.79
   0  16  -2 2117.19   51.69
  -1 -16  -2 2727.03   69.39
  -1 -16  -2 2822.92   71.09
   1  16   2 2818.12   71.39
   1  16   2 2778.42   70.49
  -1  16  -2 2775.52   62.49
  -2 -16  -2  445.76   22.40
  -2 -16  -2  426.86   19.80
  -2  16  -2  457.45   16.40
   2  16   2  451.35   22.60
   2  16   2  442.26   20.60
  -3 -16  -2  198.78   15.00
  -3 -16  -2  211.48   18.00
   3 -16   2  181.88   12.60
  -3 -16  -2  223.38   18.00
   3  16   2  196.58   14.40
  -3  16  -2  225.88   12.90
  -3  16  -2  221.98   13.60
  -4 -16  -2 1358.36   52.69
  -4 -16  -2 1418.86   52.99
  -4 -16  -2 1432.66   47.10
  -4  16  -2 1384.56   43.90
  -4  16  -2 1422.76   44.70
  -5 -16  -2  311.67   24.60
  -5 -16  -2  360.06   23.10
  -5 -16  -2  275.07   25.20
  -5  16  -2  310.97   21.00
  -5  16  -2  327.27   20.70
  -6 -16  -2  387.96   30.00
  -6 -16  -2  355.96   26.10
  -6  16  -2  332.07   23.90
  -6  16  -2  360.36   24.00
  -7 -16  -2  590.34   36.80
  -7 -16  -2  621.84   41.60
  -7  16  -2  618.24   33.80
  -7  16  -2  647.64   36.60
  -8 -16  -2  165.78   27.60
  -8  16  -2  112.09   18.60
  -8  16  -2  117.29   23.30
  -9 -16  -2   27.70   20.20
  -9  16  -2   47.20   16.20
  -9  16  -2    8.90   23.40
 -10 -17   2  365.66   35.40
 -10 -17   2  410.96   29.70
 -10  17   2  399.86   41.90
 -10  17   2  445.16   38.20
 -10  17   2  353.16   30.80
  -9 -17   2   56.29   13.70
  -9 -17   2   87.69   19.10
  -9 -17   2   46.50   15.60
  -9  17   2   57.39   16.80
  -9  17   2   43.90   18.90
  -9  17   2   52.89   13.60
  -8 -17   2  419.86   27.00
  -8 -17   2  463.25   32.20
  -8 -17   2  360.46   22.10
  -8  17   2  432.06   30.50
  -8  17   2  369.66   30.80
  -8  17   2  374.56   25.40
  -7 -17   2 1233.88   43.10
  -7 -17   2 1295.87   41.40
  -7 -17   2 1244.88   52.29
  -7  17   2 1236.98   45.20
  -7  17   2 1309.27   55.19
   7  17  -2 1257.97   61.39
  -6 -17   2  580.74   31.50
   6 -17  -2  611.94   29.90
  -6 -17   2  598.44   24.50
  -6 -17   2  561.74   22.50
   6  17  -2  629.64   38.00
  -6  17   2  613.24   34.70
  -6  17   2  533.85   25.50
   5 -17  -2  332.47   19.80
  -5 -17   2  351.46   14.60
  -5 -17   2  338.87   15.20
  -5 -17   2  339.57   22.00
  -5  17   2  384.76   18.80
   5  17  -2  363.26   25.10
  -5  17   2  339.27   23.80
  -4 -17   2 2683.53   73.49
  -4 -17   2 2658.13   57.39
   4 -17  -2 2663.43   66.99
  -4 -17   2 2647.94   57.59
  -4  17   2 2540.65   64.69
  -4  17   2 2602.54   77.09
   4  17  -2 2665.23   77.19
   3 -17  -2 1151.88   33.10
  -3 -17   2 1255.97   39.70
  -3  17   2 1125.59   32.40
   3  17  -2 1158.38   40.50
  -3  17   2 1242.08   43.90
   2 -17  -2  482.05   17.60
  -2 -17   2  595.54   22.70
   2 -17  -2  589.64   25.40
  -2  17   2  569.44   26.60
  -2  17   2  592.44   19.00
   2  17  -2  568.84   22.90
   1 -17  -2 3504.55   86.69
   1 -17  -2 3252.07   78.09
  -1 -17   2 3420.46   80.59
  -1  17   2 3609.14   80.29
  -1  17   2 3531.85   88.79
   1  17  -2 3675.93   81.39
   1  17  -2 3569.04   75.29
   0 -17  -2 2111.99   54.09
   0 -17  -2 2128.69   57.39
   0  17   2 2169.08   55.19
   0  17  -2 2139.99   50.49
   0  17  -2 2200.28   53.29
   0  17   2 2105.19   57.99
  -1 -17  -2  403.86   18.90
  -1 -17  -2  435.66   20.20
  -1  17  -2  459.95   14.50
   1  17   2  416.36   19.40
   1  17   2  407.46   19.60
  -2 -17  -2 2361.66   66.89
  -2 -17  -2 2472.55   63.39
  -2  17  -2 2327.77   55.89
   2  17   2 2395.86   66.99
   2  17   2 2378.36   63.69
   3 -17   2 1487.95   42.50
  -3 -17  -2 1434.66   45.70
  -3 -17  -2 1516.45   52.09
  -3 -17  -2 1509.35   52.39
  -3  17  -2 1517.35   43.20
   3  17   2 1484.85   46.60
  -3  17  -2 1549.74   42.00
  -4 -17  -2   13.50    8.60
  -4 -17  -2   -3.60    6.10
  -4 -17  -2   -9.80    6.30
  -4  17  -2   -1.80    4.00
  -4  17  -2    1.40    4.80
  -5 -17  -2  792.52   35.30
  -5 -17  -2  774.42   47.80
  -5 -17  -2  838.82   41.00
  -5  17  -2  772.52   32.50
  -5  17  -2  794.02   33.30
  -6 -17  -2 1096.39   52.09
  -6 -17  -2 1116.19   46.50
  -6  17  -2 1130.49   45.10
  -6  17  -2 1203.78   44.80
  -7 -17  -2   25.10   16.00
  -7 -17  -2   44.80   14.40
  -7  17  -2   51.39   15.40
  -7  17  -2   60.19   13.60
  -8 -17  -2  355.06   34.10
  -8  17  -2  398.86   33.70
  -8  17  -2  360.16   27.60
  -9 -17  -2  371.16   37.30
  -9  17  -2  384.86   46.70
  -9  17  -2  363.26   31.10
 -10 -18   2   23.90   13.40
 -10 -18   2   42.10   18.10
 -10  18   2   28.90   13.90
 -10  18   2   -5.70   15.30
  -9 -18   2   12.20   10.60
  -9 -18   2    8.80   16.20
  -9 -18   2    6.40   14.90
  -9  18   2   28.40   12.20
  -9  18   2   16.20   13.50
  -9  18   2   22.30   16.40
  -8 -18   2   -0.40    7.40
  -8 -18   2   13.50   12.00
  -8 -18   2    5.20   11.20
  -8  18   2   13.70   13.20
  -8  18   2    5.70    8.50
  -8  18   2   12.60   11.80
  -7 -18   2   10.00    8.90
  -7 -18   2   14.20   11.10
  -7 -18   2   38.00    8.00
  -7  18   2   16.90   10.20
  -7  18   2   20.00   10.70
   7  18  -2   26.50   15.80
  -7  18   2   20.60    8.20
  -6 -18   2   11.80    8.10
   6 -18  -2   16.30    8.60
  -6 -18   2   10.10    6.10
  -6 -18   2   10.70    4.90
  -6  18   2   10.30    5.40
   6  18  -2   11.40   12.50
  -6  18   2   11.60    9.10
  -5 -18   2   24.50    4.90
   5 -18  -2   32.90    8.30
  -5 -18   2   24.60    8.60
  -5 -18   2   22.00    4.80
  -5  18   2   28.40    6.40
   5  18  -2   20.60   10.10
  -5  18   2   26.70    9.30
   4 -18  -2   81.49    9.20
  -4 -18   2  105.29   12.00
   4  18  -2   65.59   11.70
  -4  18   2  101.69   14.90
  -4  18   2   95.49    8.20
   3 -18  -2    3.30    3.30
  -3 -18   2    0.30    3.90
  -3  18   2    0.20    4.30
  -3  18   2    3.20    2.70
   3  18  -2    9.60    5.40
   2 -18  -2    3.30    2.40
   2 -18  -2    5.90    4.50
  -2 -18   2    4.20    3.80
   2  18  -2    6.50    4.10
  -2  18   2    4.20    2.50
  -2  18   2   10.30    5.30
  -1 -18   2 1162.68   33.20
   1 -18  -2 1174.28   38.10
   1 -18  -2 1185.38   31.50
   1  18  -2 1186.28   28.40
  -1  18   2 1163.88   32.50
  -1  18   2 1101.99   39.10
   1  18  -2 1148.59   28.30
   0 -18  -2  383.56   18.90
   0 -18  -2  381.96   16.80
   0  18  -2  394.86   16.20
   0  18   2  398.56   17.40
   0  18  -2  448.36   14.70
   0  18   2  388.06   19.30
  -1 -18  -2    1.80    4.20
  -1 -18  -2    8.50    4.40
   1  18   2   -1.30    3.50
   1  18   2   -0.60    3.40
  -1  18  -2    0.60    1.90
  -2 -18  -2   12.40    5.10
  -2 -18  -2    4.10    6.00
   2  18   2    4.30    4.70
   2  18   2    6.00    4.10
  -2  18  -2    6.00    2.60
  -3 -18  -2   97.29   13.90
  -3 -18  -2  119.59   13.60
  -3 -18  -2  102.69   11.00
   3 -18   2   71.69    8.20
  -3  18  -2   93.89    8.60
  -3  18  -2   75.09    8.40
   3  18   2   95.49   11.00
  -4 -18  -2   21.70    8.60
  -4 -18  -2   17.80    9.70
  -4 -18  -2    8.70    6.70
  -4  18  -2   28.40    6.90
  -4  18  -2   20.80    6.30
  -5 -18  -2  240.48   20.30
  -5 -18  -2  235.88   22.20
  -5  18  -2  243.38   18.30
  -5  18  -2  268.57   18.20
  -6 -18  -2   30.30   12.10
  -6 -18  -2   42.10   12.70
  -6  18  -2   36.00   10.10
  -6  18  -2   41.90   11.50
  -7 -18  -2   11.80   15.00
  -7 -18  -2   -9.00   11.20
  -7  18  -2   25.20   10.20
  -7  18  -2    5.70   12.40
  -8 -18  -2   34.80   16.30
  -8  18  -2    2.60   16.30
  -8  18  -2   16.40   10.60
  -9 -18  -2    5.70   18.60
  -9  18  -2    7.20   13.50
 -10 -19   2  450.65   31.30
 -10 -19   2  491.75   41.70
 -10  19   2  489.45   33.00
 -10  19   2  409.86   39.10
  -9 -19   2   25.70   11.10
  -9 -19   2   14.30   15.70
  -9 -19   2   34.90   16.00
  -9  19   2   26.10   16.60
  -9  19   2   12.60   17.30
  -9  19   2   31.20   11.00
  -8 -19   2  366.26   29.80
  -8 -19   2  397.86   22.80
  -8 -19   2  340.67   25.60
  -8  19   2  370.56   24.80
  -8  19   2  406.36   32.10
  -8  19   2  392.16   29.20
  -7 -19   2  892.41   42.90
  -7 -19   2  839.22   33.10
  -7 -19   2  836.22   31.00
   7  19  -2  847.92   49.00
  -7  19   2  853.01   35.10
  -7  19   2  845.82   37.90
  -7  19   2  814.12   43.30
  -6 -19   2  492.05   19.80
  -6 -19   2  485.35   29.00
   6 -19  -2  491.15   26.70
  -6 -19   2  471.15   20.80
  -6  19   2  475.45   23.20
  -6  19   2  521.35   32.00
   6  19  -2  528.45   35.80
  -5 -19   2  209.58   10.10
   5 -19  -2  216.88   16.20
  -5 -19   2  206.28   17.50
  -5 -19   2  219.88   10.70
  -5  19   2  180.38   18.30
  -5  19   2  222.48   13.90
   5  19  -2  236.18   21.30
   4 -19  -2 1570.94   44.70
  -4 -19   2 1602.84   51.49
  -4  19   2 1706.33   43.70
  -4  19   2 1574.74   55.39
   4  19  -2 1553.54   54.49
   3 -19  -2  970.80   28.50
  -3 -19   2  972.40   34.60
   3  19  -2  969.30   36.50
  -3  19   2 1006.20   39.70
  -3  19   2  973.00   27.90
   2 -19  -2  297.77   12.30
  -2 -19   2  281.87   15.50
   2 -19  -2  298.67   18.40
  -2  19   2  284.07   18.60
   2  19  -2  303.07   16.40
  -2  19   2  308.67   12.60
   1 -19  -2 2141.69   51.69
  -1 -19   2 2150.28   53.89
   1 -19  -2 2134.59   59.99
   1  19  -2 2171.28   48.90
  -1  19   2 2149.98   53.09
   1  19  -2 2153.38   48.70
   1  19  -2 2255.07   54.49
  -1  19   2 2169.98   61.99
   0 -19  -2  549.25   20.90
   0 -19  -2  553.54   23.40
   0  19   2  547.85   21.30
   0  19   2  540.65   23.80
   0  19  -2  588.44   18.00
   1 -19   2  239.88   10.60
  -1 -19  -2  225.88   14.30
  -1 -19  -2  236.68   15.10
   1  19   2  230.78   14.60
   1  19   2  260.67   15.40
  -1  19  -2  243.68    9.70
   2 -19   2 1656.73   42.40
  -2 -19  -2 1685.93   52.59
  -2 -19  -2 1667.63   48.30
  -2  19  -2 1624.54   40.30
   2  19   2 1717.13   49.60
   2  19   2 1694.53   52.19
  -3 -19  -2 1662.23   56.59
  -3 -19  -2 1729.33   51.09
  -3 -19  -2 1672.03   57.19
  -3  19  -2 1686.03   45.00
  -3  19  -2 1838.22   47.00
   3  19   2 1743.73   51.99
  -4 -19  -2   10.60    6.90
  -4 -19  -2    4.60    7.20
  -4 -19  -2   12.80    9.10
  -4  19  -2    9.10    5.40
  -4  19  -2   -1.40    4.20
  -5 -19  -2 1072.59   48.20
  -5 -19  -2 1047.40   41.60
  -5  19  -2 1032.30   38.50
  -5  19  -2  995.20   37.10
  -6 -19  -2 1242.58   55.39
  -6 -19  -2 1276.77   50.09
  -6  19  -2 1265.87   47.80
  -6  19  -2 1262.37   46.10
  -7 -19  -2   91.89   19.10
  -7 -19  -2   54.39   18.50
  -7  19  -2   93.89   15.60
  -7  19  -2  105.39   17.80
  -8 -19  -2  282.47   33.30
  -8  19  -2  302.57   25.80
  -8  19  -2  292.27   30.40
  -9 -19  -2  559.84   44.20
  -9  19  -2  468.45   34.40
 -10 -20   2   32.10   14.60
 -10 -20   2    0.90   16.00
 -10 -20   2  -14.60   26.30
 -10  20   2    1.60   17.00
 -10  20   2   28.70   14.20
  -9 -20   2  292.07   22.30
  -9 -20   2  285.37   28.70
  -9 -20   2  276.07   31.50
  -9  20   2  282.47   30.30
  -9  20   2  296.27   32.60
  -9  20   2  287.77   24.70
  -8 -20   2  400.86   22.60
  -8 -20   2  384.16   25.50
  -8 -20   2  389.36   32.40
  -8  20   2  365.36   29.40
  -8  20   2  415.86   25.60
  -8  20   2  384.36   32.30
  -7 -20   2   14.20    6.50
  -7 -20   2   -0.60    7.70
  -7 -20   2   21.30   11.30
  -7  20   2   28.60   10.80
  -7  20   2   19.50    7.70
   7  20  -2   -6.10   17.00
  -7  20   2   -2.20    9.10
  -6 -20   2  340.57   16.90
  -6 -20   2  357.36   16.30
  -6 -20   2  398.06   26.20
   6 -20  -2  354.86   23.00
   6  20  -2  381.26   31.60
  -6  20   2  372.46   20.00
  -6  20   2  348.17   26.90
  -5 -20   2 1159.08   29.80
   5 -20  -2 1182.08   39.60
  -5 -20   2 1181.38   30.30
  -5 -20   2 1251.47   46.20
  -5  20   2 1174.78   48.40
  -5  20   2 1145.19   36.30
   5  20  -2 1155.68   48.60
  -4 -20   2    6.90    5.10
   4 -20  -2   10.70    4.80
  -4  20   2    8.10    3.50
   4  20  -2    7.00    6.80
  -4  20   2   10.10    6.60
  -3 -20   2 1064.89   37.20
   3 -20  -2 1153.98   31.30
  -3  20   2 1094.79   42.50
   3  20  -2 1047.10   39.30
  -3  20   2 1125.19   30.40
  -2 -20   2 1858.81   50.79
   2 -20  -2 1828.92   55.39
   2 -20  -2 1828.52   44.40
  -2  20   2 1886.31   45.00
  -2  20   2 1704.53   56.39
   2  20  -2 1862.01   51.89
   1 -20  -2  758.12   29.90
   1 -20  -2  740.93   22.80
  -1 -20   2  774.92   24.90
  -1  20   2  761.62   31.00
   1  20  -2  782.62   25.30
  -1  20   2  764.32   24.10
   1  20  -2  773.02   20.90
   1  20  -2  772.52   20.80
   0 -20   2  839.22   25.70
   0 -20  -2  878.81   28.40
   0 -20  -2  886.41   31.60
   0  20   2  883.41   32.40
   0  20  -2  945.21   25.10
   0  20   2  923.31   29.40
  -1 -20  -2 3380.36   83.89
  -1 -20  -2 3410.56   84.89
   1 -20   2 3591.94   75.89
  -1  20  -2 3344.87   73.79
   1  20   2 3356.36   84.69
   1  20   2 3385.76   84.79
   2 -20   2   43.40    5.90
  -2 -20  -2   22.90    7.50
  -2 -20  -2   39.10    7.50
   2  20   2   52.19    8.70
  -2  20  -2   54.09    4.90
   2  20   2   53.99    9.60
  -3 -20  -2  401.56   24.60
  -3 -20  -2  404.66   21.00
  -3 -20  -2  457.25   25.80
   3  20   2  476.35   22.60
  -3  20  -2  444.56   18.00
  -3  20  -2  432.06   17.00
  -4 -20  -2 1049.59   38.30
  -4 -20  -2 1000.00   44.80
  -4 -20  -2 1040.30   44.60
  -4  20  -2 1061.79   34.20
   4  20   2 1056.69   38.60
  -4  20  -2  999.50   33.70
  -5 -20  -2   34.20   12.20
  -5 -20  -2   38.00   10.90
  -5  20  -2   46.30    9.10
  -5  20  -2   61.59   10.60
  -6 -20  -2   24.20   12.30
  -6 -20  -2   27.20   12.70
  -6  20  -2   34.70    9.70
  -6  20  -2   38.90   11.20
  -7 -20  -2  416.76   32.80
  -7 -20  -2  407.56   34.80
  -7  20  -2  446.96   30.60
  -7  20  -2  385.56   25.50
  -8 -20  -2  186.48   28.60
  -8  20  -2  144.59   20.30
  -8  20  -2  152.08   23.60
  -9 -20  -2   20.00   18.10
  -9  20  -2    5.60   13.70
 -10 -21   2    1.80   13.60
 -10 -21   2   24.70   19.50
 -10  21   2   15.70   13.40
 -10  21   2   40.70   20.50
  -9 -21   2   21.80   16.50
  -9 -21   2   -1.10   13.50
  -9 -21   2   12.30   10.50
  -9  21   2   20.00   11.10
  -9  21   2  -22.40   12.80
  -9  21   2   56.19   19.40
  -8 -21   2   26.60   13.40
  -8 -21   2   32.50    9.20
  -8 -21   2   29.50   11.70
  -8  21   2   21.40   13.10
  -8  21   2   25.50   10.00
  -8  21   2   21.20   13.10
  -7 -21   2   36.40    7.90
  -7 -21   2   36.10   13.20
  -7 -21   2   33.90    9.30
  -7  21   2   27.80    8.80
   7  21  -2   41.40   18.30
  -7  21   2   29.60   11.70
  -7  21   2   50.99   11.80
  -6 -21   2   80.09   15.30
  -6 -21   2   67.39    8.00
   6 -21  -2   71.99   13.10
  -6 -21   2   67.89    8.30
  -6  21   2   58.99    9.40
  -6  21   2   94.99   17.10
   6  21  -2   63.89   17.00
   5 -21  -2    7.70    6.60
  -5 -21   2    9.40    7.10
  -5 -21   2   10.10    2.90
  -5 -21   2    4.90    2.60
   5  21  -2   -5.90    7.70
  -5  21   2    7.60    7.80
  -5  21   2    5.80    4.50
  -4 -21   2  398.86   22.50
   4 -21  -2  366.06   17.10
  -4  21   2  363.16   15.50
  -4  21   2  400.86   25.30
   4  21  -2  377.56   24.50
  -3 -21   2   11.80    5.20
   3 -21  -2   15.30    4.20
  -3  21   2    6.10    3.10
  -3  21   2   19.10    7.80
   3  21  -2    8.30    5.90
  -2 -21   2  192.88   12.80
   2 -21  -2  186.68    9.40
   2 -21  -2  209.08   16.00
  -2  21   2  188.08    9.50
   2  21  -2  198.58   13.80
  -2  21   2  176.98   15.90
  -1 -21   2   21.30    5.00
   1 -21  -2   32.80    4.70
   1 -21  -2   13.60    6.30
   1  21  -2   30.00    3.90
  -1  21   2   30.40    7.50
  -1  21   2   34.80    5.20
   1  21  -2   25.90    3.80
   1  21  -2   32.20    5.50
   0 -21  -2   14.10    5.10
   0 -21   2    7.00    2.90
   0 -21  -2    4.50    3.90
   0  21  -2    6.50    2.80
   0  21   2    8.40    5.10
   0  21   2    4.70    3.60
  -1 -21  -2  128.29   11.50
  -1 -21  -2  111.09   11.00
   1 -21   2  107.39    7.00
   1  21   2  106.19   10.80
   1  21   2  103.09   10.60
  -1  21  -2  130.69    6.40
  -2 -21  -2  106.09   13.50
   2 -21   2  100.09    7.30
  -2 -21  -2   95.59   13.00
  -2 -21  -2  100.09   10.50
  -2  21  -2   96.89    6.10
   2  21   2  101.59   10.60
  -3 -21  -2  225.48   18.70
  -3 -21  -2  202.78   18.70
  -3 -21  -2  208.38   14.90
  -3  21  -2  223.58   11.80
  -3  21  -2  184.18   10.40
   3  21   2  229.58   15.60
  -4 -21  -2   11.10   10.20
  -4 -21  -2   14.60    9.30
  -4 -21  -2   32.20    8.60
  -4  21  -2   27.00    6.50
  -4  21  -2   30.90    6.70
   4  21   2   23.00    7.90
  -5 -21  -2   84.39   15.90
  -5 -21  -2  109.19   15.20
  -5  21  -2  104.99   11.90
  -5  21  -2  102.19   12.70
  -6 -21  -2   43.00   13.60
  -6 -21  -2   52.29   14.00
  -6  21  -2   36.90   11.40
  -6  21  -2   24.20    8.40
  -7 -21  -2   34.70   15.50
  -7 -21  -2   16.30   15.10
  -7  21  -2   13.00   12.10
  -7  21  -2   21.90    9.50
  -8 -21  -2   51.09   19.00
  -8  21  -2   42.40   18.70
  -8  21  -2   66.19   15.10
  -9 -21  -2   76.69   26.00
  -9  21  -2   27.10   15.00
 -10 -22   2   11.70   16.50
 -10 -22   2   21.90   13.80
 -10  22   2   -1.50   12.80
 -10  22   2   12.90   18.80
  -9 -22   2  604.84   30.60
  -9 -22   2  509.95   33.40
  -9 -22   2  595.24   42.00
  -9  22   2  605.24   33.10
  -9  22   2  595.04   39.70
  -9  22   2  508.55   40.40
  -8 -22   2  544.05   27.90
  -8 -22   2  566.14   25.80
  -8 -22   2  541.55   36.50
  -8  22   2  544.55   29.00
  -8  22   2  507.05   33.10
  -8  22   2  445.66   35.50
  -7 -22   2   23.80    7.00
  -7 -22   2   20.70   10.70
  -7 -22   2   38.30    8.90
  -7  22   2   12.40    7.80
  -7  22   2   21.40   12.10
  -7  22   2    6.90    9.80
   6 -22  -2  702.63   31.50
  -6 -22   2  688.53   36.30
  -6 -22   2  707.33   23.00
  -6 -22   2  707.03   22.40
   6  22  -2  689.23   41.20
  -6  22   2  703.83   28.00
  -6  22   2  711.33   30.50
  -6  22   2  664.33   38.20
   5 -22  -2 1278.97   40.90
  -5 -22   2 1328.77   48.60
  -5  22   2 1268.87   37.60
  -5  22   2 1244.08   51.49
   5  22  -2 1171.38   50.19
  -4 -22   2   20.60    7.30
   4 -22  -2   28.00    6.20
  -4  22   2   25.70    5.00
  -4  22   2   32.00    9.80
   4  22  -2   22.70    8.50
  -3 -22   2 2071.19   58.59
   3 -22  -2 2000.70   49.20
  -3  22   2 1971.30   64.59
   3  22  -2 2112.19   61.59
  -3  22   2 2034.10   48.70
   2 -22  -2 1939.41   45.70
   2 -22  -2 1938.31   57.99
  -2 -22   2 1883.51   52.09
  -2  22   2 1869.71   59.69
  -2  22   2 1882.31   45.60
   2  22  -2 1909.61   53.79
   1 -22  -2   60.09    6.10
   1 -22  -2   61.89    9.90
  -1 -22   2   80.69    7.50
   1  22  -2   71.19    5.40
   1  22  -2   76.19    7.60
  -1  22   2   68.19    6.60
  -1  22   2   80.19   11.40
   1  22  -2   68.29    5.30
   0 -22  -2 1306.87   38.10
   0 -22   2 1340.47   34.10
   0 -22  -2 1387.46   42.80
   0  22  -2 1323.57   37.50
   0  22   2 1353.56   39.00
   0  22   2 1312.47   43.10
   0  22  -2 1329.77   33.80
  -1 -22  -2 2748.63   71.89
   1 -22   2 2844.62   62.39
  -1 -22  -2 2803.82   72.69
   1  22   2 2759.72   72.39
   1  22   2 2785.42   72.99
  -1  22  -2 2803.12   60.09
  -2 -22  -2  670.13   29.80
   2 -22   2  663.73   20.00
  -2 -22  -2  679.73   26.70
  -2 -22  -2  634.74   29.60
  -2  22  -2  659.33   18.10
  -2  22  -2  642.84   18.80
   2  22   2  684.83   27.50
  -3 -22  -2  139.09   15.10
  -3 -22  -2  123.19   17.20
  -3 -22  -2  107.89   12.20
   3  22   2  138.69   12.80
  -3  22  -2  147.89    9.00
  -3  22  -2  121.69    8.20
  -4 -22  -2 1092.09   48.80
  -4 -22  -2 1183.78   41.40
  -4 -22  -2 1222.78   49.10
  -4  22  -2 1186.78   35.80
   4  22   2 1221.08   42.10
  -4  22  -2 1204.38   36.40
  -5 -22  -2  467.55   26.70
  -5 -22  -2  466.55   32.00
  -5  22  -2  477.65   22.60
  -5  22  -2  488.65   23.80
  -6 -22  -2  157.28   20.10
  -6 -22  -2  138.69   21.70
  -6  22  -2  144.29   14.90
  -6  22  -2  125.29   15.80
  -7 -22  -2  645.34   43.10
  -7 -22  -2  678.43   39.50
  -7  22  -2  610.44   31.90
  -7  22  -2  633.14   35.40
  -8 -22  -2  375.06   36.00
  -8  22  -2  374.96   27.40
  -8  22  -2  332.57   33.20
  -9 -22  -2   51.29   24.60
  -9  22  -2   54.29   16.20
 -10 -23   2   90.49   25.00
 -10 -23   2  104.49   18.20
 -10  23   2  130.29   27.70
 -10  23   2  113.69   19.00
  -9 -23   2   35.90   17.40
  -9 -23   2   54.99   18.40
  -9 -23   2   65.59   13.30
  -9  23   2   67.29   14.50
  -9  23   2   95.99   21.70
  -9  23   2   36.10   17.60
  -8 -23   2   30.20   11.60
  -8 -23   2   14.60    8.70
  -8 -23   2   14.50   13.60
  -8  23   2   15.70   13.90
  -8  23   2   41.70   11.30
  -8  23   2   38.00   14.10
  -7 -23   2  535.15   34.20
  -7 -23   2  579.14   22.50
  -7 -23   2  602.54   24.10
  -7  23   2  608.34   39.40
  -7  23   2  549.54   29.80
  -7  23   2  520.45   26.00
  -6 -23   2  112.79    8.40
   6 -23  -2  122.39   15.40
  -6 -23   2  102.49    7.90
  -6 -23   2  128.79   19.10
  -6  23   2  106.39   18.20
  -6  23   2  104.19   11.40
  -6  23   2  109.29   13.80
   6  23  -2  122.49   22.80
  -5 -23   2  226.18   19.50
   5 -23  -2  247.98   16.60
   5  23  -2  248.48   23.80
  -5  23   2  234.18   21.60
  -5  23   2  271.27   14.10
   4 -23  -2  435.76   18.60
  -4 -23   2  432.16   24.10
  -4  23   2  490.15   17.40
   4  23  -2  409.86   26.10
  -4  23   2  489.75   29.50
   3 -23  -2  585.24   19.10
  -3 -23   2  590.44   26.10
  -3  23   2  582.74   18.40
  -3  23   2  638.04   32.30
   3  23  -2  600.54   28.10
  -2 -23   2   -2.80    3.70
   2 -23  -2    8.60    6.30
   2 -23  -2    6.90    3.00
  -2  23   2    1.80    2.60
   2  23  -2   -3.40    4.20
  -2  23   2   -0.70    5.50
   1 -23  -2  923.11   26.60
   1 -23  -2  964.60   35.40
  -1 -23   2  929.11   28.70
  -1  23   2  980.20   27.90
  -1  23   2  957.40   36.80
   1  23  -2  942.51   24.90
   1  23  -2  923.81   25.10
   1  23  -2  952.00   29.50
   0 -23  -2 1173.98   39.10
   0 -23   2 1072.99   30.00
   0 -23  -2 1184.08   35.10
   0  23   2 1265.67   36.30
   0  23  -2 1162.88   34.30
   0  23  -2 1168.98   30.40
   0  23   2 1183.28   40.10
   1 -23   2   65.19    5.40
  -1 -23  -2   67.19    9.70
  -1 -23  -2   59.79    9.30
  -1  23  -2   66.19    3.90
   1  23   2   62.39    9.30
   1  23   2   67.89    9.70
  -2 -23  -2  627.14   29.20
  -2 -23  -2  598.54   28.70
   2 -23   2  587.64   18.10
  -2 -23  -2  618.44   26.00
  -2  23  -2  630.14   16.60
   2  23   2  615.84   26.20
  -2  23  -2  626.24   16.20
  -3 -23  -2  848.52   37.90
  -3 -23  -2  864.81   37.80
  -3 -23  -2  859.81   32.30
   3  23   2  842.82   32.50
  -3  23  -2  866.91   24.90
  -3  23  -2  835.72   24.00
  -4 -23  -2   11.60    8.10
  -4 -23  -2   11.60    8.70
  -4  23  -2   32.10    6.10
  -4  23  -2   13.30    5.10
   4  23   2    9.80    7.10
  -5 -23  -2  248.98   24.30
  -5 -23  -2  201.98   19.00
  -5  23  -2  229.68   16.00
  -5  23  -2  216.48   15.10
  -6 -23  -2  358.76   30.60
  -6 -23  -2  300.67   25.50
  -6  23  -2  339.67   20.80
  -6  23  -2  329.67   22.10
  -7 -23  -2    4.70   14.50
  -7 -23  -2   17.80   16.20
  -7  23  -2   21.60    9.80
  -7  23  -2   11.00   12.50
  -8 -23  -2  159.08   27.20
  -8  23  -2  184.58   25.10
  -8  23  -2  155.78   19.80
  -9 -23  -2  132.29   27.00
  -9  23  -2  149.29   21.60
  -9 -24   2   81.99   17.10
  -9 -24   2   70.69   18.30
  -9 -24   2   81.09   14.20
  -9  24   2   67.19   14.10
  -9  24   2   71.19   23.00
  -9  24   2   57.99   20.80
  -8 -24   2   98.49   19.90
  -8 -24   2  112.39   14.10
  -8 -24   2  111.89   12.70
  -8  24   2  105.99   14.90
  -8  24   2   80.59   19.00
  -8  24   2  132.39   18.70
  -7 -24   2   18.40   12.20
  -7 -24   2   26.60    7.60
  -7 -24   2   33.20    6.80
  -7  24   2   27.80   13.30
  -7  24   2   35.40    8.70
  -7  24   2   28.50   10.70
  -6 -24   2   82.69    6.30
   6 -24  -2   74.89   12.60
  -6 -24   2  102.19   17.10
  -6 -24   2  101.49    6.70
  -6  24   2   81.89   10.30
  -6  24   2   66.99   11.20
  -6  24   2   69.99   15.50
   6  24  -2  103.09   21.00
  -5 -24   2  224.98   18.90
   5 -24  -2  268.97   16.90
   5  24  -2  263.67   24.80
  -5  24   2  229.08   13.00
  -5  24   2  220.48   14.20
  -5  24   2  266.37   22.90
  -4 -24   2   41.20    9.80
   4 -24  -2   38.80    6.90
  -4  24   2   28.10    4.70
   4  24  -2   44.80   11.40
  -4  24   2   50.99   12.30
   3 -24  -2  319.27   12.80
  -3 -24   2  315.07   18.70
  -3  24   2  303.47   22.80
   3  24  -2  309.57   20.50
  -3  24   2  304.47   11.60
   2 -24  -2  112.99    7.20
   2 -24  -2  122.69   13.00
  -2 -24   2  116.69   10.70
  -2  24   2  119.49   14.00
  -2  24   2  112.89    6.80
   2  24  -2  121.39   11.10
   1 -24  -2   17.30    7.00
   1 -24  -2   13.50    3.70
  -1  24   2    5.90    3.40
   1  24  -2    6.50    3.00
  -1  24   2    5.90    4.70
   1  24  -2    8.80    4.20
   1  24  -2    9.20    3.10
   0 -24   2  394.86   14.10
   0 -24  -2  422.46   17.90
   0 -24  -2  376.36   20.30
   0  24   2  375.86   20.70
   0  24  -2  400.46   17.30
   0  24  -2  368.26   13.60
   0  24   2  409.76   18.00
  -1 -24  -2 1014.00   35.50
  -1 -24  -2 1013.50   35.90
   1 -24   2 1024.50   25.60
   1  24   2 1068.79   36.60
  -2 -24  -2  239.58   15.90
  -2 -24  -2  243.88   17.90
  -2 -24  -2  239.28   18.20
   2  24   2  229.88   15.80
  -3 -24  -2   14.20    9.60
  -3 -24  -2    3.30    6.10
  -3 -24  -2    4.10    7.00
  -3  24  -2    6.00    2.80
   3  24   2    9.60    6.00
  -3  24  -2    4.90    3.00
  -4 -24  -2  244.18   18.10
  -4 -24  -2  267.37   22.80
  -4  24  -2  278.97   13.70
   4  24   2  280.67   18.40
  -4  24  -2  253.67   13.50
  -5 -24  -2   37.20   11.30
  -5 -24  -2   28.80   12.60
  -5  24  -2   35.00    8.10
  -5  24  -2   23.70    6.90
  -6 -24  -2   -9.30   11.80
  -6 -24  -2   19.80   12.50
  -6  24  -2   21.50    8.00
  -6  24  -2   14.20    8.80
  -7 -24  -2  103.79   21.10
  -7 -24  -2  117.79   20.90
  -7  24  -2  107.49   14.70
  -7  24  -2   94.09   16.20
  -8 -24  -2  102.19   23.00
  -8  24  -2   92.99   20.30
  -8  24  -2   93.89   16.00
  -9 -25   2  165.78   17.30
  -9 -25   2  142.19   25.30
  -9  25   2  144.19   24.50
  -9  25   2  125.79   17.20
  -9  25   2  126.99   25.80
  -8 -25   2  156.08   14.00
  -8 -25   2  119.39   21.30
  -8 -25   2  138.09   16.10
  -8  25   2  147.59   19.40
  -8  25   2  130.89   15.70
  -8  25   2   99.39   21.10
  -7 -25   2  923.01   28.80
  -7 -25   2  944.81   28.30
  -7 -25   2  995.60   47.60
  -7  25   2  916.11   49.70
  -7  25   2  977.30   35.60
  -7  25   2  938.51   38.40
  -6 -25   2  292.47   24.30
  -6  25   2  257.57   17.60
  -6  25   2  275.47   26.40
  -6  25   2  276.57   15.80
  -5 -25   2  226.88   20.00
   5 -25  -2  270.47   17.00
   5  25  -2  297.47   26.40
  -5  25   2  304.87   15.70
  -5  25   2  326.57   26.80
  -5  25   2  289.47   14.10
   4 -25  -2 1241.28   35.60
  -4 -25   2 1264.47   45.40
  -4  25   2 1324.07   33.40
   4  25  -2 1247.68   48.90
  -4  25   2 1301.47   51.69
  -3 -25   2  993.90   35.70
   3 -25  -2  925.71   25.70
  -3  25   2  933.61   24.00
  -3  25   2  912.61   41.10
   3  25  -2  978.30   37.50
  -2 -25   2  118.39   10.70
   2 -25  -2  118.89    7.40
  -2  25   2  126.69    6.70
   2  25  -2  125.09   12.10
  -2  25   2  124.09   14.60
   1 -25  -2 2036.30   49.90
   1 -25  -2 2022.50   60.69
   1  25  -2 2085.69   53.69
  -1  25   2 2080.99   63.19
   1  25  -2 2166.58   49.10
   1  25  -2 2120.09   48.70
  -1  25   2 2128.79   51.09
   0 -25   2 1293.57   33.20
   0 -25  -2 1298.37   42.50
   0 -25  -2 1286.57   37.80
   0  25   2 1345.97   44.50
   0  25  -2 1325.37   32.80
   0  25  -2 1330.17   38.40
  -1 -25  -2    5.70    5.50
  -1 -25  -2    8.20    5.80
   1 -25   2    1.20    2.20
  -1 -25  -2   10.90    6.00
   1  25   2   13.10    5.50
  -1  25  -2    2.80    4.50
  -2 -25  -2 1222.88   43.80
  -2 -25  -2 1217.68   43.80
  -2 -25  -2 1266.47   40.20
   2  25   2 1121.39   39.50
  -3 -25  -2 1413.76   51.69
  -3 -25  -2 1375.76   44.70
  -3 -25  -2 1365.86   51.49
   3  25   2 1460.25   46.20
  -3  25  -2 1416.76   32.90
  -3  25  -2 1412.76   33.10
  -4 -25  -2    6.50    8.80
  -4 -25  -2   -2.60    7.30
  -4  25  -2   12.40    4.40
   4  25   2   16.70    7.10
  -4  25  -2   11.30    4.30
  -5 -25  -2  910.21   45.70
  -5 -25  -2  931.91   38.30
  -5  25  -2  944.01   31.40
  -5  25  -2  968.30   32.30
  -6 -25  -2  813.82   44.80
  -6 -25  -2  738.63   36.90
  -6  25  -2  761.22   32.10
  -6  25  -2  735.73   30.00
  -7 -25  -2    7.00   14.00
  -7 -25  -2   -0.70   14.80
  -7  25  -2    5.80   11.50
  -7  25  -2   11.10    8.40
  -8 -25  -2  272.57   31.90
  -8  25  -2  178.58   27.60
  -8  25  -2  212.48   21.80
  -9 -26   2  102.39   23.20
  -9 -26   2   53.39   12.40
  -9 -26   2    0.40   15.20
  -9  26   2   72.89   14.30
  -9  26   2   78.19   20.80
  -8 -26   2   56.49    9.60
  -8 -26   2   20.30   14.30
  -8 -26   2   60.79   11.00
  -8  26   2   67.79   18.80
  -8  26   2   32.70   10.40
  -8  26   2   55.49   15.00
  -7 -26   2    7.30    5.30
  -7 -26   2    2.90   10.90
  -7 -26   2   -2.90    4.40
  -7  26   2    7.60   11.00
  -7  26   2    1.60    8.90
  -7  26   2    7.30    6.90
  -6 -26   2  229.28   22.10
  -6  26   2  212.98   14.00
  -6  26   2  213.88   23.30
  -6  26   2  203.48   15.90
   5 -26  -2  305.57   17.30
  -5 -26   2  329.97   23.60
  -5  26   2  320.77   15.80
  -5  26   2  308.17   14.20
  -5  26   2  325.67   26.30
   5  26  -2  348.07   28.00
   4 -26  -2    9.10    4.70
  -4 -26   2   -2.20    6.20
  -4  26   2   11.50    3.40
  -4  26   2    8.40    3.70
  -4  26   2    8.10    9.30
   4  26  -2    3.00    8.90
   3 -26  -2  129.49    7.80
  -3 -26   2  134.19   13.40
  -3  26   2  144.59   18.90
   3  26  -2  165.48   15.80
   2 -26  -2  449.86   14.60
  -2 -26   2  437.86   20.40
  -2  26   2  461.75   26.20
   2  26  -2  438.76   21.70
  -2  26   2  464.35   13.30
   1 -26  -2   42.80    5.60
   1 -26  -2   53.09    9.90
   1  26  -2   48.10    5.30
   1  26  -2   56.09    7.70
  -1  26   2   49.00   10.60
   1  26  -2   45.80    5.40
   0 -26  -2   84.59    8.70
   0 -26   2   59.69    5.80
   0 -26  -2   76.29   11.10
   0  26  -2   60.49    8.20
   0  26   2   66.69   10.80
   0  26  -2   56.29    5.30
  -1 -26  -2  334.17   19.50
  -1 -26  -2  392.66   20.90
  -1 -26  -2  402.26   20.40
   1  26   2  364.16   19.90
  -1  26  -2  385.46   19.80
  -2 -26  -2  189.78   14.90
  -2 -26  -2  209.98   17.60
  -2 -26  -2  210.98   18.00
   2  26   2  203.08   15.10
  -3 -26  -2   28.80    8.20
  -3 -26  -2   24.60    9.10
  -3 -26  -2   22.80   10.60
   3  26   2   21.00    7.50
  -4 -26  -2  188.18   20.80
  -4 -26  -2  201.88   17.00
  -4  26  -2  189.78   10.10
   4  26   2  159.08   15.60
  -4  26  -2  200.78   10.10
  -5 -26  -2  114.79   19.20
  -5 -26  -2  118.19   15.80
  -5  26  -2  139.29   11.80
  -5  26  -2  111.99   10.50
  -6 -26  -2   -4.10   12.30
  -6 -26  -2    2.20   12.60
  -6  26  -2   11.40    6.70
  -6  26  -2   -1.00    7.70
  -7 -26  -2  105.49   20.30
  -7 -26  -2   75.89   21.60
  -7  26  -2  123.19   17.00
  -7  26  -2  103.99   14.10
  -8 -26  -2   37.60   19.00
  -8  26  -2   45.00   12.90
  -9 -27   2   21.40   19.50
  -9 -27   2   19.30   10.10
  -9  27   2   48.20   12.90
  -9  27   2   52.89   22.00
  -8 -27   2  186.88   13.40
  -8 -27   2  183.28   25.70
  -8  27   2  193.18   17.60
  -8  27   2  193.78   22.20
  -8  27   2  185.18   27.40
  -7 -27   2  286.47   27.20
  -7  27   2  309.57   18.60
  -7  27   2  332.27   31.40
  -7  27   2  308.47   21.30
  -6 -27   2   82.39   16.30
  -6  27   2   61.29   16.30
  -6  27   2   71.99   10.30
  -6  27   2   55.29    8.30
  -5 -27   2   75.79   14.00
  -5  27   2   92.49   17.50
  -5  27   2   78.29    8.80
  -5  27   2   64.99    7.20
  -4 -27   2  358.26   22.60
   4 -27  -2  380.26   15.20
  -4  27   2  379.86   12.00
   4  27  -2  410.26   27.10
  -4  27   2  378.26   27.70
  -4  27   2  373.36   12.20
   3 -27  -2  380.86   12.50
  -3 -27   2  365.36   21.10
  -3  27   2  348.27   25.60
   3  27  -2  351.46   22.70
   2 -27  -2    4.50    3.00
  -2 -27   2   12.80    5.40
  -2  27   2    8.50    7.50
   2  27  -2   16.80    6.50
   1 -27  -2  503.05   17.10
   1 -27  -2  521.45   25.70
   1  27  -2  516.55   16.70
   1  27  -2  511.35   16.50
   1  27  -2  517.25   20.20
  -1  27   2  493.45   26.60
   0 -27   2  374.96   13.40
   0 -27  -2  387.86   17.50
   0 -27  -2  401.26   21.50
   0  27   2  407.56   21.90
   0  27  -2  377.86   17.90
  -1 -27  -2   72.69   10.40
  -1 -27  -2   54.29    9.70
  -1 -27  -2   61.29   10.10
   1  27   2   37.60    8.50
  -1  27  -2   65.29    9.90
  -2 -27  -2  388.96   20.90
  -2 -27  -2  395.16   23.60
  -2 -27  -2  424.96   24.20
  -2  27  -2  372.16   21.90
   2  27   2  377.86   20.80
  -3 -27  -2  379.26   21.20
  -3 -27  -2  371.16   25.00
  -3 -27  -2  362.76   26.10
   3  27   2  395.46   21.40
  -4 -27  -2    8.90    9.90
  -4 -27  -2   20.40    9.00
  -4  27  -2   16.30    3.70
  -4  27  -2   13.30    3.50
   4  27   2   13.70    7.90
  -5 -27  -2  253.37   23.80
  -5 -27  -2  237.68   21.10
  -5  27  -2  261.27   13.90
  -5  27  -2  243.38   14.20
  -6 -27  -2  247.78   23.80
  -6 -27  -2  232.58   27.20
  -6  27  -2  223.78   16.90
  -6  27  -2  232.78   16.10
  -7 -27  -2    7.60   16.00
  -7 -27  -2   37.00   17.40
  -7  27  -2    3.80   10.70
  -7  27  -2    8.90    8.50
  -8 -27  -2  102.59   25.10
  -8  27  -2  108.29   15.90
  -9 -28   2  366.56   37.60
  -9  28   2  326.67   36.30
  -9  28   2  450.85   26.80
  -8 -28   2  485.65   36.60
  -8  28   2  511.35   25.90
  -8  28   2  469.55   29.60
  -8  28   2  553.24   42.50
  -7 -28   2  -12.10   11.40
  -7  28   2  -10.80   11.00
  -7  28   2   -2.50    6.10
  -7  28   2    4.20    8.60
  -6 -28   2  572.24   33.30
  -6  28   2  557.84   21.40
  -6  28   2  549.95   37.80
  -6  28   2  565.84   23.50
  -5 -28   2 1290.07   49.60
  -5  28   2 1304.57   34.30
  -5  28   2 1237.98   54.89
  -5  28   2 1265.27   33.00
  -4 -28   2   -3.50    6.40
   4  28  -2    6.40    9.10
  -4  28   2    1.10    9.20
  -3 -28   2 1645.94   51.89
   3  28  -2 1699.33   55.09
  -3  28   2 1680.93   60.59
  -2 -28   2  399.16   19.70
   2 -28  -2  416.96   12.60
  -2  28   2  399.76   25.60
   2  28  -2  389.76   20.70
   1 -28  -2  152.98   15.20
   1 -28  -2  200.88   10.10
  -1 -28   2  187.08   14.50
  -1  28   2  175.98   16.30
   1  28  -2  198.28    9.70
   1  28  -2  215.88    9.90
   0 -28  -2  674.23   24.00
   0 -28  -2  636.94   28.70
   0 -28   2  668.63   19.00
   0  28  -2  610.44   24.10
   0  28   2  672.93   29.60
  -1 -28  -2 1925.61   56.69
  -1 -28  -2 1887.31   56.29
  -1 -28  -2 1945.81   55.69
  -1  28  -2 1983.90   56.59
   1  28   2 1948.51   57.59
  -2 -28  -2  744.33   33.40
  -2 -28  -2  781.42   31.00
  -2 -28  -2  800.22   34.00
   2  28   2  722.73   30.10
  -2  28  -2  744.73   32.30
  -3 -28  -2   97.99   13.20
  -3 -28  -2  112.99   16.00
   3  28   2  113.49   13.40
  -4 -28  -2 1199.58   49.80
  -4 -28  -2 1113.69   40.50
   4  28   2 1183.58   41.70
  -5 -28  -2  318.57   27.80
  -5 -28  -2  378.56   23.70
  -5  28  -2  315.47   14.80
  -5  28  -2  320.57   14.30
  -6 -28  -2  175.68   20.60
  -6 -28  -2  184.98   27.00
  -6  28  -2  171.18   15.00
  -6  28  -2  169.98   13.80
  -7 -28  -2  428.96   38.00
  -7 -28  -2  431.36   33.20
  -7  28  -2  448.46   26.40
  -7  28  -2  448.86   23.90
  -8 -28  -2  193.48   32.00
  -8  28  -2  173.48   28.90
  -8  28  -2  195.48   20.50
  -9 -29   2  -12.20   18.00
  -9 -29   2    1.10    9.20
  -9  29   2   -1.80   19.40
  -9  29   2    9.40   10.50
  -8 -29   2   29.30   15.50
  -8  29   2   21.80   12.60
  -8  29   2   35.10    9.80
  -8  29   2   25.10   16.90
  -7 -29   2   -8.40   10.60
  -7  29   2   10.90    8.90
  -7  29   2    2.20    6.10
  -7  29   2   -1.70   11.70
  -6 -29   2   16.10   11.30
  -6  29   2   18.70    6.90
  -6  29   2   16.50   12.40
  -6  29   2   14.20    5.60
  -5 -29   2   31.00   11.50
  -5  29   2   33.40   14.00
  -5  29   2   26.30    4.50
  -4 -29   2  453.35   25.40
  -4  29   2  391.66   28.70
  -3 -29   2    0.60    5.90
  -3  29   2    9.60    8.00
  -2 -29   2  162.88   13.10
  -2  29   2  181.08   18.10
   1 -29  -2    0.80    3.40
   1 -29  -2    2.70    3.90
  -1 -29   2    2.60    3.60
   1 -29  -2    3.60    6.70
   1  29  -2    5.00    3.30
  -1  29   2   -0.70    6.10
   1  29  -2   -0.40    3.30
   0 -29   2   89.99    6.20
   0 -29  -2   77.49    9.20
   0 -29   2   88.79    6.40
   0 -29  -2   75.09   11.60
   0  29   2   79.29   12.50
   0  29  -2   99.89   10.00
  -1 -29  -2   18.50    7.70
  -1 -29  -2   29.60    8.30
  -1 -29  -2    5.00    6.90
   1  29   2   20.70    7.00
  -1  29  -2   34.40    7.80
  -2 -29  -2   42.10   10.70
  -2 -29  -2   42.50   10.70
  -2 -29  -2   46.50    9.80
  -2  29  -2   45.80   10.20
   2  29   2   35.20    8.70
  -3 -29  -2    6.20    8.20
  -3 -29  -2   11.90    7.70
  -3  29  -2    6.30    7.50
   3  29   2    8.90    6.60
  -4 -29  -2    8.70   10.30
  -4 -29  -2   10.10    8.60
   4  29   2   23.20    8.90
  -5 -29  -2   14.90   12.30
  -5 -29  -2    4.50   10.50
  -5  29  -2   13.60    4.60
  -5  29  -2   21.60    4.70
  -6 -29  -2   44.30   15.90
  -6 -29  -2   16.80   15.30
  -6  29  -2   47.40    9.00
  -6  29  -2   31.10    7.40
  -7 -29  -2   14.40   17.00
  -7 -29  -2   -4.30   15.00
  -7  29  -2    1.60    8.30
  -7  29  -2   11.40   10.00
  -8 -29  -2    6.30   20.80
  -8  29  -2   33.60   18.20
  -8  29  -2   18.30   11.20
  -8 -30   2  240.38   29.50
  -8  30   2  272.27   18.90
  -8  30   2  297.57   35.10
  -8  30   2  230.08   22.50
  -7 -30   2    2.90   12.40
  -7  30   2   -0.50   14.70
  -7  30   2   18.70    8.90
  -7  30   2    5.50    6.50
  -6 -30   2  209.48   22.80
  -6  30   2  233.98   11.80
  -6  30   2  208.78   12.60
  -6  30   2  206.38   27.60
  -5 -30   2  543.25   31.20
  -5  30   2  580.74   36.40
  -4 -30   2  151.98   16.40
  -4  30   2  178.58   20.30
  -3 -30   2   90.49   13.10
  -3 -30   2   52.89   11.30
  -3  30   2   49.60   13.20
  -2 -30   2 1758.42   50.69
  -2  30   2 1814.02   62.19
   1 -30  -2   34.20    5.80
   1 -30  -2   29.00    9.40
  -1 -30   2   25.60    5.50
   1 -30  -2   33.20    5.00
  -1 -30   2   15.20    6.10
   1  30  -2   27.00    4.40
  -1  30   2   39.90    9.60
   1  30  -2   26.40    4.80
   0 -30  -2  508.85   25.40
   0 -30   2  529.35   15.20
   0 -30   2  507.05   15.30
   0 -30  -2  539.55   21.00
   0  30   2  474.15   25.50
   0  30  -2  500.35   21.80
  -1 -30  -2 1013.60   37.30
  -1 -30  -2 1035.20   37.60
  -1 -30  -2 1065.49   37.10
  -1  30  -2 1094.69   38.30
   1  30   2 1043.10   38.60
  -2 -30  -2  161.78   16.30
  -2 -30  -2  158.68   17.70
  -2 -30  -2  178.18   15.20
  -2  30  -2  159.98   16.20
   2  30   2  180.28   15.40
  -3 -30  -2  149.79   19.20
  -3 -30  -2  168.08   15.00
   3  30   2  151.18   14.90
  -3  30  -2  174.08   17.60
  -4 -30  -2  976.70   37.30
  -4 -30  -2  984.00   45.00
   4  30   2 1015.90   37.60
  -4  30  -2  913.11   43.80
  -5 -30  -2   65.59   16.40
  -5 -30  -2   73.09   13.60
  -5  30  -2   41.20   13.80
  -6 -30  -2   58.09   19.00
  -6 -30  -2   64.69   16.40
  -6  30  -2   56.19    8.40
  -6  30  -2   68.39    8.50
  -6  30  -2   84.49   18.90
  -7 -30  -2  334.07   31.60
  -7 -30  -2  287.17   33.20
  -7  30  -2  251.07   20.00
  -7  30  -2  305.57   33.10
  -7  30  -2  274.17   18.20
  -8 -31   2   61.69   19.30
  -8  31   2   53.89   13.80
  -8  31   2   45.60   19.20
  -8  31   2   50.89   10.00
  -7 -31   2  522.95   35.80
  -7  31   2  481.35   22.00
  -7  31   2  443.46   36.70
  -7  31   2  482.35   19.80
  -6 -31   2   18.60   11.50
  -6  31   2   28.00   16.10
  -5 -31   2  197.08   20.50
  -5  31   2  170.98   23.40
  -4 -31   2  828.32   36.40
  -4  31   2  868.71   44.60
  -3 -31   2  776.92   32.30
  -3 -31   2  782.52   34.50
  -3  31   2  795.02   39.90
  -2 -31   2  279.57   18.40
  -2 -31   2  261.17   16.10
  -2  31   2  259.57   21.70
   1 -31  -2 1693.83   41.10
  -1 -31   2 1722.23   44.70
   1 -31  -2 1743.13   43.00
  -1 -31   2 1743.23   46.40
  -1  31   2 1708.13   58.09
   1  31  -2 1660.43   41.40
   1  31  -2 1756.62   41.70
   0 -31  -2  558.44   27.30
   0 -31  -2  550.54   30.40
   0 -31  -2  539.85   21.30
   0  31   2  553.34   27.90
   0  31  -2  528.25   22.60
  -1 -31  -2    9.40    7.00
  -1 -31  -2   14.00    6.80
  -1 -31  -2   -4.50    7.10
  -1  31  -2   11.30    6.40
   1  31   2    9.50    6.70
  -2 -31  -2  619.44   27.70
  -2 -31  -2  585.84   30.10
  -2 -31  -2  645.24   30.70
   2  31   2  623.84   27.80
  -2  31  -2  595.54   29.60
  -3 -31  -2 1001.80   43.10
  -3 -31  -2 1047.50   38.10
  -3  31  -2 1074.39   44.10
   3  31   2 1038.60   38.00
  -4 -31  -2   -2.90    9.80
  -4 -31  -2   12.00    8.90
  -4  31  -2    7.50   10.10
  -5 -31  -2  217.78   26.30
  -5 -31  -2  286.47   22.50
  -5  31  -2  299.57   26.30
  -6 -31  -2  296.07   29.60
  -6 -31  -2  289.97   26.40
  -6  31  -2  282.07   13.80
  -6  31  -2  277.97   27.50
  -6  31  -2  309.87   13.70
  -7 -31  -2  -13.00   14.40
  -7 -31  -2   16.80   18.40
  -7  31  -2   19.90   15.20
  -7  31  -2   -5.10    9.10
  -7  31  -2   12.80    7.90
  -8 -32   2    2.10   16.00
  -8  32   2   14.50   10.70
  -8  32   2   -1.80   18.20
  -8  32   2   -0.20    8.00
  -7 -32   2   18.70   13.90
  -7  32   2    2.70    5.60
  -7  32   2   13.10   15.30
  -7  32   2   -6.10    6.60
  -6 -32   2   -4.80   10.50
  -6  32   2   -8.70   13.30
  -5 -32   2   36.60   12.30
  -5  32   2   29.40   13.00
  -4 -32   2    3.70    7.80
  -4  32   2   13.10   11.70
  -3 -32   2   35.70    9.20
  -3 -32   2   39.00   11.40
  -3  32   2   37.00   13.20
  -2 -32   2  516.15   24.90
  -2 -32   2  529.05   22.80
  -2  32   2  486.15   30.00
  -1 -32   2   95.99    8.80
   1 -32  -2   94.29    7.90
  -1 -32   2  106.79   10.40
   1 -32  -2   96.39    7.20
  -1  32   2  100.89   15.40
   1  32  -2   90.69    7.30
   1  32  -2   94.89    7.40
   0 -32  -2   36.40   10.00
   0 -32  -2   49.60    7.90
   0 -32  -2   40.00    7.40
   0  32  -2   55.79    8.90
   0  32   2   38.50    9.80
  -1 -32  -2    4.40    6.30
  -1 -32  -2   10.10    7.80
  -1 -32  -2   -7.10    6.70
  -1  32  -2    1.30    6.20
   1  32   2   -1.20    6.20
  -2 -32  -2   14.60    8.70
  -2 -32  -2   21.60   11.80
  -2 -32  -2   16.40    8.70
  -2  32  -2   33.10    9.40
   2  32   2   22.60    8.20
  -3 -32  -2   -3.60    8.40
  -3 -32  -2   11.20    8.60
  -3  32  -2   16.40    9.90
   3  32   2   12.10    7.40
  -4 -32  -2  -15.20    8.60
  -4 -32  -2   -8.70   10.40
  -4  32  -2   10.20   10.90
  -5 -32  -2   13.10   11.70
  -5 -32  -2   14.10   13.00
  -5  32  -2    7.80   12.50
  -6 -32  -2   20.70   16.00
  -6 -32  -2   -2.80   13.50
  -6  32  -2   15.00   13.30
  -7 -32  -2   -4.00   18.50
  -7  32  -2    9.80    7.20
  -7  32  -2    0.70    8.00
  -7  32  -2   -4.20   14.40
  -8 -33   2  141.59   25.20
  -8  33   2  162.88   29.80
  -8  33   2  195.68   14.20
  -8  33   2  172.98   16.40
  -7 -33   2  362.76   31.30
  -7  33   2  292.07   34.00
  -6 -33   2  130.79   20.30
  -6  33   2  129.69   22.20
  -5 -33   2  153.28   19.70
  -5  33   2  171.38   24.80
  -4 -33   2 1086.09   42.90
  -4  33   2 1045.10   50.69
  -3 -33   2  446.46   23.90
  -3 -33   2  438.06   30.80
  -3  33   2  434.46   30.80
  -2 -33   2  273.17   16.30
  -2 -33   2  265.87   18.50
  -2  33   2  250.27   23.50
   1 -33  -2 1160.28   29.10
  -1 -33   2 1165.28   32.80
   1 -33  -2 1167.88   30.00
  -1 -33   2 1158.78   34.60
   1  33  -2 1202.48   30.60
  -1  33   2 1199.38   47.00
   1  33  -2 1157.58   30.20
   0 -33  -2  910.91   31.80
   0 -33  -2 1029.30   38.90
   0 -33  -2 1076.29   31.80
   0  33  -2  998.90   34.30
   0  33   2 1070.29   40.50
  -1 -33  -2    8.50    8.30
  -1 -33  -2    9.30    6.60
  -1 -33  -2   -6.00    7.20
   1  33   2    5.80    7.00
  -1  33  -2    4.20    6.90
  -2 -33  -2  738.73   33.60
  -2 -33  -2  793.12   31.60
   2  33   2  669.13   30.20
  -2  33  -2  736.83   34.30
  -3 -33  -2  577.74   28.00
  -3 -33  -2  674.63   34.50
   3  33   2  610.34   27.90
  -3  33  -2  633.44   34.00
  -4 -33  -2   48.00   11.70
  -4 -33  -2   35.60   13.30
  -4  33  -2   34.50   13.40
  -5 -33  -2  216.98   25.90
  -5 -33  -2  226.28   21.20
  -5  33  -2  232.48   26.00
  -6 -33  -2  262.67   30.60
  -6 -33  -2  277.47   25.80
  -6  33  -2  256.27   30.20
  -7 -33  -2   12.80   17.90
  -7  33  -2    1.80   15.30
  -7  33  -2   -2.40    6.20
  -7  33  -2   -5.10    5.60
  -8 -34   2   73.29   20.40
  -8  34   2   81.89    8.20
  -8  34   2   96.09   24.10
  -7 -34   2   13.90   14.90
  -7  34   2   -9.00   14.20
  -6 -34   2  247.08   25.60
  -6  34   2  292.87   30.10
  -5 -34   2  255.47   23.50
  -5  34   2  309.37   30.20
  -4 -34   2   11.90    9.50
  -4  34   2   23.20   13.60
  -3 -34   2  294.77   19.80
  -3  34   2  309.97   26.90
  -2 -34   2  656.93   28.90
  -2  34   2  715.13   37.20
  -1 -34   2   46.30    6.50
   1 -34  -2   44.90    5.00
  -1 -34   2   34.30    7.00
   1 -34  -2   32.50    4.40
   1  34  -2   38.80    5.50
  -1  34   2   52.49   12.20
   1  34  -2   41.40    5.20
   0 -34  -2  648.74   31.10
   0 -34  -2  682.83   23.80
   0 -34  -2  696.13   25.00
   0  34  -2  556.54   24.80
   0  34   2  689.73   32.00
   0  34  -2  631.94   26.20
  -1 -34  -2  620.04   27.40
  -1 -34  -2  682.03   28.70
  -1 -34  -2  604.84   29.20
  -1  34  -2  649.04   29.60
   1  34   2  661.33   30.20
  -2 -34  -2  105.69   14.90
  -2 -34  -2  134.19   14.80
   2  34   2  111.49   14.50
  -2  34  -2  135.79   17.50
  -3 -34  -2  158.78   20.30
  -3 -34  -2  133.19   15.70
   3  34   2  148.29   15.80
  -3  34  -2  141.99   19.10
  -4 -34  -2  385.26   24.20
  -4 -34  -2  381.46   29.10
  -4  34  -2  449.36   31.00
  -5 -34  -2   97.59   19.50
  -5 -34  -2   66.39   15.10
  -5  34  -2   99.39   20.20
  -6 -34  -2   70.79   16.90
  -6 -34  -2   52.69   19.80
  -6  34  -2   52.39   16.90
  -7 -34  -2  181.18   30.60
  -7  34  -2  177.68   28.80
  -7 -35   2   48.30   18.00
  -7  35   2   59.99   19.10
  -6 -35   2   38.20   14.50
  -6  35   2   25.80   17.30
  -5 -35   2   11.20   11.80
  -5  35   2   31.00   14.40
  -4 -35   2   91.29   15.30
  -4  35   2   78.49   19.10
  -3 -35   2   -7.60    6.80
  -3  35   2   -2.60   11.00
  -2 -35   2   12.80    9.00
  -2  35   2   -2.50    9.40
  -1 -35   2    6.60    4.50
  -1 -35   2    5.10    5.80
  -1  35   2    4.20    8.40
   1  35  -2    2.00    3.90
   1  35  -2    9.20    3.80
   0 -35  -2   27.80    6.80
   0 -35  -2   45.20    7.60
   0  35  -2   51.49    9.20
   0  35  -2   24.80    7.50
   0  35   2   47.90   11.10
  -1 -35  -2    1.60    9.00
  -1 -35  -2   -5.50    6.40
  -1 -35  -2    8.40    8.50
   1  35   2  -19.70    7.00
  -1  35  -2    8.50    7.50
  -2 -35  -2  111.59   14.90
  -2 -35  -2  105.89   14.30
   2  35   2   95.19   13.50
  -2  35  -2   58.99   13.20
  -3 -35  -2   82.69   15.40
  -3 -35  -2   55.79   11.90
   3  35   2   64.09   11.60
  -3  35  -2   73.09   14.90
  -4 -35  -2    2.00   12.10
  -4 -35  -2  -17.60    9.50
  -4  35  -2   -3.10   11.30
  -5 -35  -2    5.60   11.20
  -5 -35  -2   22.60   14.30
  -5  35  -2  -10.20   12.30
  -6 -35  -2   17.10   15.40
  -6 -35  -2   68.09   20.80
  -6  35  -2   52.79   19.40
  -7 -36   2   36.00   17.80
  -7  36   2  -29.90   18.40
  -6 -36   2  497.85   34.10
  -6  36   2  476.35   40.00
  -5 -36   2  615.34   35.00
  -5  36   2  604.94   42.20
  -4 -36   2   -8.00    8.90
  -4  36   2   -7.80   11.50
  -3 -36   2  555.44   27.40
  -3  36   2  618.24   37.30
  -2 -36   2  871.71   33.10
  -2  36   2  839.22   41.70
  -1 -36   2   71.39    8.00
  -1 -36   2   92.39    9.90
   1  36  -2   77.49    6.80
   1  36  -2   75.59    6.30
  -1  36   2   98.69   15.50
   0 -36  -2  718.43   24.80
   0 -36  -2  673.33   23.70
   0  36   2  678.23   33.00
   0  36  -2  691.53   27.20
   0  36  -2  710.43   27.60
  -1 -36  -2  766.82   38.40
  -1 -36  -2  783.62   31.30
  -1 -36  -2  746.93   33.40
   1  36   2  782.52   34.10
  -1  36  -2  839.92   34.60
  -2 -36  -2   61.39   12.80
  -2 -36  -2   65.29   12.40
  -2  36  -2   47.70   12.30
   2  36   2   67.59   12.20
  -3 -36  -2  111.39   17.30
  -3 -36  -2  128.99   15.10
  -3  36  -2   94.49   17.20
   3  36   2  103.09   13.60
  -4 -36  -2  502.25   26.30
  -4 -36  -2  498.85   32.80
  -4  36  -2  422.86   31.90
  -5 -36  -2  195.88   26.90
  -5 -36  -2  218.78   22.60
  -5  36  -2  259.77   28.70
  -6 -36  -2   70.49   20.90
  -6  36  -2   39.80   19.40
  -7 -37   2  127.79   24.10
  -7  37   2  131.69   27.10
  -6 -37   2   28.60   15.40
  -6  37   2    4.30   16.70
  -5 -37   2   86.39   16.60
  -5  37   2   71.49   20.80
  -4 -37   2  249.08   21.80
  -4  37   2  300.87   29.40
  -3 -37   2   79.69   12.70
  -3  37   2   49.50   15.80
  -2 -37   2   47.80    9.20
  -2 -37   2   61.59   11.60
  -2  37   2   67.59   15.80
  -1 -37   2  370.36   14.40
  -1 -37   2  364.56   16.00
  -1  37   2  411.06   27.60
   0 -37  -2  317.47   15.80
   0 -37  -2  322.37   15.70
   0  37  -2  322.17   18.80
   0  37  -2  355.16   19.30
   0  37   2  313.37   23.10
  -1 -37  -2   13.50    9.20
  -1 -37  -2   14.60   10.80
  -1  37  -2   -0.90    8.30
   1  37   2   23.60   10.00
  -2 -37  -2  337.37   21.80
  -2 -37  -2  324.67   22.60
   2  37   2  288.57   20.90
  -2  37  -2  340.97   24.50
  -3 -37  -2  168.08   18.40
  -3 -37  -2  212.68   21.60
  -3  37  -2  249.78   23.90
   3  37   2  162.58   16.80
  -4 -37  -2    7.40   11.20
  -4 -37  -2   -7.00   12.10
  -4  37  -2   10.00   12.30
  -5 -37  -2   44.00   14.50
  -5 -37  -2  100.79   21.20
  -5  37  -2   98.09   20.60
  -6 -37  -2   -5.00   18.60
  -6  37  -2   40.70   18.70
  -7 -38   2    0.90   17.40
  -7  38   2   -7.30   19.00
  -6 -38   2  201.78   26.50
  -6  38   2  162.48   28.40
  -5 -38   2  240.08   25.00
  -5  38   2  186.78   28.20
  -4 -38   2    0.50    9.60
  -4  38   2    3.30   13.80
  -3 -38   2  111.19   14.30
  -3  38   2   83.69   18.90
  -2 -38   2  189.38   14.20
  -2 -38   2  175.18   17.90
  -2  38   2  289.37   25.00
  -1 -38   2   16.70    4.90
  -1 -38   2   20.30    5.70
  -1  38   2   -7.50   10.60
   0 -38  -2  163.68   11.30
   0 -38  -2  162.68   11.60
   0  38   2  158.98   19.40
   0  38  -2  147.29   14.80
   0  38  -2  146.09   14.30
  -1 -38  -2  160.98   17.60
   1  38   2  160.58   17.60
  -1  38  -2  145.49   16.90
  -2 -38  -2   11.30   10.30
  -2 -38  -2   18.90   10.00
   2  38   2    6.70    9.60
  -2  38  -2   21.20   11.30
  -3 -38  -2   47.80   12.60
  -3 -38  -2   49.50   14.00
   3  38   2   52.59   11.40
  -3  38  -2   72.69   16.10
  -4 -38  -2  208.38   25.30
  -4 -38  -2  232.28   19.40
  -4  38  -2  162.78   24.10
  -5 -38  -2   47.30   19.00
  -5  38  -2   55.89   18.90
  -6 -39   2   49.60   18.00
  -6  39   2   23.30   19.20
  -5 -39   2  159.28   22.40
  -5  39   2  160.48   26.30
  -4 -39   2  702.33   35.40
  -4  39   2  727.33   44.00
  -3 -39   2  238.68   19.20
  -3  39   2  296.57   28.50
  -2 -39   2  109.49   14.30
  -2 -39   2  107.59   12.00
  -2  39   2   98.09   18.50
  -1  39   2  901.21   42.40
   0 -39  -2  715.63   23.40
   0 -39  -2  686.43   22.40
   0  39  -2  722.83   28.40
   0  39  -2  722.03   28.10
   0  39   2  675.13   34.70
  -1 -39  -2   18.70    8.70
   1  39   2   21.60   10.30
  -1  39  -2   30.70   10.60
  -2 -39  -2  717.43   33.70
  -2 -39  -2  673.63   30.80
  -2  39  -2  729.43   36.30
   2  39   2  677.23   31.30
  -3 -39  -2  556.94   33.30
  -3 -39  -2  569.94   28.30
   3  39   2  525.45   26.90
  -3  39  -2  612.24   35.80
  -4 -39  -2    0.80   11.70
  -4 -39  -2   -2.40   13.30
  -4  39  -2    2.70   13.40
  -5 -39  -2  229.68   28.50
  -5  39  -2  223.48   28.90
  -6 -40   2   85.79   20.10
  -6  40   2   40.60   21.80
  -5 -40   2   42.20   16.20
  -5  40   2    6.50   16.40
  -4 -40   2   -2.40   10.40
  -4  40   2   -6.10   14.40
  -3 -40   2   72.89   12.70
  -3  40   2  112.59   21.80
  -2 -40   2   72.69   10.10
  -2 -40   2   98.39   13.80
  -2  40   2   86.79   17.70
  -1  40   2   10.10   12.10
   0 -40  -2   13.70    5.70
   0 -40  -2   16.00    5.70
   0  40  -2   -0.40    8.40
   0  40  -2    7.50    7.70
   0  40   2   12.60   10.90
  -1 -40  -2   93.79   12.00
  -1  40  -2  135.09   18.00
  -1  40  -2  113.09   16.00
   1  40   2   93.59   15.30
  -2 -40  -2  106.19   15.30
  -2 -40  -2  137.19   16.60
  -2  40  -2  140.49   19.00
   2  40   2  111.29   15.50
  -3 -40  -2   43.70   12.50
  -3 -40  -2   36.40   13.40
   3  40   2   11.80    9.80
  -3  40  -2   33.50   14.90
  -4 -40  -2    9.10   12.00
  -4 -40  -2   47.70   15.90
  -4  40  -2   23.10   15.80
  -5 -40  -2   -2.40   17.00
  -5  40  -2   11.20   16.40
  -6 -41   2   32.50   18.30
  -6  41   2    1.90   19.70
  -5 -41   2   -1.00   14.00
  -5  41   2  104.89   23.80
  -4  41   2  301.37   31.80
  -3 -41   2    0.90   10.20
  -3  41   2   83.09   19.80
  -2 -41   2  103.29   13.90
  -2 -41   2   74.29   10.20
  -2  41   2  109.29   20.90
  -1  41   2  299.87   26.10
   0 -41  -2  199.68    9.90
   0 -41  -2  170.58    9.60
   0  41   2  186.88   21.30
   0  41  -2  155.28   15.80
   0  41  -2  155.88   14.60
  -1 -41  -2   19.30    8.80
   1  41   2   -2.20   11.00
  -1  41  -2   17.40   13.50
  -1  41  -2   35.50   11.90
  -2 -41  -2  214.98   21.00
   2  41   2  335.57   22.70
  -2  41  -2  324.37   25.80
  -3 -41  -2   62.19   15.90
  -3 -41  -2  106.99   15.30
   3  41   2  142.29   16.70
  -3  41  -2  129.49   20.70
  -4 -41  -2  -13.10   14.60
  -4  41  -2   13.00   14.90
  -4 -42   2  -14.00   11.60
  -4  42   2  -19.30   15.50
  -3  42   2  406.16   35.30
  -2 -42   2  521.55   27.20
  -2  42   2  499.85   35.50
  -1  42   2   45.10   14.70
   0  42  -2  158.88   14.50
   0  42   2  164.98   20.70
   0  42  -2  142.49   16.10
   1  42   2  808.72   37.20
  -1  42  -2  810.62   35.70
  -1  42  -2  818.42   36.90
  -2  42  -2  185.98   22.80
   2  42   2  182.18   19.00
  -3  42  -2  157.38   23.80
   3  42   2  148.49   16.20
  -5 -43   2  -20.80   15.00
  -5  43   2   16.70   19.50
  -4 -43   2   -5.40   12.20
  -4  43   2   -0.50   16.00
  -3  43   2   12.80   16.10
  -2 -43   2    3.30   12.20
  -2 -43   2   -6.10    7.20
  -2  43   2    7.00   13.80
  -1  43   2   15.80   13.50
   0  43  -2   -2.80    9.60
   0  43  -2   -2.20    8.10
   0  43   2   -0.20   12.30
  -1 -43  -2   -1.10    8.60
  -1  43  -2   -4.80   14.60
  -1  43  -2   31.70   12.00
   1  43   2    3.20   12.20
  -2  43  -2   -3.20   13.30
   2  43   2   17.80   11.30
  -3 -43  -2   -7.90   13.30
  -3  43  -2    1.90   15.30
   3  43   2   11.90   10.80
  -4 -43  -2  -43.00   15.50
  -4  43  -2   11.00   17.40
  -4 -44   2  -22.00   13.50
  -4  44   2   -0.50   17.90
  -2 -44   2  333.77   20.00
  -2  44   2  400.66   34.00
  -1  44   2   21.70   14.90
   0  44   2  178.18   21.60
   0  44  -2  231.08   18.00
   0  44  -2  213.48   16.30
  -1  44  -2  376.76   29.00
  -1  44  -2  466.25   27.40
   1  44   2  414.76   27.40
   2  44   2   99.49   15.40
  -2  44  -2   49.60   15.70
  -2  44  -2   45.90   30.40
  -3 -44  -2    7.60   14.00
  -3  44  -2   75.89   18.80
  -3  45   2   94.89   24.20
  -2 -45   2   12.40    9.20
  -2  45   2   13.20   16.60
  -1  45   2  287.07   27.60
   0  45   2  230.88   24.60
   0  45  -2  210.28   15.60
   1  45   2   24.00   13.30
  -1  45  -2   20.30   12.70
   2  45   2  245.68   21.90
  -2  45  -2  255.77   25.90
  -3  46   2   31.50   19.80
  -2  46   2   -8.50   16.00
  -1  46   2    0.00   15.10
   0  46   2   10.50   14.50
   0  46  -2    7.70    8.20
  -1  46  -2    9.80   12.90
   1  46   2   -2.30   13.10
  -2  46  -2   -6.60   14.80
   2  46   2   16.80   12.60
  -1  47   2  293.47   30.80
   0  47   2  222.68   25.10
 -11   0   3    3.50   17.80
 -11   0   3    7.10   14.90
 -10   0   3   27.70   13.90
 -10   0   3   15.90   11.90
  -9   0   3   -0.30   10.30
  -9   0   3    0.30    9.30
  -8   0   3   21.70   10.10
  -8   0   3    8.50    8.20
   7   0  -3   -0.10    9.60
  -7   0   3    7.70    7.20
  -7   0   3   11.30    7.10
   6   0  -3    1.90    8.30
  -6   0   3   13.20    6.10
  -6   0   3   15.30    6.60
  -5   0   3    8.90    4.60
  -5   0   3    3.50    4.40
   5   0  -3    2.50    6.50
  -4   0   3   18.20    5.20
  -4   0   3   58.69    8.80
   4   0  -3   25.30    6.40
   4   0  -3   26.10    6.90
   3   0  -3    4.70    3.70
  -3   0   3    9.50    4.00
   3   0  -3    6.70    3.60
  -3   0   3    2.80    2.90
  -2   0   3    3.70    2.70
  -2   0   3    8.00    3.20
   2   0  -3    4.90    2.80
   2   0  -3    7.70    3.30
  -1   0   3    2.20    2.20
  -1   0   3    3.70    2.80
   1   0  -3    2.90    2.40
   1   0  -3    2.60    2.50
   0   0   3    7.00    3.40
   0   0   3   15.80    4.00
   0   0  -3    5.30    3.10
   1   0   3    5.30    3.30
  -1   0  -3    1.30    2.90
   1   0   3    7.50    3.60
  -1   0  -3    2.80    2.90
  -2   0  -3   -1.60    3.90
   2   0   3   -1.30    3.30
  -2   0  -3    2.40    4.10
   2   0   3    4.70    4.10
  -3   0  -3    0.90    4.90
   3   0   3    8.50    5.50
  -3   0  -3   -3.40    4.80
  -4   0  -3  -10.00    6.40
   4   0   3    6.80    5.40
  -4   0  -3    2.30    6.20
   5   0   3   -4.90    5.80
  -5   0  -3   12.20    8.20
  -5   0  -3   16.40   10.50
  -5   0  -3   -0.40    8.70
  -6   0  -3   -6.60   12.40
  -6   0  -3    3.50    7.90
  -7   0  -3   -3.30   15.60
  -7   0  -3   -4.20    9.90
  -8   0  -3  -14.00   11.30
  -9   0  -3   -0.70   16.40
 -11  -1   3   94.89   20.70
 -11  -1   3   90.39   23.60
 -11   1   3   85.89   21.00
 -11   1   3   88.19   23.50
 -10  -1   3  570.24   39.40
 -10  -1   3  586.54   37.70
 -10   1   3  638.74   39.70
 -10   1   3  547.65   37.40
  -9  -1   3  464.75   32.20
  -9  -1   3  394.66   29.80
  -9   1   3  421.26   31.20
  -9   1   3  398.76   29.90
  -8  -1   3  103.49   17.10
  -8  -1   3   89.99   16.20
  -8   1   3   95.59   16.80
  -8   1   3   93.79   16.80
  -7  -1   3 1362.46   49.50
   7  -1  -3 1284.37   54.69
  -7  -1   3 1262.77   49.70
   7   1  -3 1313.47   56.09
  -7   1   3 1323.67   50.09
  -7   1   3 1255.67   49.00
  -6  -1   3 1076.09   40.90
  -6  -1   3 1160.58   43.50
   6  -1  -3 1140.99   46.20
   6   1  -3 1121.89   46.50
  -6   1   3 1022.10   41.40
  -6   1   3 1092.69   42.00
  -5  -1   3  113.49   11.50
   5  -1  -3   85.39   13.40
  -5  -1   3   98.79   11.10
  -5   1   3   75.89   10.80
  -5   1   3  101.29   11.60
   5   1  -3   90.19   13.30
   4  -1  -3 2591.94   71.49
  -4  -1   3 2660.23   69.39
  -4  -1   3 2675.23   71.29
   4  -1  -3 2614.34   70.29
   4   1  -3 2640.34   72.19
  -4   1   3 2686.83   71.19
  -4   1   3 2611.74   70.29
   3  -1  -3 2054.59   55.89
  -3  -1   3 1967.70   55.79
  -3  -1   3 2074.69   54.69
   3  -1  -3 2041.10   55.19
   3   1  -3 2047.80   56.19
  -3   1   3 2070.89   55.99
  -3   1   3 1980.50   55.19
   3   1  -3 1998.00   54.09
  -2  -1   3  296.27   14.80
   2  -1  -3  285.47   14.40
   2  -1  -3  273.47   14.20
  -2  -1   3  250.87   13.20
   2   1  -3  282.07   13.60
   2   1  -3  297.77   14.80
  -2   1   3  274.17   14.30
  -2   1   3  268.07   14.10
   1  -1  -3 3680.63   84.09
  -1  -1   3 3662.13   85.19
  -1  -1   3 3641.34   84.59
   1  -1  -3 3649.03   84.59
   1   1  -3 3663.43   83.99
  -1   1   3 3570.04   85.19
   1   1  -3 3607.64   83.89
  -1   1   3 3555.84   84.89
   0  -1  -3 5718.43  123.39
   0  -1  -3 5477.15  122.09
   0  -1   3 5420.96  122.99
   0  -1   3 5396.76  122.89
   0   1  -3 5461.75  121.69
   0   1   3 5413.26  123.49
   0   1   3 5332.77  122.99
   0   1  -3 5551.74  122.69
   1  -1   3   46.40    7.30
   1  -1   3   35.00    6.50
  -1  -1  -3   48.00    7.60
  -1  -1  -3   47.30    7.60
   1   1   3   46.30    7.40
   1   1   3   48.70    7.40
  -1   1  -3   45.00    7.20
  -1   1  -3   38.50    6.60
   2  -1   3 1394.06   45.10
   2  -1   3 1441.76   45.50
  -2  -1  -3 1278.57   43.50
  -2  -1  -3 1467.95   45.30
  -2   1  -3 1425.76   45.10
  -2   1  -3 1387.06   44.20
   2   1   3 1372.56   44.70
   2   1   3 1504.15   46.50
  -3  -1  -3 3053.49   83.49
   3  -1   3 3113.09   83.89
  -3  -1  -3 3073.49   83.59
   3   1   3 2983.60   83.69
  -3   1  -3 3156.98   84.39
  -3   1  -3 3084.19   83.29
  -4  -1  -3  496.45   27.80
   4  -1   3  526.15   27.80
  -4  -1  -3  539.95   28.80
   4   1   3  465.55   26.70
  -4   1  -3  446.36   26.60
  -4   1  -3  507.25   27.80
  -5  -1  -3  815.82   39.30
   5  -1   3  779.82   37.70
  -5  -1  -3  838.12   41.00
  -5  -1  -3  809.92   39.70
   5   1   3  778.62   38.00
  -5   1  -3  857.91   40.70
  -5   1  -3  786.82   38.90
  -5   1  -3  843.62   40.70
  -6  -1  -3 1509.15   60.49
  -6  -1  -3 1466.75   60.09
  -6   1  -3 1371.86   57.79
  -6   1  -3 1377.16   58.89
  -7  -1  -3  148.49   22.60
  -7  -1  -3  215.58   33.10
  -7   1  -3  165.28   24.80
  -7   1  -3  188.88   26.10
  -8  -1  -3   48.00   18.50
  -8   1  -3   87.99   18.70
  -9  -1  -3  373.46   38.40
  -9   1  -3  410.06   37.00
 -11  -2   3  263.07   32.80
 -11  -2   3  208.58   29.60
 -11   2   3  234.88   32.40
 -11   2   3  188.28   27.20
 -10  -2   3    0.40   11.50
 -10  -2   3   15.00   12.20
 -10   2   3    0.10   10.30
 -10   2   3   36.20   15.00
  -9  -2   3  247.08   24.30
  -9  -2   3  276.57   26.70
  -9   2   3  281.87   25.90
  -9   2   3  266.17   24.60
  -8  -2   3  951.00   44.20
  -8  -2   3  949.21   42.80
  -8   2   3  962.90   44.00
  -8   2   3  913.41   43.10
   7  -2  -3   12.10   11.20
  -7  -2   3   19.60    8.20
  -7  -2   3   16.60    7.30
  -7   2   3   19.30    8.10
   7   2  -3    9.20   11.20
  -7   2   3   10.40    8.10
   6  -2  -3  327.47   24.60
  -6  -2   3  372.76   22.80
  -6  -2   3  334.47   20.60
  -6   2   3  355.16   22.10
  -6   2   3  362.56   22.60
   6   2  -3  370.16   25.50
   5  -2  -3 2144.09   65.89
  -5  -2   3 2208.78   62.19
  -5  -2   3 2239.38   65.09
  -5   2   3 2219.38   64.39
   5   2  -3 2228.08   67.39
  -5   2   3 2145.79   63.59
   4  -2  -3 1525.05   47.40
  -4  -2   3 1525.45   47.80
   4  -2  -3 1578.24   48.30
  -4  -2   3 1530.25   45.60
   4   2  -3 1504.45   48.60
  -4   2   3 1521.25   47.30
  -4   2   3 1509.25   47.20
   3  -2  -3   73.69    8.60
  -3  -2   3   51.59    7.80
   3  -2  -3   87.49    8.80
  -3  -2   3   68.59    7.60
   3   2  -3   78.89    7.80
  -3   2   3   81.79    8.50
   3   2  -3   65.39    7.80
  -3   2   3   82.69    8.40
   2  -2  -3 1525.85   42.30
   2  -2  -3 1622.14   43.70
  -2  -2   3 1513.75   43.40
  -2  -2   3 1502.75   41.40
   2   2  -3 1540.85   41.30
  -2   2   3 1471.95   42.60
  -2   2   3 1491.35   43.20
   2   2  -3 1499.65   42.80
  -1  -2   3  367.36   16.00
  -1  -2   3  389.66   16.80
   1  -2  -3  399.06   16.30
   1  -2  -3  393.86   16.90
  -1   2   3  374.76   16.80
   1   2  -3  373.16   16.00
  -1   2   3  389.66   16.80
   1   2  -3  354.86   15.40
   0  -2  -3   53.59    6.30
   0  -2   3   55.39    6.30
   0  -2   3   43.10    6.50
   0  -2  -3   67.99    6.70
   0   2  -3   43.30    6.70
   0   2   3   54.99    7.50
   0   2   3   68.09    7.00
   0   2  -3   42.60    6.10
  -1  -2  -3 2670.53   67.09
  -1  -2  -3 2550.04   66.29
   1  -2   3 2593.44   66.79
   1  -2   3 2502.05   66.49
   1   2   3 2481.45   66.89
  -1   2  -3 2561.94   65.49
  -1   2  -3 2624.74   66.69
   1   2   3 2517.35   66.79
  -2  -2  -3 2580.44   69.89
   2  -2   3 2569.14   69.89
  -2  -2  -3 2551.24   69.39
   2  -2   3 2632.74   70.19
   2   2   3 2587.64   70.79
  -2   2  -3 2574.04   69.69
   2   2   3 2579.74   70.09
  -2   2  -3 2492.85   68.19
   3  -2   3   13.40    5.60
  -3  -2  -3    9.20    5.40
  -3  -2  -3   16.20    6.70
  -3   2  -3    6.10    5.10
  -3   2  -3   12.70    6.40
   3   2   3    8.30    5.50
   4  -2   3 1370.26   49.70
  -4  -2  -3 1398.76   50.49
  -4  -2  -3 1377.96   50.89
  -4   2  -3 1379.56   50.69
   4   2   3 1304.27   49.50
  -4   2  -3 1427.96   50.49
  -5  -2  -3  611.04   34.60
  -5  -2  -3  634.54   35.20
  -5  -2  -3  670.33   35.20
   5  -2   3  652.33   33.50
  -5   2  -3  618.74   34.70
   5   2   3  657.33   34.90
  -5   2  -3  629.74   34.80
  -5   2  -3  638.24   34.60
  -6  -2  -3    0.50   11.80
  -6  -2  -3    4.30    7.90
  -6   2  -3  -14.30    8.20
  -6   2  -3   -3.00   11.30
  -7  -2  -3  501.35   35.20
  -7   2  -3  456.05   33.40
  -7   2  -3  476.45   36.10
  -8  -2  -3  487.65   39.10
  -8   2  -3  487.45   37.80
  -9  -2  -3   12.80   15.10
  -9   2  -3   29.60   17.70
 -11  -3   3   10.20   15.30
 -11  -3   3   21.30   17.10
 -11   3   3   17.00   18.20
 -11   3   3   19.10   15.20
 -10  -3   3    6.00   12.90
 -10  -3   3   23.30   14.50
 -10   3   3   12.70   11.50
 -10   3   3  -19.60   13.80
  -9  -3   3    1.20    9.20
  -9  -3   3   26.30   11.80
  -9   3   3   10.60   10.60
  -9   3   3   21.60   10.80
  -8  -3   3    2.60    9.00
  -8  -3   3   15.40    9.90
  -8   3   3   15.50    9.00
  -8   3   3   26.90    9.90
   7  -3  -3  158.58   21.90
  -7  -3   3  137.29   16.60
  -7  -3   3  168.98   16.00
   7   3  -3  179.28   23.70
  -7   3   3  121.19   14.60
  -7   3   3  140.69   18.70
  -6  -3   3   62.89   11.20
   6  -3  -3   73.99   13.70
  -6  -3   3   88.09   12.30
  -6   3   3   70.09   12.00
  -6   3   3   58.19   10.40
   6   3  -3   83.99   15.30
  -5  -3   3   42.00    8.20
   5  -3  -3   35.80    9.40
  -5  -3   3   50.69    9.10
  -5   3   3   35.20    7.80
   5   3  -3   19.70    7.60
  -5   3   3   46.90    8.80
   4  -3  -3  114.59   11.90
  -4  -3   3  139.39   12.10
  -4  -3   3  143.09   11.20
   4  -3  -3  148.39   12.50
  -4   3   3  143.29   12.10
  -4   3   3  142.59   11.90
   4   3  -3  160.88   13.50
   3  -3  -3  197.58   13.70
   3  -3  -3  199.18   13.00
  -3  -3   3  233.28   14.40
  -3  -3   3  208.78   12.10
   3   3  -3  229.78   12.80
   3   3  -3  245.88   14.70
  -3   3   3  206.98   13.40
  -3   3   3  208.38   13.60
  -2  -3   3  778.12   25.20
  -2  -3   3  774.92   27.40
   2  -3  -3  795.32   27.50
   2  -3  -3  769.22   26.00
  -2   3   3  789.02   27.80
   2   3  -3  787.72   27.10
   2   3  -3  764.82   24.90
   1  -3  -3  114.99    8.70
   1  -3  -3  117.59    8.30
  -1  -3   3  129.29    9.20
  -1  -3   3  112.29    8.30
   1   3  -3  124.49    8.60
  -1   3   3  118.99    9.20
   1   3  -3  132.19    8.70
  -1   3   3  106.99    8.50
   0  -3   3  488.45   19.60
   0  -3  -3  479.45   19.60
   0  -3   3  465.05   19.30
   0  -3  -3  489.15   20.00
   0   3  -3  463.45   18.50
   0   3  -3  492.45   19.40
   0   3   3  528.85   21.20
   0   3   3  479.55   20.20
   1  -3   3   -0.40    2.90
  -1  -3  -3    2.50    3.10
  -1  -3  -3    0.00    3.00
   1  -3   3    5.90    3.40
   1   3   3    3.10    3.30
  -1   3  -3    1.70    3.00
   1   3   3   -1.60    2.30
  -1   3  -3   -1.00    2.90
   2  -3   3  236.08   15.60
   2  -3   3  226.78   15.00
  -2  -3  -3  201.38   14.60
  -2  -3  -3  190.78   14.10
   2   3   3  198.48   14.40
  -2   3  -3  223.98   15.30
   2   3   3  203.68   14.80
  -2   3  -3  230.18   14.90
   3  -3   3  116.59   12.10
  -3  -3  -3  116.79   12.30
  -3  -3  -3  106.69   14.00
   3   3   3  110.49   11.80
   3   3   3  132.39   13.00
  -3   3  -3  102.49   13.80
  -3   3  -3  104.59   13.60
  -4  -3  -3  257.27   20.00
   4  -3   3  281.77   20.60
  -4  -3  -3  282.47   22.10
   4   3   3  250.97   19.90
  -4   3  -3  264.97   20.30
  -4   3  -3  275.17   21.00
  -5  -3  -3   20.30   10.10
   5  -3   3   20.50    8.60
  -5  -3  -3   41.30   11.40
  -5  -3  -3   44.10   13.60
  -5   3  -3   28.10   10.30
  -5   3  -3   43.20   12.10
  -5   3  -3   39.80   11.40
   5   3   3   29.20    9.70
  -6  -3  -3  145.79   22.90
  -6  -3  -3  204.78   21.40
  -6   3  -3  160.08   22.80
  -6   3  -3  173.88   20.10
  -7  -3  -3   19.30   11.60
  -7   3  -3   10.40   15.90
  -7   3  -3   24.40   10.50
  -8  -3  -3   54.89   16.80
  -8   3  -3   67.09   17.40
  -9  -3  -3   55.79   18.60
  -9   3  -3   68.59   21.80
 -11  -4   3  337.97   35.90
 -11  -4   3  344.47   34.30
 -11   4   3  379.76   33.50
 -11   4   3  323.77   34.10
 -10  -4   3    3.00   12.00
 -10  -4   3   11.90   13.20
 -10   4   3    5.60   12.20
 -10   4   3   -8.10    9.90
  -9  -4   3  555.34   33.90
  -9  -4   3  538.65   36.20
  -9   4   3  553.94   34.30
  -9   4   3  510.65   35.30
  -8  -4   3 1236.68   49.40
  -8  -4   3 1205.68   51.89
  -8   4   3 1308.47   51.89
  -8   4   3 1341.37   54.19
  -7  -4   3   32.90    9.90
   7  -4  -3   37.40   13.60
  -7  -4   3   48.10   10.90
   7   4  -3   62.49   15.50
  -7   4   3   51.49   11.50
  -7   4   3   32.50    9.80
  -6  -4   3  658.63   31.70
  -6  -4   3  617.54   28.50
   6  -4  -3  606.24   32.20
  -6   4   3  608.34   30.00
  -6   4   3  685.83   32.50
   6   4  -3  638.94   35.10
  -5  -4   3 3082.09   78.99
  -5  -4   3 3105.19   83.49
   5  -4  -3 3014.20   83.69
  -5   4   3 3126.29   83.59
   5   4  -3 2988.80   85.49
  -5   4   3 2973.40   81.19
  -4  -4   3 2193.38   59.19
   4  -4  -3 2316.87   64.09
   4  -4  -3 2215.08   62.49
  -4  -4   3 2262.17   63.69
   4   4  -3 2245.28   64.59
  -4   4   3 2265.47   62.29
  -4   4   3 2214.68   63.49
   3  -4  -3 1945.21   54.99
  -3  -4   3 1957.60   51.19
  -3  -4   3 1940.81   54.89
   3  -4  -3 1952.20   53.79
  -3   4   3 1988.30   55.79
   3   4  -3 2024.80   51.69
   3   4  -3 1939.11   54.89
  -3   4   3 1911.11   53.49
   2  -4  -3 6520.15  142.39
  -2  -4   3 6365.86  140.49
  -2  -4   3 6494.05  144.39
   2  -4  -3 6678.03  145.19
   2   4  -3 6415.96  143.69
   2   4  -3 6588.04  140.29
  -2   4   3 6381.36  143.09
  -2   4   3 6437.86  145.29
  -1  -4   3 1066.89   31.60
   1  -4  -3 1033.90   31.60
   1  -4  -3 1096.29   33.60
  -1  -4   3 1087.29   33.10
   1   4  -3 1068.99   31.00
  -1   4   3 1130.99   34.40
  -1   4   3 1114.69   33.50
   1   4  -3 1104.69   32.30
   0  -4   3   22.70    4.80
   0  -4  -3   13.10    4.10
   0  -4  -3   19.30    4.70
   0  -4   3    7.40    3.50
   0   4  -3   17.80    4.30
   0   4   3   16.20    4.20
   0   4  -3   16.30    4.00
   0   4   3   14.80    4.10
   1  -4   3 5347.67  119.09
  -1  -4  -3 4375.46  116.49
   1  -4   3 5082.09  118.99
  -1  -4  -3 5429.56  120.29
   1   4   3 5195.28  120.39
   1   4   3 5164.48  119.59
  -1   4  -3 5223.78  117.19
  -1   4  -3 5299.97  118.89
   2  -4   3 1463.85   46.00
  -2  -4  -3 1447.86   46.60
  -2  -4  -3 1510.15   46.50
  -2   4  -3 1484.75   45.30
   2   4   3 1437.06   47.30
   2   4   3 1475.05   46.70
  -2   4  -3 1498.95   47.00
   3  -4   3   46.00    9.20
  -3  -4  -3   37.60    8.00
  -3  -4  -3   44.30    9.30
   3   4   3   35.00    8.30
   3   4   3   27.90    7.60
  -3   4  -3   28.00    7.80
  -3   4  -3   38.00    8.60
   4  -4   3 2533.15   75.59
  -4  -4  -3 2598.84   78.59
  -4  -4  -3 2721.73   77.69
   4   4   3 2586.84   78.29
  -4   4  -3 2547.45   77.79
  -4   4  -3 2583.04   75.89
   5  -4   3  789.82   37.30
  -5  -4  -3  814.12   40.70
  -5  -4  -3  848.32   41.10
  -5  -4  -3  832.72   40.10
   5   4   3  793.82   39.40
  -5   4  -3  813.02   39.20
  -5   4  -3  794.22   38.40
  -5   4  -3  835.12   40.80
  -6  -4  -3    1.80   13.30
  -6  -4  -3    8.90   12.50
  -6  -4  -3   -1.30    7.50
  -6   4  -3   -8.40   11.40
  -6   4  -3    7.00    7.30
  -7  -4  -3  735.63   43.40
  -7   4  -3  668.33   43.70
  -7   4  -3  688.53   41.20
  -8  -4  -3  836.12   49.40
  -8   4  -3  846.62   48.90
  -9  -4  -3    3.10   15.10
  -9   4  -3   17.40   16.50
 -11  -5   3   35.60   16.50
 -11  -5   3   15.60   16.60
 -11   5   3   34.50   19.90
 -11   5   3   31.10   15.20
 -10  -5   3  166.78   26.00
 -10  -5   3  225.48   27.90
 -10   5   3  247.28   25.40
 -10   5   3  248.78   27.80
  -9  -5   3   95.49   16.90
  -9  -5   3  109.69   18.80
  -9   5   3   94.19   16.10
  -9   5   3   61.99   15.40
  -8  -5   3  135.49   19.60
  -8  -5   3  100.09   15.70
  -8   5   3  103.49   16.10
  -8   5   3  109.19   17.60
  -7  -5   3  517.85   30.00
  -7  -5   3  525.65   27.70
   7  -5  -3  521.05   33.70
  -7   5   3  473.15   29.80
  -7   5   3  516.55   28.70
   7   5  -3  496.45   33.60
  -6  -5   3  435.76   26.00
   6  -5  -3  498.65   28.50
  -6  -5   3  486.05   24.30
  -6   5   3  449.06   25.30
   6   5  -3  499.95   31.20
  -6   5   3  456.15   26.50
  -5  -5   3  571.54   24.30
  -5  -5   3  552.24   27.10
   5  -5  -3  498.65   26.60
  -5   5   3  534.15   25.50
  -5   5   3  531.15   26.80
   5   5  -3  552.54   28.70
   4  -5  -3 1266.87   42.20
  -4  -5   3 1141.89   36.70
   4  -5  -3 1196.28   40.20
  -4  -5   3 1194.68   41.10
   4   5  -3 1183.88   41.80
  -4   5   3 1315.07   40.90
  -4   5   3 1169.78   41.20
   3  -5  -3 1005.30   33.80
   3  -5  -3 1017.80   35.60
  -3  -5   3 1104.99   36.20
  -3  -5   3 1066.49   31.80
   3   5  -3 1042.40   31.90
  -3   5   3 1023.10   36.10
  -3   5   3 1052.59   34.40
   3   5  -3 1099.49   36.30
   2  -5  -3  313.77   14.90
   2  -5  -3  339.87   16.90
  -2  -5   3  314.17   13.80
  -2  -5   3  316.67   16.10
   2   5  -3  336.77   16.30
   2   5  -3  323.77   13.80
  -2   5   3  308.97   16.60
  -2   5   3  324.37   15.50
   1  -5  -3  419.86   18.30
   1  -5  -3  444.66   17.40
  -1  -5   3  447.56   17.10
  -1  -5   3  406.76   17.50
  -1   5   3  395.56   17.50
   1   5  -3  432.66   17.50
  -1   5   3  431.06   18.90
   1   5  -3  402.26   16.00
   0  -5  -3 2156.08   56.19
   0  -5   3 2088.49   54.79
   0  -5   3 2107.89   54.89
   0  -5  -3 2149.08   55.49
   0   5  -3 2158.78   54.69
   0   5  -3 2067.69   53.29
   0   5   3 2087.39   56.19
   0   5   3 2166.68   56.99
  -1  -5  -3  712.83   27.50
   1  -5   3  774.32   28.00
  -1  -5  -3  679.73   27.10
   1  -5   3  762.82   27.50
   1   5   3  781.72   29.30
   1   5   3  763.72   28.90
  -1   5  -3  749.13   26.40
  -1   5  -3  781.32   28.10
  -2  -5  -3 1931.51   56.09
  -2  -5  -3 1947.01   57.29
   2  -5   3 1942.11   55.89
   2   5   3 1897.71   57.49
  -2   5  -3 1919.61   54.59
   2   5   3 1977.00   56.99
  -2   5  -3 1963.80   57.09
  -3  -5  -3 2013.60   62.69
   3  -5   3 2220.48   63.89
  -3  -5  -3 2057.39   64.49
  -3   5  -3 2205.98   63.09
   3   5   3 2244.68   66.39
   3   5   3 2152.98   63.89
  -3   5  -3 2180.38   65.19
  -4  -5  -3   56.69   12.20
   4  -5   3   61.79   11.20
  -4  -5  -3   48.60   11.20
  -4   5  -3   60.49   11.70
  -4   5  -3   34.10   10.10
   4   5   3   50.09   11.40
  -5  -5  -3  307.27   23.90
  -5  -5  -3  286.97   23.90
  -5  -5  -3  286.27   25.80
   5  -5   3  289.37   21.50
  -5   5  -3  249.58   23.60
  -5   5  -3  291.47   23.20
  -5   5  -3  276.37   23.10
   5   5   3  312.57   23.90
  -6  -5  -3  377.76   33.70
  -6  -5  -3  350.26   29.90
  -6  -5  -3  457.15   31.50
  -6   5  -3  374.76   28.30
  -6   5  -3  401.26   30.40
  -7  -5  -3  274.97   27.90
  -7   5  -3  383.16   30.60
  -7   5  -3  323.17   32.60
  -8  -5  -3    9.30   13.10
  -8   5  -3    8.10   12.30
  -9  -5  -3  232.28   34.20
  -9   5  -3  279.17   31.20
 -11  -6   3   33.90   18.00
 -11  -6   3   49.00   20.30
 -11   6   3   34.00   15.90
 -11   6   3   33.80   20.60
 -10  -6   3   20.90   13.10
 -10  -6   3    3.40   12.60
 -10   6   3   -1.80   14.50
 -10   6   3   -3.70   11.30
  -9  -6   3   75.49   16.90
  -9  -6   3   54.99   14.70
  -9   6   3   41.40   15.40
  -9   6   3   59.19   14.40
  -8  -6   3  474.75   28.20
  -8  -6   3  435.86   29.80
  -8   6   3  439.66   31.30
  -8   6   3  423.76   28.50
  -7  -6   3    6.70    6.50
   7  -6  -3   13.00   11.40
  -7  -6   3   17.80    8.90
   7   6  -3   10.80   11.30
  -7   6   3    7.00    7.60
  -7   6   3   15.90    7.50
  -6  -6   3  759.62   34.60
   6  -6  -3  691.83   34.60
  -6  -6   3  708.73   30.10
   6   6  -3  697.23   36.70
  -6   6   3  697.53   31.90
  -6   6   3  704.03   34.30
  -5  -6   3 1674.53   53.99
   5  -6  -3 1688.23   53.79
  -5  -6   3 1666.53   48.70
  -5   6   3 1640.54   54.09
  -5   6   3 1609.84   51.29
   5   6  -3 1659.33   56.29
   4  -6  -3   54.59    9.10
   4  -6  -3   42.80    7.80
  -4  -6   3   35.00    6.20
  -4  -6   3   50.49    8.80
  -4   6   3   47.70    7.90
   4   6  -3   19.50    6.60
  -4   6   3   49.00    9.20
   3  -6  -3  748.23   26.90
  -3  -6   3  741.23   28.30
  -3  -6   3  743.73   24.40
   3  -6  -3  721.93   28.60
   3   6  -3  706.23   28.10
   3   6  -3  733.23   24.40
  -3   6   3  697.53   26.40
  -3   6   3  709.03   29.00
   2  -6  -3  584.24   21.60
  -2  -6   3  591.14   23.20
   2  -6  -3  602.04   23.90
  -2  -6   3  585.94   20.00
   2   6  -3  602.04   23.20
  -2   6   3  613.04   25.00
   2   6  -3  599.84   19.90
  -1  -6   3   37.90    6.10
   1  -6  -3   33.80    6.30
  -1  -6   3   32.20    5.20
   1  -6  -3   44.40    6.30
   1   6  -3   24.80    4.90
   1   6  -3   25.00    4.50
  -1   6   3   27.40    5.00
  -1   6   3   23.30    5.10
   0  -6  -3  128.19    9.60
   0  -6   3  164.48   10.30
   0  -6  -3  128.99   10.00
   0  -6   3  137.59    9.60
   0   6  -3  127.59    9.40
   0   6   3  110.69    9.40
   0   6   3  127.59   10.10
   0   6  -3  137.79    9.30
  -1  -6  -3  325.87   17.00
   1  -6   3  310.87   16.00
   1  -6   3  317.67   16.60
  -1  -6  -3  302.77   16.40
   1   6   3  307.97   16.80
  -1   6  -3  310.07   15.30
   1   6   3  299.07   17.00
  -1   6  -3  288.57   15.90
  -2  -6  -3   80.99    9.70
   2  -6   3   73.69    8.80
  -2  -6  -3   79.69    9.30
   2   6   3   83.49   11.70
  -2   6  -3   75.59   10.60
   2   6   3   80.19    9.30
  -2   6  -3   78.79    8.70
  -3  -6  -3  138.09   13.30
  -3  -6  -3  155.68   14.90
   3  -6   3  197.18   14.80
   3   6   3  158.88   14.00
  -3   6  -3  150.48   14.40
   3   6   3  141.39   13.90
  -3   6  -3  143.79   13.70
   4  -6   3  568.94   29.00
  -4  -6  -3  570.94   31.20
  -4  -6  -3  540.75   28.70
   4   6   3  587.74   30.80
  -4   6  -3  581.14   31.20
  -4   6  -3  587.14   29.50
  -5  -6  -3  208.28   21.50
   5  -6   3  221.78   19.40
  -5  -6  -3  227.58   23.20
  -5  -6  -3  257.57   21.80
  -5   6  -3  275.27   22.50
  -5   6  -3  264.47   23.60
  -5   6  -3  194.68   19.00
   5   6   3  307.27   24.50
  -6  -6  -3   10.30   14.10
  -6  -6  -3   10.90   11.40
  -6  -6  -3   17.10   10.60
  -6   6  -3   -5.40    7.20
  -6   6  -3  -12.00   10.30
  -7  -6  -3  439.66   34.10
  -7   6  -3  355.76   31.50
  -7   6  -3  449.66   32.30
  -8  -6  -3  350.06   34.20
  -8   6  -3  235.98   33.30
  -8   6  -3  313.07   31.10
  -9  -6  -3  -23.00   16.50
  -9   6  -3   15.10   17.20
 -11  -7   3   42.00   18.50
 -11  -7   3   48.70   20.40
 -11   7   3   28.70   18.20
 -11   7   3   30.60   19.70
 -10  -7   3  736.83   45.40
 -10  -7   3  781.62   42.60
 -10   7   3  793.12   46.70
 -10   7   3  821.12   45.10
  -9  -7   3  469.25   30.60
  -9  -7   3  473.35   33.50
  -9   7   3  489.75   32.20
  -9   7   3  467.05   34.10
  -8  -7   3   95.89   14.90
  -8  -7   3  132.39   19.70
  -8   7   3   86.79   14.60
  -8   7   3  106.19   17.80
  -7  -7   3 1571.24   52.29
  -7  -7   3 1613.94   58.29
   7  -7  -3 1493.05   59.39
   7   7  -3 1604.54   64.79
  -7   7   3 1564.64   55.39
  -7   7   3 1590.24   58.89
  -6  -7   3 1897.81   55.29
  -6  -7   3 1800.22   60.29
   6  -7  -3 1723.03   59.99
   6   7  -3 1844.12   65.39
  -6   7   3 1767.72   60.59
  -6   7   3 1793.22   57.49
   5  -7  -3   39.10    8.90
  -5  -7   3   30.40    8.90
  -5  -7   3   38.10    7.50
  -5   7   3   41.30    8.60
  -5   7   3   44.60   10.10
   5   7  -3   33.10    9.60
  -4  -7   3 3677.23   90.09
   4  -7  -3 3575.74   87.49
  -4  -7   3 3529.45   82.69
   4  -7  -3 3521.15   90.19
  -4   7   3 3095.59   84.69
   4   7  -3 3538.45   90.89
  -4   7   3 3079.89   88.09
   3  -7  -3 4525.05  108.49
  -3  -7   3 4456.65  100.29
  -3  -7   3 4416.56  106.89
   3  -7  -3 4493.75  104.69
   3   7  -3 4498.55  107.39
   3   7  -3 4554.74  100.69
  -3   7   3 4497.55  104.79
  -3   7   3 4384.86  109.09
  -2  -7   3   11.40    3.20
   2  -7  -3   16.20    4.70
  -2  -7   3   11.10    4.20
   2  -7  -3    7.90    3.20
   2   7  -3    7.20    2.80
  -2   7   3   14.00    4.00
  -2   7   3   20.90    5.40
   2   7  -3   17.20    4.80
  -1  -7   3 1439.76   38.60
   1  -7  -3 1455.45   39.80
  -1  -7   3 1474.55   40.90
   1  -7  -3 1440.66   42.40
  -1   7   3 1370.46   42.50
  -1   7   3 1419.16   40.90
   1   7  -3 1472.95   38.10
   1   7  -3 1456.15   40.00
   0  -7  -3 4797.42  108.89
   0  -7  -3 4732.83  109.79
   0  -7   3 4677.13  107.69
   0  -7   3 4737.53  107.59
   0   7   3 4761.42  110.19
   0   7  -3 4832.02  107.59
   0   7   3 4740.43  110.69
   0   7  -3 4677.93  106.09
   1  -7   3  265.47   14.90
   1  -7   3  239.08   13.90
  -1  -7  -3  250.67   14.80
  -1  -7  -3  243.28   14.80
   1   7   3  235.58   15.30
  -1   7  -3  256.07   14.80
  -1   7  -3  225.48   13.00
   1   7   3  225.48   14.50
  -2  -7  -3  603.54   27.40
  -2  -7  -3  601.94   26.20
   2  -7   3  650.63   26.40
  -2   7  -3  632.64   27.20
   2   7   3  576.94   27.30
   2   7   3  612.04   26.80
  -2   7  -3  656.03   25.60
  -3  -7  -3 2501.45   71.29
  -3  -7  -3 2523.85   73.59
   3  -7   3 2471.95   70.19
  -3   7  -3 2501.25   69.69
   3   7   3 2481.95   71.49
  -3   7  -3 2580.54   73.89
   3   7   3 2565.94   74.29
  -4  -7  -3  738.93   34.50
  -4  -7  -3  766.62   37.30
   4  -7   3  784.92   34.00
  -4   7  -3  778.22   34.20
  -4   7  -3  745.43   36.00
   4   7   3  767.22   36.00
  -5  -7  -3  384.96   26.60
   5  -7   3  426.86   25.90
  -5  -7  -3  403.46   29.00
  -5  -7  -3  443.26   30.00
  -5   7  -3  428.16   27.70
  -5   7  -3  415.06   28.60
   5   7   3  399.16   27.60
  -5   7  -3  394.76   26.70
  -6  -7  -3 1287.17   54.59
  -6  -7  -3 1420.56   59.49
  -6  -7  -3 1374.06   60.49
  -6   7  -3 1292.37   55.09
  -6   7  -3 1382.66   55.69
  -7  -7  -3  651.73   42.20
  -7   7  -3  538.75   37.10
  -7   7  -3  568.54   36.80
  -8  -7  -3   77.09   20.60
  -8   7  -3   86.89   24.90
  -8   7  -3   74.89   18.60
  -9  -7  -3  794.12   51.69
  -9   7  -3  689.03   46.90
 -11  -8   3   68.19   20.40
 -11  -8   3   49.99   19.40
 -11   8   3  106.39   22.40
 -11   8   3   99.39   26.10
 -10  -8   3   33.90   15.80
 -10  -8   3   25.20   13.20
 -10   8   3   24.40   13.50
 -10   8   3    3.60   14.80
  -9  -8   3   51.69   13.00
  -9  -8   3   42.80   13.70
  -9   8   3   58.39   13.70
  -9   8   3   37.40   14.90
  -8  -8   3  287.37   24.90
  -8  -8   3  272.77   21.50
  -8   8   3  339.57   25.20
  -8   8   3  358.56   28.90
  -7  -8   3  144.69   16.60
   7  -8  -3   77.19   16.30
  -7  -8   3  124.79   14.10
  -7   8   3  104.19   16.30
  -7   8   3  135.89   14.90
   7   8  -3  127.09   22.30
   6  -8  -3   58.29   12.30
  -6  -8   3   55.79   11.50
  -6  -8   3  100.09   10.90
  -6   8   3  102.99   15.30
  -6   8   3  103.19   11.80
   6   8  -3   63.89   14.70
  -5  -8   3  717.53   32.10
   5  -8  -3  767.72   32.10
  -5  -8   3  753.32   27.70
   5   8  -3  685.13   33.60
  -5   8   3  701.63   32.40
  -5   8   3  723.83   30.00
   4  -8  -3   35.00    7.20
  -4  -8   3   47.10    8.20
   4  -8  -3   17.40    6.70
  -4  -8   3   25.30    5.20
  -4   8   3   40.00    7.00
  -4   8   3   36.90    8.20
   4   8  -3   14.30    6.20
   3  -8  -3  138.29   10.30
   3  -8  -3  110.89   10.80
  -3  -8   3  103.19    7.80
  -3  -8   3  106.09   10.00
   3   8  -3  105.89   10.50
  -3   8   3  115.59   11.50
  -3   8   3  120.79    9.80
   3   8  -3  104.79    8.10
  -2  -8   3  231.98   13.70
   2  -8  -3  264.37   13.20
   2  -8  -3  241.48   14.60
  -2  -8   3  234.18   10.90
  -2   8   3  236.68   13.10
   2   8  -3  223.78   13.50
  -2   8   3  249.18   15.50
   2   8  -3  243.98   11.00
   1  -8  -3   36.60    5.60
   1  -8  -3   25.60    5.50
  -1  -8   3   25.20    4.90
  -1  -8   3   27.40    4.60
   1   8  -3   25.40    4.50
   1   8  -3   28.20    5.40
  -1   8   3   27.00    5.20
  -1   8   3   20.30    5.20
   0  -8   3  790.12   27.00
   0  -8   3  777.42   26.60
   0  -8  -3  893.21   29.60
   0   8  -3  839.32   27.00
   0   8   3  812.72   29.00
   0   8  -3  791.02   25.80
  -1  -8  -3 1971.90   55.39
   1  -8   3 1988.30   53.99
  -1  -8  -3 1945.11   55.69
   1   8   3 1963.20   56.89
  -1   8  -3 2130.09   55.89
  -1   8  -3 2008.80   52.69
   1   8   3 2036.90   56.59
  -2  -8  -3 1344.97   45.60
   2  -8   3 1427.86   44.10
  -2  -8  -3 1390.36   44.90
   2   8   3 1429.56   45.80
  -2   8  -3 1438.36   46.00
  -2   8  -3 1441.46   42.90
   2   8   3 1402.96   46.90
   3  -8   3   32.10    7.70
  -3  -8  -3   51.39    9.70
  -3  -8  -3   29.30    8.30
   3   8   3   21.80    7.00
  -3   8  -3   40.80    8.60
  -3   8  -3   29.80    8.50
   3   8   3   30.30    7.90
   4  -8   3  192.18   16.20
  -4  -8  -3  165.58   17.90
  -4  -8  -3  153.38   15.70
  -4   8  -3  184.28   17.00
  -4   8  -3  184.18   19.00
   4   8   3  156.18   16.30
  -5  -8  -3  228.28   23.00
  -5  -8  -3  205.98   19.80
   5  -8   3  191.58   18.10
  -5  -8  -3  212.18   22.40
  -5   8  -3  202.78   19.70
  -5   8  -3  207.78   22.50
  -5   8  -3  178.78   19.10
   5   8   3  178.08   18.90
  -6  -8  -3   24.10   11.00
  -6  -8  -3   22.80   13.80
  -6   8  -3   16.10   10.20
  -6   8  -3   18.30   11.80
  -7  -8  -3   20.40   11.90
  -7   8  -3   38.10   13.40
  -7   8  -3   47.40   17.10
  -8  -8  -3   50.79   18.10
  -8   8  -3   43.90   22.00
  -8   8  -3   55.09   16.10
  -9  -8  -3    0.30   15.90
  -9   8  -3    7.70   15.00
 -11  -9   3   50.69   19.00
 -11  -9   3   17.20   17.50
 -11   9   3    9.80   18.10
 -11   9   3   38.30   16.70
 -10  -9   3  204.38   28.80
 -10  -9   3  176.88   24.50
 -10   9   3  156.88   26.00
 -10   9   3  142.89   21.90
  -9  -9   3  214.38   24.00
  -9  -9   3  230.98   23.00
  -9   9   3  209.18   24.40
  -9   9   3  209.78   23.10
  -8  -9   3   37.60   10.90
  -8  -9   3   45.20   13.00
  -8   9   3   32.80   12.70
  -8   9   3   27.80   11.10
   7  -9  -3  832.52   48.60
  -7  -9   3  873.41   35.20
  -7  -9   3  791.62   38.90
  -7   9   3  823.92   40.70
   7   9  -3  844.52   45.70
  -7   9   3  868.01   37.70
  -6  -9   3  663.03   27.50
  -6  -9   3  623.64   32.00
   6  -9  -3  641.04   32.10
  -6   9   3  667.13   30.30
  -6   9   3  576.84   32.20
   6   9  -3  687.43   37.30
  -5  -9   3   70.29   11.60
  -5  -9   3   60.69    8.50
   5  -9  -3   43.10    8.90
  -5   9   3   39.00    8.10
  -5   9   3   51.79   10.40
   5   9  -3   29.10    9.20
   4  -9  -3 1792.22   52.39
  -4  -9   3 1833.22   47.50
   4  -9  -3 1722.03   55.49
  -4  -9   3 1843.22   55.19
   4   9  -3 1756.72   55.69
  -4   9   3 1754.92   56.19
  -4   9   3 1766.52   51.39
   3  -9  -3  932.81   34.20
  -3  -9   3  907.91   32.60
   3  -9  -3  882.51   30.20
  -3  -9   3  881.31   26.10
  -3   9   3  921.91   35.00
   3   9  -3  875.01   26.30
   3   9  -3  893.31   32.90
  -3   9   3  868.91   29.90
   2  -9  -3    2.10    2.60
  -2  -9   3    5.40    2.40
  -2  -9   3    4.70    3.20
   2  -9  -3    3.60    3.80
  -2   9   3    3.00    3.50
   2   9  -3    1.90    2.10
   2   9  -3    0.50    3.20
  -2   9   3    4.20    2.90
  -1  -9   3 1411.96   35.80
   1  -9  -3 1095.79   35.30
  -1  -9   3 1371.76   38.00
   1  -9  -3 1137.09   38.20
  -1   9   3 1349.86   38.50
   1   9  -3 1298.57   37.00
   1   9  -3 1335.57   34.70
  -1   9   3 1298.07   40.70
   0  -9   3 3846.92   89.69
   0  -9  -3 3511.85   91.19
   0  -9   3 3946.31   90.19
   0  -9  -3 3962.10   91.69
   0   9  -3 3941.31   89.79
   0   9   3 3922.41   93.79
   0   9   3 3939.21   93.19
   0   9  -3 3815.52   88.19
  -1  -9  -3   99.79   10.00
   1  -9   3   95.69    8.80
  -1  -9  -3   98.29    9.80
  -1   9  -3   75.09    7.60
  -1   9  -3   83.99    8.60
   1   9   3   86.69    9.90
   1   9   3   83.89    9.00
  -2  -9  -3  597.44   27.10
   2  -9   3  599.94   25.00
  -2  -9  -3  591.84   25.90
   2   9   3  599.64   26.30
  -2   9  -3  591.94   26.80
   2   9   3  594.54   27.40
  -2   9  -3  562.94   23.50
   3  -9   3 1002.90   37.90
  -3  -9  -3 1117.79   40.60
  -3  -9  -3 1096.29   42.20
   3   9   3 1120.19   40.60
  -3   9  -3 1039.90   40.90
  -3   9  -3 1122.69   38.50
   3   9   3 1058.09   41.70
   4  -9   3  208.58   17.30
  -4  -9  -3  263.07   21.40
  -4  -9  -3  262.17   20.40
  -4   9  -3  233.98   18.30
  -4   9  -3  238.48   20.40
   4   9   3  208.78   18.90
  -5  -9  -3  140.39   18.50
  -5  -9  -3  161.08   22.20
  -5  -9  -3  162.18   21.90
   5  -9   3  196.48   17.70
  -5   9  -3  159.28   17.60
  -5   9  -3  162.38   17.00
  -5   9  -3  170.78   21.70
  -6  -9  -3  539.75   35.90
  -6  -9  -3  513.65   34.10
  -6   9  -3  509.85   32.50
  -6   9  -3  517.15   33.30
  -7  -9  -3   68.79   17.90
  -7   9  -3   60.99   16.70
  -7   9  -3   23.10   13.10
  -8  -9  -3  104.79   21.00
  -8   9  -3   59.29   20.50
  -8   9  -3   87.79   18.60
  -9  -9  -3  383.76   37.80
  -9   9  -3  375.06   35.40
 -11 -10   3  328.57   37.50
 -11 -10   3  285.67   30.70
 -11  10   3  360.26   39.10
 -11  10   3  291.07   32.00
 -10 -10   3   10.30   13.00
 -10 -10   3   -3.40   12.00
 -10  10   3  -18.70   22.70
 -10  10   3   -0.10   11.40
 -10  10   3   24.60   16.70
  -9 -10   3  338.97   30.80
  -9 -10   3  370.56   27.40
  -9  10   3  373.06   28.60
  -9  10   3  404.06   33.60
  -8 -10   3 1565.94   60.79
  -8 -10   3 1555.14   53.79
  -8  10   3 1494.65   61.39
  -8  10   3 1463.35   55.99
  -7 -10   3  214.48   20.80
  -7 -10   3  185.98   15.50
  -7  10   3  180.48   21.00
   7  10  -3  201.98   26.70
  -7  10   3  169.28   17.20
  -6 -10   3  917.51   39.70
  -6 -10   3  927.61   33.40
   6 -10  -3  934.41   40.10
  -6  10   3  883.71   40.30
   6  10  -3  942.81   44.10
  -6  10   3  927.51   37.00
  -5 -10   3 2459.75   71.99
  -5 -10   3 2489.25   63.39
   5 -10  -3 2444.46   69.69
   5  10  -3 2457.55   75.09
  -5  10   3 2470.25   68.19
  -5  10   3 2402.26   73.19
   4 -10  -3  792.92   30.20
   4 -10  -3  812.72   33.80
  -4 -10   3  753.12   31.60
  -4 -10   3  814.52   25.90
  -4  10   3  768.72   33.80
   4  10  -3  844.72   34.60
  -4  10   3  789.02   29.70
  -3 -10   3  234.68   14.90
   3 -10  -3  194.78   14.90
  -3 -10   3  226.88   10.60
   3 -10  -3  205.88   13.00
   3  10  -3  249.97   15.70
  -3  10   3  215.58   16.00
   3  10  -3  222.88   10.70
  -3  10   3  218.98   13.00
   2 -10  -3 4045.80   92.09
   2 -10  -3 4038.30   97.59
  -2 -10   3 4055.79   87.99
  -2 -10   3 3852.11   94.69
   2  10  -3 3843.32   94.39
  -2  10   3 4069.69   93.39
   2  10  -3 4038.70   87.49
  -2  10   3 4014.70   99.29
   1 -10  -3 3098.29   72.89
  -1 -10   3 3040.00   73.59
   1 -10  -3 3050.69   76.59
  -1 -10   3 3179.08   71.19
   1  10  -3 3030.20   69.99
   1  10  -3 3088.79   73.59
  -1  10   3 2965.00   77.49
  -1  10   3 2916.41   73.99
   0 -10  -3  451.75   20.00
   0 -10  -3  450.65   19.20
   0 -10   3  403.56   17.70
   0 -10   3  441.66   18.00
   0  10  -3  410.16   16.90
   0  10   3  418.36   19.50
   0  10  -3  444.96   18.10
   0  10   3  420.76   20.00
  -1 -10  -3 5285.67  119.69
   1 -10   3 5045.40  116.29
  -1 -10  -3 5249.08  120.39
   1  10   3 5199.38  121.59
  -1  10  -3 5189.28  114.79
  -1  10  -3 4515.85  116.89
   1  10   3 5255.47  120.69
  -2 -10  -3 1477.45   48.90
  -2 -10  -3 1602.74   48.50
   2 -10   3 1478.75   45.60
  -2  10  -3 1547.15   49.10
   2  10   3 1528.25   49.90
   2  10   3 1534.15   48.40
  -2  10  -3 1532.05   44.80
  -3 -10  -3    6.70    6.70
  -3 -10  -3   11.10    6.30
   3 -10   3   15.40    5.50
  -3  10  -3   13.20    5.80
  -3  10  -3   13.80    6.80
   3  10   3   10.10    5.50
   3  10   3    9.60    6.00
  -4 -10  -3 1704.93   57.69
  -4 -10  -3 1742.83   61.59
   4 -10   3 1724.63   56.29
  -4  10  -3 1832.42   57.19
  -4  10  -3 1825.62   62.39
   4  10   3 1771.12   61.49
  -5 -10  -3 1770.22   66.29
   5 -10   3 1787.42   59.79
  -5 -10  -3 1698.73   65.69
  -5 -10  -3 1736.43   61.29
  -5  10  -3 1643.94   63.29
  -5  10  -3 1760.62   61.29
  -5  10  -3 1794.12   60.19
  -6 -10  -3   58.49   17.20
  -6 -10  -3   73.99   17.00
  -6  10  -3  112.19   17.70
  -6  10  -3   86.59   16.90
  -7 -10  -3  649.04   43.20
  -7  10  -3  641.44   41.00
  -7  10  -3  654.43   39.00
  -8 -10  -3  697.53   46.20
  -8  10  -3  671.63   41.80
  -8  10  -3  651.13   47.50
  -9 -10  -3   15.50   19.00
  -9  10  -3   14.20   15.30
 -11 -11   3   10.50   15.60
 -11 -11   3   -3.20   18.00
 -11  11   3   18.90   15.70
 -11  11   3   -4.70   16.60
 -10 -11   3   11.60   13.30
 -10 -11   3   10.20   13.70
 -10  11   3   -7.60   12.50
 -10  11   3   30.40   23.20
 -10  11   3    0.40   11.80
  -9 -11   3   69.09   13.90
  -9 -11   3   91.29   19.40
  -9  11   3   47.80   13.10
  -9  11   3   44.10   14.30
  -8 -11   3   42.30   12.10
  -8 -11   3   42.60   11.50
  -8  11   3   20.30   12.30
  -8  11   3   21.50    9.10
  -7 -11   3   97.79   16.30
  -7 -11   3   92.09   13.00
   7  11  -3   96.39   19.20
  -7  11   3  108.39   15.10
  -7  11   3   98.09   16.70
   6 -11  -3  120.19   16.30
  -6 -11   3  127.99   12.00
  -6 -11   3  119.99   16.30
  -6  11   3  118.89   16.70
  -6  11   3  141.79   14.10
   6  11  -3  137.49   19.20
   5 -11  -3   34.10    8.30
  -5 -11   3   64.89   11.60
  -5 -11   3   57.49    8.00
   5  11  -3   31.60   10.80
  -5  11   3   29.60    7.30
  -5  11   3   43.50    9.50
   4 -11  -3   39.80    7.80
  -4 -11   3   38.30    5.70
   4 -11  -3   20.30    7.10
  -4 -11   3   41.60    8.70
  -4  11   3   39.30    7.10
   4  11  -3   33.20    9.00
  -4  11   3   29.20    7.90
   3 -11  -3   -0.70    4.30
  -3 -11   3   10.80    4.40
   3 -11  -3    6.60    3.80
  -3 -11   3    2.10    2.30
  -3  11   3    9.90    3.60
  -3  11   3    2.60    3.70
   3  11  -3    4.00    3.90
   3  11  -3    5.10    2.60
  -2 -11   3   14.10    3.10
  -2 -11   3   19.60    5.30
   2 -11  -3   20.70    4.50
   2 -11  -3   24.00    6.20
  -2  11   3   27.80    5.20
   2  11  -3   19.50    5.20
  -2  11   3   36.10    7.30
   2  11  -3   18.90    3.50
  -1 -11   3   26.30    4.80
  -1 -11   3   21.40    4.80
   1 -11  -3   23.80    5.40
   1 -11  -3   28.80    5.10
  -1  11   3   10.90    4.20
   1  11  -3   12.70    3.40
   1  11  -3   23.10    4.80
  -1  11   3   16.20    4.20
   0 -11  -3   64.79    8.40
   0 -11  -3   65.79    9.00
   0 -11   3   53.69    6.20
   0  11   3   45.50    7.40
   0  11   3   51.89    8.20
   0  11  -3   51.29    7.10
   0  11  -3   55.39    6.00
  -1 -11  -3  120.39   11.00
   1 -11   3  143.29   10.50
  -1 -11  -3  134.69   11.80
  -1  11  -3  137.89    9.50
   1  11   3  127.79   11.20
  -1  11  -3  124.09   11.10
   1  11   3  118.09   11.20
  -2 -11  -3    0.10    4.00
  -2 -11  -3    3.80    4.40
   2 -11   3    0.40    3.70
   2  11   3   -0.40    4.00
  -2  11  -3   -4.80    4.10
  -2  11  -3    3.10    3.40
   2  11   3   -3.60    3.80
   3 -11   3  100.39   11.00
  -3 -11  -3  111.49   15.50
  -3 -11  -3   98.59   11.70
   3  11   3   94.59   13.80
  -3  11  -3   99.39   12.40
  -3  11  -3  117.09   15.40
   3  11   3   99.49   13.20
  -4 -11  -3   23.40    9.80
   4 -11   3   30.90    8.10
  -4 -11  -3   22.60    8.10
  -4  11  -3   29.90    8.40
  -4  11  -3   23.50    9.90
   4  11   3   26.40    8.90
   5 -11   3    2.20    6.90
  -5 -11  -3    7.40   11.20
  -5 -11  -3   10.50    9.20
  -5 -11  -3    4.60    9.60
  -5  11  -3   -3.80    6.80
  -5  11  -3   11.90    9.30
  -5  11  -3    8.50   11.70
  -6 -11  -3   11.80   10.10
  -6 -11  -3   16.80   13.10
  -6  11  -3    6.20    9.60
  -6  11  -3    4.20    8.70
  -7 -11  -3   10.30   12.10
  -7  11  -3   24.30   14.90
  -7  11  -3   23.20   12.30
  -8 -11  -3  -14.50   14.70
  -8  11  -3   -9.40   18.10
  -8  11  -3    2.60   12.10
  -9 -11  -3   36.40   20.30
  -9  11  -3    9.60   15.40
 -11 -12   3  291.97   37.50
 -11 -12   3  317.57   31.50
 -11  12   3  316.57   32.30
 -11  12   3  293.87   39.20
 -10 -12   3   11.80   12.90
 -10 -12   3   18.70   14.40
 -10  12   3  -10.00   23.00
 -10  12   3   31.40   13.50
 -10  12   3   15.70   15.50
  -9 -12   3  154.88   20.30
  -9 -12   3  174.18   25.10
  -9  12   3  147.49   24.00
  -9  12   3  148.19   20.70
  -8 -12   3 1161.48   43.90
  -8 -12   3 1109.49   50.59
  -8  12   3 1095.39   46.20
  -8  12   3 1182.68   53.89
  -7 -12   3  173.18   19.60
  -7 -12   3  168.98   15.30
   7  12  -3  142.49   24.00
  -7  12   3  187.28   19.80
  -7  12   3  153.78   16.20
  -6 -12   3  834.62   38.10
  -6 -12   3  820.42   30.00
   6 -12  -3  738.03   35.70
  -6  12   3  816.02   33.80
   6  12  -3  837.92   42.40
  -6  12   3  810.62   38.80
   5 -12  -3 1724.93   53.59
  -5 -12   3 1637.44   55.29
  -5 -12   3 1769.42   46.90
   5  12  -3 1718.63   59.29
  -5  12   3 1698.33   51.79
  -5  12   3 1617.64   57.19
   4 -12  -3  482.85   22.40
   4 -12  -3  510.45   26.40
  -4 -12   3  501.05   25.10
  -4 -12   3  490.65   18.00
  -4  12   3  491.15   26.40
   4  12  -3  521.55   26.70
  -4  12   3  507.25   22.20
  -3 -12   3  267.07   10.70
   3 -12  -3  254.67   17.30
   3 -12  -3  277.17   14.80
  -3 -12   3  261.77   16.00
   3  12  -3  254.07   10.50
  -3  12   3  216.08   16.50
  -3  12   3  233.98   13.50
   3  12  -3  234.68   16.30
   2 -12  -3 3528.55   83.09
  -2 -12   3 3498.65   86.49
  -2 -12   3 3667.93   78.59
   2 -12  -3 3595.54   89.99
  -2  12   3 3477.65   91.19
   2  12  -3 3587.14   86.69
   2  12  -3 3522.05   77.79
  -2  12   3 3638.64   84.79
   1 -12  -3 2613.14   66.89
  -1 -12   3 2445.76   58.99
  -1 -12   3 2467.75   62.39
   1 -12  -3 2436.66   61.39
  -1  12   3 2485.25   63.59
   1  12  -3 2589.64   58.99
  -1  12   3 2493.15   67.59
   1  12  -3 2431.86   62.09
   0 -12   3   15.70    4.10
   0 -12  -3   27.10    5.40
   0 -12  -3   29.70    6.50
   0  12   3   38.10    7.10
   0  12  -3   27.00    5.70
   0  12  -3   22.80    4.60
   0  12   3   16.30    5.10
   1 -12   3 2516.35   64.49
  -1 -12  -3 2552.84   68.39
  -1 -12  -3 2510.15   67.49
   1  12   3 2621.54   69.39
  -1  12  -3 2603.04   67.49
   1  12   3 2519.45   69.49
  -1  12  -3 2571.64   62.99
  -2 -12  -3  690.83   30.30
   2 -12   3  726.33   27.80
  -2 -12  -3  762.92   30.10
   2  12   3  685.03   30.80
   2  12   3  729.33   30.10
  -2  12  -3  704.33   26.30
  -2  12  -3  756.92   31.10
  -3 -12  -3    6.20    5.70
  -3 -12  -3   12.40    7.90
   3 -12   3   14.00    5.50
  -3  12  -3    2.80    4.80
   3  12   3    4.80    5.10
   3  12   3    6.50    6.00
  -3  12  -3    8.20    6.40
  -4 -12  -3  830.22   37.80
  -4 -12  -3 1005.50   43.50
   4 -12   3  948.11   37.40
   4  12   3  989.80   42.70
   4  12   3  919.61   38.70
  -4  12  -3  943.71   42.00
  -4  12  -3  976.20   37.60
  -5 -12  -3 1378.06   58.19
  -5 -12  -3 1527.05   54.79
  -5 -12  -3 1537.35   60.99
  -5  12  -3 1431.96   52.89
  -5  12  -3 1425.76   51.99
  -5  12  -3 1342.27   57.69
  -6 -12  -3   -0.90   10.30
  -6 -12  -3   20.90   13.60
  -6  12  -3   11.80   10.80
  -6  12  -3    0.20    8.00
  -7 -12  -3  779.02   48.00
  -7  12  -3  687.13   41.30
  -7  12  -3  715.93   39.90
  -8 -12  -3  428.06   37.30
  -8  12  -3  373.46   32.20
  -8  12  -3  311.37   37.20
  -9 -12  -3   23.50   17.70
  -9  12  -3   37.60   18.20
 -11 -13   3   67.89   19.30
 -11 -13   3   56.19   22.40
 -11  13   3  130.29   26.30
 -11  13   3   80.09   19.60
 -10 -13   3  234.98   25.70
 -10 -13   3  241.28   29.20
 -10  13   3  226.88   34.20
 -10  13   3  296.97   34.00
 -10  13   3  253.27   26.60
  -9 -13   3  267.97   23.40
  -9 -13   3  284.17   29.10
  -9  13   3  301.37   29.90
  -9  13   3  272.97   24.40
  -8 -13   3   46.20   11.00
  -8 -13   3   43.20   12.50
  -8  13   3   52.29   14.50
  -8  13   3   34.60   11.20
  -7 -13   3 1569.34   58.79
  -7 -13   3 1531.35   48.30
  -7  13   3 1529.55   52.79
  -7  13   3 1411.76   57.99
   7  13  -3 1452.65   64.19
   6 -13  -3 1666.83   56.59
  -6 -13   3 1653.83   48.30
  -6 -13   3 1650.73   58.29
   6  13  -3 1700.03   63.59
  -6  13   3 1685.73   60.69
  -6  13   3 1653.13   53.39
   5 -13  -3    4.00    6.10
  -5 -13   3   15.60    6.90
  -5 -13   3    5.30    4.20
  -5  13   3   24.60    6.40
   5  13  -3   11.70    7.40
  -5  13   3   16.60    6.60
   4 -13  -3 1334.57   47.40
   4 -13  -3 1290.87   41.10
  -4 -13   3 1327.67   45.00
  -4 -13   3 1317.67   34.70
   4  13  -3 1279.07   45.80
  -4  13   3 1227.68   46.90
  -4  13   3 1312.97   40.60
   3 -13  -3 2423.46   68.49
  -3 -13   3 2344.27   65.19
   3 -13  -3 2433.86   61.59
  -3 -13   3 2385.16   54.09
  -3  13   3 2358.26   69.69
  -3  13   3 2405.46   61.49
   3  13  -3 2367.56   65.89
  -2 -13   3  102.99    9.50
  -2 -13   3  111.39    6.50
   2 -13  -3   88.39   10.00
   2 -13  -3  107.69    8.50
   2  13  -3  120.09   10.40
  -2  13   3  104.69    8.70
  -2  13   3   96.79   10.60
   2  13  -3  113.29    6.40
  -1 -13   3  336.57   13.80
  -1 -13   3  348.77   16.10
   1 -13  -3  371.36   19.20
   1 -13  -3  394.76   16.60
   1  13  -3  345.27   16.10
  -1  13   3  359.76   19.50
   1  13  -3  328.47   13.60
  -1  13   3  338.97   16.70
   0 -13   3 4524.45  104.09
   0 -13  -3 4568.94  106.69
   0 -13  -3 4713.33  109.19
   0  13  -3 4699.43  104.89
   0  13  -3 4557.44  102.99
   0  13   3 4589.34  110.19
   0  13   3 4488.35  108.19
  -1 -13  -3  416.86   20.70
  -1 -13  -3  437.96   21.00
   1 -13   3  401.76   18.20
   1  13   3  393.76   21.10
  -1  13  -3  421.76   17.30
  -1  13  -3  437.76   20.40
   1  13   3  430.46   21.40
   2 -13   3  660.23   25.80
  -2 -13  -3  637.84   27.50
  -2 -13  -3  657.53   29.70
  -2  13  -3  648.64   24.50
   2  13   3  594.44   27.20
  -2  13  -3  661.93   29.20
   2  13   3  705.43   30.80
   3 -13   3 1847.02   55.49
  -3 -13  -3 1909.31   61.89
  -3 -13  -3 1892.21   58.39
  -3  13  -3 2013.90   62.59
  -3  13  -3 1929.91   55.09
   3  13   3 1904.71   59.09
   3  13   3 1815.82   61.09
   4 -13   3  504.55   25.40
  -4 -13  -3  476.85   30.70
  -4 -13  -3  459.25   26.70
  -4  13  -3  471.55   30.10
   4  13   3  469.95   26.50
  -4  13  -3  464.45   24.50
   4  13   3  448.46   27.90
  -5 -13  -3   42.60   13.80
  -5 -13  -3   54.89   13.00
  -5 -13  -3   32.60   13.60
  -5  13  -3   34.80   17.50
  -5  13  -3   35.50   10.50
  -5  13  -3   56.09   11.90
  -6 -13  -3 1499.95   64.79
  -6 -13  -3 1621.14   61.89
  -6  13  -3 1568.54   59.09
  -6  13  -3 1685.53   60.79
  -7 -13  -3   96.99   21.10
  -7  13  -3   88.69   16.50
  -7  13  -3  127.89   21.70
  -8 -13  -3  105.29   23.50
  -8  13  -3   87.89   19.80
  -8  13  -3  108.59   24.90
  -9 -13  -3  345.57   40.80
  -9  13  -3  384.96   34.80
  -9  13  -3  282.97   47.40
 -11 -14   3   11.90   19.00
 -11 -14   3   17.90   16.80
 -11  14   3   -7.70   17.40
 -11  14   3   -9.50   14.20
 -10 -14   3   -3.90   14.80
 -10 -14   3    7.20   12.50
 -10  14   3   -2.40   15.00
 -10  14   3    4.50   12.20
 -10  14   3    2.40   22.90
  -9 -14   3   -8.90   10.20
  -9 -14   3   44.90   12.60
  -9  14   3   15.40   11.30
  -9  14   3    1.40   14.60
  -8 -14   3   38.30   11.00
  -8 -14   3   35.60   11.70
  -8  14   3   37.00   12.80
  -8  14   3   35.00   11.00
  -7 -14   3   96.99   17.10
  -7 -14   3  130.99   13.00
  -7  14   3   86.59   13.60
   7  14  -3  109.59   21.00
  -7  14   3   84.79   16.10
   6 -14  -3   29.10    9.90
  -6 -14   3   39.90    7.50
  -6 -14   3   45.90   10.80
  -6  14   3   21.60    9.50
   6  14  -3   53.09   14.50
  -6  14   3   18.40    7.00
   5 -14  -3   16.50    7.40
  -5 -14   3   16.00    7.00
  -5 -14   3   28.50    5.50
  -5  14   3   26.10    8.70
  -5  14   3   17.30    5.60
   5  14  -3   18.30    9.30
   4 -14  -3  166.48   15.90
  -4 -14   3  148.99    8.50
  -4 -14   3  145.89   13.80
   4 -14  -3  171.28   13.20
  -4  14   3  169.38   12.20
  -4  14   3  165.08   15.70
   4  14  -3  130.99   14.00
   3 -14  -3  125.89   12.80
   3 -14  -3  133.59   10.30
  -3 -14   3  111.79   11.30
  -3 -14   3  127.99    6.50
  -3  14   3  139.09   10.30
   3  14  -3  142.59   12.90
  -3  14   3  136.39   13.50
   2 -14  -3  532.95   20.30
  -2 -14   3  541.75   22.70
  -2 -14   3  555.64   16.50
   2 -14  -3  565.54   25.20
   2  14  -3  553.34   22.80
  -2  14   3  535.25   21.10
   2  14  -3  545.55   16.00
  -2  14   3  515.65   25.50
   1 -14  -3 1658.33   49.00
   1 -14  -3 1581.84   43.50
  -1 -14   3 1600.54   44.30
   1  14  -3 1652.13   40.70
   1  14  -3 1564.24   44.10
  -1  14   3 1651.13   45.90
  -1  14   3 1533.45   49.10
   0 -14  -3   53.99    8.50
   0 -14   3   64.19    7.00
   0 -14  -3   45.10    7.40
   0  14   3   42.80    8.10
   0  14  -3   38.00    6.40
   0  14   3   39.70    6.90
  -1 -14  -3    9.60    4.50
   1 -14   3    2.80    3.40
  -1 -14  -3   -6.60    3.70
  -1  14  -3    3.40    2.80
  -1  14  -3   10.20    4.20
   1  14   3    4.90    4.00
   1  14   3    1.80    3.80
  -2 -14  -3    2.30    5.30
  -2 -14  -3   -0.70    5.80
   2 -14   3    1.70    3.60
   2  14   3    8.70    4.80
  -2  14  -3    5.90    4.00
  -2  14  -3    6.60    5.30
   2  14   3   12.40    5.60
  -3 -14  -3   10.30    7.30
  -3 -14  -3   15.90    7.20
   3 -14   3    6.10    4.90
  -3  14  -3   10.10    5.20
   3  14   3   17.30    7.60
  -3  14  -3   10.20    7.40
   3  14   3   14.30    5.90
   4 -14   3   65.19   10.60
  -4 -14  -3   72.99   13.30
  -4 -14  -3   57.49   12.90
   4  14   3   65.59   12.00
   4  14   3   56.39   12.10
  -4  14  -3   47.90   10.10
  -4  14  -3   49.30   13.50
  -5 -14  -3  140.49   21.60
  -5 -14  -3  125.49   18.80
  -5  14  -3  171.18   17.60
  -5  14  -3  170.38   17.80
  -6 -14  -3   20.10   11.90
  -6 -14  -3    8.30   11.80
  -6  14  -3   -2.10   10.30
  -6  14  -3   18.50    9.70
  -7 -14  -3   -5.10   12.00
  -7  14  -3   13.60   11.50
  -7  14  -3    6.40   13.40
  -8 -14  -3   14.30   15.10
  -8  14  -3    9.20   13.00
  -8  14  -3   13.60   19.10
  -9 -14  -3   -6.60   16.90
  -9  14  -3   20.20   16.30
 -10 -15   3  545.45   33.80
 -10 -15   3  522.65   40.90
 -10  15   3  555.54   35.90
 -10  15   3  475.25   44.50
 -10  15   3  481.85   40.30
  -9 -15   3  298.47   28.20
  -9 -15   3  249.08   22.20
  -9  15   3  288.67   30.60
  -9  15   3  259.97   24.80
  -8 -15   3  234.48   24.10
  -8 -15   3  251.67   19.10
  -8  15   3  198.68   23.60
  -8  15   3  209.58   20.60
  -7 -15   3 1531.85   46.80
  -7 -15   3 1479.45   57.09
  -7  15   3 1463.95   59.19
  -7  15   3 1423.96   50.79
   7  15  -3 1426.46   63.19
  -6 -15   3  416.26   19.20
  -6 -15   3  425.76   26.60
   6 -15  -3  431.96   25.80
  -6  15   3  405.06   22.70
   6  15  -3  449.86   31.00
  -6  15   3  388.06   27.10
   5 -15  -3   48.00    9.80
  -5 -15   3   52.79    6.90
  -5 -15   3   52.49   11.00
  -5  15   3   40.80   11.30
  -5  15   3   40.70    8.00
   5  15  -3   45.00   11.50
  -4 -15   3 2488.35   71.39
   4 -15  -3 2580.54   66.79
  -4 -15   3 2556.54   57.49
  -4  15   3 2504.95   65.59
  -4  15   3 2463.25   75.39
   4  15  -3 2547.75   74.19
   3 -15  -3 3602.84   92.39
   3 -15  -3 3500.45   83.19
  -3 -15   3 3467.45   73.59
  -3 -15   3 3299.27   87.39
   3  15  -3 3477.95   88.99
  -3  15   3 3486.15   93.89
  -3  15   3 3471.55   83.29
   2 -15  -3  836.32   32.10
  -2 -15   3  772.82   28.70
   2 -15  -3  794.42   26.10
  -2  15   3  801.92   33.30
   2  15  -3  758.52   28.60
   2  15  -3  817.82   20.90
  -2  15   3  807.22   27.30
   1 -15  -3 2838.12   69.89
  -1 -15   3 2881.51   70.89
   1 -15  -3 3021.90   76.99
   1  15  -3 2801.32   70.69
   1  15  -3 2848.52   66.39
  -1  15   3 2932.71   77.79
  -1  15   3 2973.40   72.69
   0 -15  -3 3556.04   84.59
   0 -15  -3 3384.56   86.59
   0 -15   3 3432.36   81.29
   0  15   3 3501.95   88.19
   0  15  -3 3446.06   81.99
   0  15  -3 3477.85   80.49
   0  15   3 3406.86   85.79
  -1 -15  -3  116.99   11.60
   1 -15   3   96.29    8.90
  -1 -15  -3  102.29   11.00
  -1  15  -3  110.69    8.30
   1  15   3  106.19   11.20
  -1  15  -3  123.79   11.30
   1  15   3  106.79   11.10
  -2 -15  -3  741.13   31.60
  -2 -15  -3  690.13   28.90
   2 -15   3  709.53   26.90
   2  15   3  685.13   29.70
  -2  15  -3  714.23   25.30
   2  15   3  695.93   31.10
  -2  15  -3  659.93   30.00
   3 -15   3 2251.57   63.49
  -3 -15  -3 2255.87   66.69
  -3 -15  -3 2288.17   71.19
   3  15   3 2287.47   70.99
  -3  15  -3 2367.66   71.29
   3  15   3 2343.67   68.09
  -3  15  -3 2319.77   62.49
  -4 -15  -3  694.43   36.40
   4 -15   3  681.43   30.40
  -4 -15  -3  735.33   33.40
   4  15   3  643.74   34.90
  -4  15  -3  667.33   29.40
  -4  15  -3  671.23   36.20
   4  15   3  655.43   31.90
  -5 -15  -3 1618.34   58.19
  -5 -15  -3 1698.93   65.39
  -5  15  -3 1664.93   56.19
  -5  15  -3 1623.64   56.59
  -6 -15  -3  584.24   36.00
  -6 -15  -3  603.74   38.70
  -6  15  -3  581.94   32.90
  -6  15  -3  558.44   33.60
  -7 -15  -3  323.27   33.60
  -7  15  -3  285.37   26.60
  -7  15  -3  370.96   32.30
  -8 -15  -3   35.60   19.10
  -8  15  -3   12.60   20.90
  -8  15  -3   12.00   13.10
  -9 -15  -3  466.85   42.60
  -9  15  -3  417.96   35.60
 -10 -16   3   39.10   19.00
 -10 -16   3   44.50   15.40
 -10  16   3   66.99   16.50
 -10  16   3   76.09   21.20
 -10  16   3   63.99   24.80
  -9 -16   3  288.37   28.40
  -9 -16   3  245.18   21.20
  -9 -16   3  211.08   24.60
  -9  16   3  238.18   31.00
  -9  16   3  259.77   23.50
  -9  16   3  279.27   31.10
  -8 -16   3  633.64   29.40
  -8 -16   3  648.14   39.10
  -8  16   3  635.94   33.40
  -8  16   3  624.04   39.40
  -7 -16   3   65.49    9.80
  -7 -16   3   52.19   12.90
   7  16  -3   57.69   19.00
  -7  16   3   54.29   11.20
  -7  16   3   39.70   12.60
   6 -16  -3   65.79   12.40
  -6 -16   3   54.89   12.40
  -6 -16   3   44.30    7.70
   6  16  -3   47.00   14.80
  -6  16   3   42.50    9.30
  -6  16   3   34.10   10.40
  -5 -16   3  968.20   28.20
  -5 -16   3  908.31   38.50
   5 -16  -3  961.10   35.80
  -5  16   3  978.30   34.60
   5  16  -3  907.81   42.00
  -5  16   3  997.10   43.00
   4 -16  -3  465.65   21.40
  -4 -16   3  463.55   14.40
  -4 -16   3  501.35   25.00
   4  16  -3  490.75   26.30
  -4  16   3  456.85   26.80
  -4  16   3  459.55   20.70
   3 -16  -3  101.09   13.70
  -3 -16   3  103.39   10.40
  -3 -16   3   94.59    4.10
   3 -16  -3   95.49    9.10
   3  16  -3   89.19   12.10
  -3  16   3   95.69    8.80
  -3  16   3  118.39   15.40
   2 -16  -3 1963.00   56.79
  -2 -16   3 1885.01   52.39
   2 -16  -3 1925.91   48.90
  -2  16   3 1644.64   56.09
   2  16  -3 1875.61   52.39
  -2  16   3 1877.31   49.99
   2  16  -3 1844.52   41.60
  -1 -16   3 1066.89   33.60
   1 -16  -3 1134.89   39.00
   1 -16  -3 1079.89   33.10
  -1  16   3 1126.89   35.40
   1  16  -3 1095.69   33.80
  -1  16   3 1166.58   40.20
   1  16  -3 1092.29   30.10
   0 -16  -3 1218.28   39.50
   0 -16   3 1132.59   34.20
   0 -16  -3 1170.68   36.90
   0  16  -3 1196.98   35.40
   0  16   3 1155.58   38.30
   0  16   3 1160.88   40.00
   0  16  -3 1152.88   33.60
  -1 -16  -3 1473.15   46.70
  -1 -16  -3 1440.66   45.90
   1 -16   3 1497.65   42.30
  -1  16  -3 1563.94   46.50
  -1  16  -3 1490.95   40.30
   1  16   3 1517.45   48.00
   1  16   3 1493.85   47.40
  -2 -16  -3  860.41   33.70
   2 -16   3  859.21   30.60
  -2 -16  -3  871.71   35.90
  -2  16  -3  962.50   36.60
   2  16   3  905.21   36.60
  -2  16  -3  901.51   29.30
   2  16   3  919.51   35.10
  -3 -16  -3   13.60    7.80
   3 -16   3   -0.10    4.60
  -3 -16  -3   -1.50    6.40
   3  16   3   -4.20    4.60
   3  16   3    6.60    5.30
  -3  16  -3    3.20    4.60
  -3  16  -3   11.10    7.40
  -4 -16  -3 1072.09   47.00
  -4 -16  -3 1000.80   45.70
  -4 -16  -3 1031.50   41.40
   4 -16   3  950.80   37.70
   4  16   3 1043.10   41.80
  -4  16  -3 1054.09   38.20
  -4  16  -3 1061.29   46.40
   4  16   3 1070.69   45.60
  -5 -16  -3  233.98   21.90
  -5 -16  -3  215.28   24.00
  -5  16  -3  244.58   20.00
  -5  16  -3  226.38   19.80
  -6 -16  -3   -9.00   12.70
  -6 -16  -3    6.60   11.80
  -6  16  -3    6.40    8.40
  -6  16  -3   -4.50   10.50
  -7 -16  -3  111.29   22.50
  -7  16  -3  138.69   21.90
  -7  16  -3   75.49   15.80
  -8 -16  -3  186.58   29.20
  -8  16  -3  302.37   35.20
  -8  16  -3  321.77   29.10
  -9 -16  -3   45.60   20.70
  -9  16  -3   46.80   17.80
 -10 -17   3   33.80   16.90
 -10 -17   3   38.60   14.10
 -10 -17   3   35.20   26.00
 -10  17   3   49.80   15.30
 -10  17   3   56.29   18.60
 -10  17   3   38.80   25.70
  -9 -17   3   66.89   13.90
  -9 -17   3   81.39   18.10
  -9 -17   3   81.99   18.00
  -9  17   3   73.89   19.00
  -9  17   3   70.79   19.80
  -9  17   3   80.59   16.00
  -8 -17   3   10.50   10.10
  -8 -17   3   22.90    8.70
  -8 -17   3   10.10   10.80
  -8  17   3   11.10   11.70
  -8  17   3   13.10    9.00
  -7 -17   3  281.47   24.60
  -7 -17   3  256.57   16.80
  -7  17   3  274.27   20.00
   7  17  -3  265.37   29.20
  -7  17   3  264.77   24.30
  -6 -17   3  255.47   14.60
   6 -17  -3  263.67   21.10
  -6 -17   3  301.97   23.10
   6  17  -3  263.37   25.60
  -6  17   3  298.37   18.70
  -6  17   3  296.97   23.90
   5 -17  -3   73.19   11.30
  -5 -17   3   74.69   12.30
  -5 -17   3   82.19    7.10
   5  17  -3   64.09   13.90
  -5  17   3   53.29   12.00
  -5  17   3   56.79    8.90
   4 -17  -3  792.52   29.30
  -4 -17   3  884.01   35.00
  -4 -17   3  822.12   20.20
   4  17  -3  825.22   35.90
  -4  17   3  768.62   28.40
  -4  17   3  786.52   36.80
  -3 -17   3  869.41   33.20
   3 -17  -3  874.61   36.00
   3 -17  -3  857.91   29.20
   3  17  -3  877.01   34.20
  -3  17   3  909.41   38.30
  -3  17   3  966.70   30.20
  -2 -17   3   18.30    5.20
   2 -17  -3   27.30    7.50
   2 -17  -3   16.20    4.50
   2  17  -3   21.30    5.80
  -2  17   3   25.10    5.90
   2  17  -3   15.70    2.50
  -2  17   3   26.80    7.40
  -1 -17   3   87.79    8.30
   1 -17  -3   80.79   11.20
   1 -17  -3   79.59    7.90
   1  17  -3   59.59    6.10
   1  17  -3   83.79    7.90
  -1  17   3   64.39    8.80
  -1  17   3   66.69   10.10
   0 -17  -3 1065.49   35.10
   0 -17  -3 1172.18   38.60
   0 -17   3 1121.79   33.00
   0  17  -3 1106.59   32.30
   0  17  -3 1110.59   33.80
   0  17   3 1146.49   39.30
   0  17   3  930.81   35.00
  -1 -17  -3  267.07   16.90
  -1 -17  -3  252.77   16.70
   1 -17   3  233.78   13.40
  -1  17  -3  258.07   16.40
   1  17   3  227.88   16.20
   1  17   3  290.37   17.70
  -1  17  -3  272.47   12.90
  -2 -17  -3  -10.90    5.40
   2 -17   3    4.70    4.20
  -2 -17  -3    0.00    5.10
  -2  17  -3   12.60    7.00
   2  17   3    0.80    4.70
   2  17   3    1.70    5.00
  -2  17  -3    4.70    3.70
  -3 -17  -3  103.69   11.80
  -3 -17  -3   81.59   14.10
   3 -17   3   67.39    9.80
  -3  17  -3   82.89   13.80
   3  17   3   91.39   12.70
   3  17   3   54.69   11.00
  -3  17  -3   69.49    9.60
  -4 -17  -3   -0.50    8.90
  -4 -17  -3    1.70    7.70
  -4 -17  -3    7.90    7.40
   4 -17   3    2.90    6.10
  -4  17  -3   -2.30    9.40
  -4  17  -3    9.90    6.30
   4  17   3    8.60    8.00
  -4  17  -3   11.80    6.80
   4  17   3    5.50    7.30
  -5 -17  -3    5.60   10.20
  -5 -17  -3    8.20    9.70
  -5  17  -3    0.00    6.80
  -5  17  -3   21.80    9.20
  -6 -17  -3  327.27   29.90
  -6 -17  -3  320.57   28.40
  -6  17  -3  277.17   24.20
  -6  17  -3  320.37   24.70
  -7 -17  -3   31.20   14.70
  -7  17  -3    8.00   14.40
  -7  17  -3   23.90   11.80
  -8 -17  -3    8.50   15.20
  -8  17  -3   25.50   20.60
  -8  17  -3    0.30   12.90
  -9 -17  -3  146.29   30.90
  -9  17  -3  105.89   21.10
 -10 -18   3   24.70   15.90
 -10 -18   3    8.00   12.60
 -10 -18   3   23.80   22.60
 -10  18   3   23.70   12.60
 -10  18   3    3.80   17.10
 -10  18   3   14.30   24.60
  -9 -18   3  255.57   25.30
  -9 -18   3  265.77   21.40
  -9 -18   3  263.47   27.70
  -9  18   3  298.37   24.50
  -9  18   3  183.58   26.90
  -9  18   3  242.48   29.20
  -8 -18   3  856.21   34.10
  -8 -18   3  806.72   43.60
  -8 -18   3  816.92   35.70
  -8  18   3  865.71   38.50
  -8  18   3  885.31   47.20
  -7 -18   3  146.49   20.20
  -7 -18   3  180.48   13.70
  -7 -18   3  172.18   15.60
  -7  18   3  191.48   21.40
   7  18  -3  175.78   26.00
  -7  18   3  194.28   17.30
  -6 -18   3  402.56   18.10
  -6 -18   3  406.66   26.20
   6 -18  -3  383.46   24.20
  -6 -18   3  404.26   17.70
  -6  18   3  399.86   22.00
  -6  18   3  377.86   27.40
   6  18  -3  376.06   29.80
   5 -18  -3 1876.41   55.19
  -5 -18   3 1791.62   44.20
  -5 -18   3 1835.12   44.00
  -5 -18   3 1848.72   60.49
  -5  18   3 1758.52   52.39
  -5  18   3 1903.91   65.29
   5  18  -3 1872.51   64.99
  -4 -18   3  727.43   31.60
   4 -18  -3  694.73   26.80
  -4  18   3  704.63   34.90
   4  18  -3  695.73   32.90
  -4  18   3  690.93   26.10
  -3 -18   3  646.24   27.60
   3 -18  -3  636.64   23.60
   3 -18  -3  647.74   30.20
  -3  18   3  538.95   22.30
   3  18  -3  627.64   27.90
  -3  18   3  697.53   32.70
  -2 -18   3 3183.58   80.19
   2 -18  -3 3345.37   86.59
   2 -18  -3 3306.57   76.29
  -2  18   3 3302.27   77.99
  -2  18   3 3296.37   88.59
   2  18  -3 3260.37   80.79
   2  18  -3 2858.11   66.69
  -1 -18   3 1181.38   35.70
   1 -18  -3 1173.38   40.70
   1 -18  -3 1206.48   35.30
   1  18  -3 1202.08   32.00
  -1  18   3 1168.88   41.90
  -1  18   3 1205.88   37.20
   1  18  -3 1174.28   35.60
   0 -18   3    5.30    3.20
   0 -18  -3    9.70    5.90
   0 -18  -3    7.60    4.60
   0  18  -3    8.10    3.40
   0  18   3    0.40    4.10
   0  18  -3    6.90    4.40
   0  18   3   14.70    5.10
  -1 -18  -3 2814.12   75.49
  -1 -18  -3 2901.41   75.59
   1 -18   3 2763.32   69.29
   1  18   3 2899.01   77.19
  -1  18  -3 2841.32   67.29
   1  18   3 2771.22   76.19
  -1  18  -3 2891.61   74.69
  -2 -18  -3 1555.94   51.79
   2 -18   3 1530.45   44.50
  -2 -18  -3 1529.85   49.00
   2  18   3 1605.24   52.69
  -2  18  -3 1665.43   52.39
  -2  18  -3 1619.64   42.60
   2  18   3 1264.37   47.10
  -3 -18  -3    9.40    8.00
  -3 -18  -3   15.80    8.10
   3 -18   3    5.50    4.90
   3  18   3    7.10    5.70
  -3  18  -3   13.70    5.40
   3  18   3   17.30    7.90
  -3  18  -3    3.10    8.40
  -4 -18  -3 1725.63   63.49
   4 -18   3 1720.73   52.99
  -4 -18  -3 1781.52   57.79
  -4 -18  -3 1627.74   61.99
  -4  18  -3 1662.13   51.49
   4  18   3 1644.84   56.59
  -4  18  -3 1708.53   53.89
  -4  18  -3 1676.73   61.49
  -5 -18  -3 1459.25   60.59
  -5 -18  -3 1490.45   55.09
  -5  18  -3 1505.45   52.29
  -5  18  -3 1540.35   51.79
  -6 -18  -3   -6.80   12.80
  -6 -18  -3  -12.10   11.10
  -6  18  -3    1.40    8.10
  -6  18  -3   10.30   10.20
  -7 -18  -3  616.64   42.90
  -7  18  -3  608.74   34.80
  -7  18  -3  610.94   37.70
  -8 -18  -3  540.15   44.00
  -8  18  -3  492.55   35.00
  -8  18  -3  478.65   41.00
  -9 -18  -3   33.60   20.70
  -9  18  -3   -4.10   14.00
 -10 -19   3  112.59   18.20
 -10 -19   3   98.49   24.30
 -10 -19   3   99.89   23.90
 -10  19   3  140.09   27.40
 -10  19   3  115.49   19.40
  -9 -19   3   70.79   13.80
  -9 -19   3   63.99   18.10
  -9 -19   3   73.89   17.60
  -9  19   3   90.69   16.10
  -9  19   3   50.49   16.90
  -9  19   3   82.59   20.60
  -8 -19   3   18.90    8.30
  -8 -19   3   30.80   12.70
  -8 -19   3   29.40   11.30
  -8  19   3    5.70   11.30
  -8  19   3   24.30    9.60
  -7 -19   3  265.37   24.70
  -7 -19   3  270.57   16.30
  -7 -19   3  294.27   18.00
   7  19  -3  340.67   34.30
  -7  19   3  288.57   20.00
  -7  19   3  295.07   26.30
  -6 -19   3  216.58   20.50
   6 -19  -3  182.58   18.60
  -6 -19   3  220.78   12.20
  -6 -19   3  200.38   12.50
   6  19  -3  214.58   26.90
  -6  19   3  227.48   16.70
  -6  19   3  206.68   21.40
  -5 -19   3   14.60    3.30
  -5 -19   3   19.90    8.20
   5 -19  -3   24.40    8.40
  -5 -19   3   13.10    3.60
  -5  19   3   21.20   10.20
  -5  19   3   19.50    5.90
   5  19  -3   42.20   12.20
  -4 -19   3   95.79   13.20
   4 -19  -3  107.49   10.40
  -4  19   3  114.79   10.20
  -4  19   3   88.29   14.70
   4  19  -3   94.59   15.00
   3 -19  -3  368.56   23.40
   3 -19  -3  382.06   17.60
  -3 -19   3  418.46   21.70
  -3  19   3  400.56   24.50
   3  19  -3  405.66   22.00
  -3  19   3  400.46   17.90
   2 -19  -3    4.30    6.80
  -2 -19   3    6.20    4.40
   2 -19  -3   16.80    4.50
  -2  19   3   18.10    7.20
   2  19  -3   14.50    5.40
  -2  19   3   10.00    4.50
   1 -19  -3 1379.96   45.20
   1 -19  -3 1406.26   39.10
  -1 -19   3 1318.97   39.10
  -1  19   3 1285.37   45.90
   1  19  -3 1385.06   35.50
  -1  19   3 1356.86   40.90
   1  19  -3 1362.36   39.50
   0 -19   3 1089.29   32.90
   0 -19  -3 1120.79   38.90
   0 -19  -3 1093.19   35.90
   0  19   3 1130.09   40.20
   0  19   3 1160.78   37.90
   0  19  -3 1107.69   32.50
   0  19  -3 1096.59   34.30
  -1 -19  -3   49.60    9.00
   1 -19   3   45.20    6.90
  -1 -19  -3   37.80    8.30
   1  19   3   36.60    8.20
   1  19   3   48.10    9.10
  -1  19  -3   45.80    8.90
  -1  19  -3   46.10    6.20
  -2 -19  -3  537.75   25.70
   2 -19   3  521.65   21.80
  -2 -19  -3  504.35   27.10
   2  19   3  511.95   27.20
  -2  19  -3  535.65   20.20
   2  19   3  586.34   27.10
  -2  19  -3  528.35   26.90
  -3 -19  -3  389.56   25.20
  -3 -19  -3  428.86   23.60
   3 -19   3  405.96   20.20
   3  19   3  404.26   23.40
   3  19   3  381.16   25.00
  -3  19  -3  414.06   19.20
  -3  19  -3  448.96   27.40
   4 -19   3  112.19   12.80
  -4 -19  -3  139.29   16.00
  -4 -19  -3  123.19   18.70
  -4  19  -3  100.39   13.00
  -4  19  -3  106.09   12.30
  -4  19  -3  117.19   18.70
   4  19   3   95.59   14.40
  -5 -19  -3  -12.10    9.70
  -5 -19  -3    1.50    8.50
  -5  19  -3    1.80    7.60
  -5  19  -3    4.40    6.80
  -6 -19  -3  389.86   29.10
  -6 -19  -3  288.07   30.00
  -6  19  -3  336.77   25.40
  -6  19  -3  340.17   24.40
  -7 -19  -3   41.00   18.10
  -7  19  -3   29.70   15.60
  -7  19  -3   37.90   13.00
  -8 -19  -3   40.60   20.10
  -8  19  -3   13.80   20.00
  -8  19  -3   55.29   16.10
 -10 -20   3   -5.50   25.20
 -10 -20   3   -6.30   12.40
 -10 -20   3    3.70   15.90
 -10  20   3   13.00   12.70
 -10  20   3   26.90   20.40
  -9 -20   3   86.99   17.60
  -9 -20   3   79.39   14.30
  -9 -20   3   93.09   21.30
  -9  20   3   66.29   19.10
  -9  20   3   49.00   18.00
  -9  20   3   89.29   15.90
  -8 -20   3  252.27   25.20
  -8 -20   3  276.87   18.40
  -8 -20   3  262.17   20.10
  -8  20   3  284.97   22.10
  -8  20   3  233.38   26.00
  -7 -20   3   19.90   10.30
  -7 -20   3   21.70    7.90
  -7 -20   3    9.90    6.10
  -7  20   3   12.00    7.70
   7  20  -3    6.80   15.10
  -7  20   3   14.40   10.50
  -6 -20   3  237.58   21.00
  -6 -20   3  243.28   12.70
  -6 -20   3  245.48   12.10
   6 -20  -3  232.68   19.80
  -6  20   3  241.28   22.70
  -6  20   3  247.88   17.20
   6  20  -3  239.78   26.60
  -5 -20   3  999.90   40.90
   5 -20  -3  944.41   35.30
   5  20  -3 1008.30   44.90
  -5  20   3  989.70   44.90
  -5  20   3  979.70   33.80
  -4 -20   3  176.38   15.20
   4 -20  -3  166.68   12.90
  -4  20   3  166.58   17.80
   4  20  -3  199.18   17.30
  -4  20   3  184.58   12.40
   3 -20  -3  616.14   30.60
   3 -20  -3  662.23   23.90
  -3 -20   3  659.53   28.30
   3  20  -3  692.73   29.70
  -3  20   3  623.94   23.50
  -3  20   3  645.34   32.40
  -2 -20   3 1331.07   41.40
   2 -20  -3 1294.27   37.10
   2 -20  -3 1301.97   46.10
  -2  20   3 1375.66   39.30
   2  20  -3 1307.17   41.40
  -2  20   3 1325.57   48.20
   1 -20  -3  434.66   18.50
  -1 -20   3  483.55   19.50
   1 -20  -3  436.06   22.90
   1  20  -3  437.46   16.00
   1  20  -3  442.76   19.00
  -1  20   3  471.35   25.20
  -1  20   3  426.86   19.90
   0 -20  -3   20.80    6.30
   0 -20  -3    6.40    4.60
   0 -20   3    9.70    3.60
   0  20  -3    2.30    4.30
   0  20   3   -0.40    4.20
   0  20   3   14.90    6.20
   0  20  -3   15.50    4.20
   1 -20   3  833.62   28.40
  -1 -20  -3  888.21   34.10
  -1 -20  -3  935.61   34.70
  -1  20  -3  889.21   33.30
   1  20   3  987.90   36.10
  -1  20  -3  922.61   27.60
   1  20   3  960.40   35.90
  -2 -20  -3  692.93   32.00
   2 -20   3  735.23   26.20
  -2 -20  -3  762.52   31.00
   2  20   3  739.93   33.20
  -2  20  -3  685.83   23.60
  -2  20  -3  695.13   31.80
   2  20   3  712.53   31.10
   3 -20   3   21.70    6.70
  -3 -20  -3   18.90   10.60
  -3 -20  -3   36.20    9.30
   3  20   3   17.60    7.80
   3  20   3   28.40    8.20
  -3  20  -3   19.70    9.50
  -3  20  -3   33.00    6.60
  -4 -20  -3  296.47   24.60
  -4 -20  -3  253.57   21.60
   4 -20   3  239.08   17.20
  -4  20  -3  265.07   18.10
  -4  20  -3  260.17   23.50
  -4  20  -3  274.57   17.20
   4  20   3  281.67   20.60
  -5 -20  -3  228.58   21.60
  -5 -20  -3  202.28   23.70
  -5  20  -3  182.48   17.40
  -5  20  -3  170.58   17.00
  -6 -20  -3   66.89   18.00
  -6 -20  -3   37.50   15.50
  -6  20  -3   37.80   11.20
  -6  20  -3   41.20   12.60
  -7 -20  -3  170.38   28.20
  -7  20  -3  147.39   20.40
  -7  20  -3  156.58   21.90
  -8 -20  -3  262.67   33.80
  -8  20  -3  195.08   24.20
  -8  20  -3  263.27   31.20
 -10 -21   3  329.47   25.80
 -10 -21   3  268.57   35.10
 -10  21   3  326.97   40.00
 -10  21   3  348.57   29.90
  -9 -21   3  343.67   31.30
  -9 -21   3  349.07   27.00
  -9 -21   3  352.66   22.50
  -9  21   3  283.07   30.80
  -9  21   3  326.17   26.20
  -9  21   3  345.17   33.20
  -8 -21   3   12.80   12.40
  -8 -21   3   12.60   10.60
  -8 -21   3    2.30    7.20
  -8  21   3    7.60    8.10
  -8  21   3   -3.80   10.40
  -7 -21   3 1025.90   48.10
  -7 -21   3 1003.80   32.20
  -7 -21   3  993.60   33.20
   7  21  -3 1039.40   55.49
  -7  21   3 1049.49   39.60
  -7  21   3 1031.50   51.19
  -6 -21   3  841.02   24.50
  -6 -21   3  863.81   24.40
   6 -21  -3  846.92   36.10
  -6 -21   3  834.72   39.60
   6  21  -3  803.72   44.00
  -6  21   3  877.71   33.10
  -6  21   3  818.12   43.70
  -5 -21   3   37.70   10.40
   5 -21  -3   37.90    8.40
  -5  21   3   29.10   11.10
  -5  21   3   24.30    6.20
   5  21  -3   16.40    9.50
   4 -21  -3 1674.13   48.10
  -4 -21   3 1787.52   56.29
   4  21  -3 1646.54   57.49
  -4  21   3 1745.13   62.69
  -4  21   3 1776.62   48.30
   3 -21  -3 1708.43   57.19
  -3 -21   3 1708.73   52.49
   3 -21  -3 1691.73   46.30
  -3  21   3 1693.43   46.50
  -3  21   3 1700.63   59.29
   3  21  -3 1760.72   54.19
   2 -21  -3   37.20    9.20
  -2 -21   3   27.60    6.50
   2 -21  -3   47.00    6.80
  -2  21   3   26.50    5.60
   2  21  -3   34.40    7.40
  -2  21   3   48.00   10.90
  -1 -21   3 1156.68   35.50
   1 -21  -3 1183.28   42.00
   1 -21  -3 1187.18   35.30
  -1  21   3 1208.78   37.60
  -1  21   3 1195.68   43.70
   1  21  -3 1222.08   36.20
   1  21  -3 1176.88   31.80
   0 -21  -3 2288.47   65.49
   0 -21   3 2423.66   58.19
   0 -21  -3 2283.47   61.59
   0  21  -3 2247.78   59.39
   0  21   3 2296.67   66.79
   0  21  -3 2275.57   56.69
   0  21   3 2310.47   63.19
  -1 -21  -3   96.39   12.80
  -1 -21  -3  126.49   13.20
  -1  21  -3  116.09   11.90
  -1  21  -3  101.09    7.90
   1  21   3   81.49   11.60
   1  21   3   79.89   11.20
  -2 -21  -3  763.72   31.80
  -2 -21  -3  804.62   34.70
  -2  21  -3  742.53   24.40
   2  21   3  781.82   34.10
  -2  21  -3  756.32   33.40
   2  21   3  755.12   32.40
  -3 -21  -3 1642.74   53.09
  -3 -21  -3 1593.34   57.69
   3 -21   3 1580.64   47.00
   3  21   3 1641.94   57.39
   3  21   3 1601.44   53.49
  -3  21  -3 1729.13   58.59
  -3  21  -3 1567.64   44.70
  -4 -21  -3  262.77   20.50
  -4 -21  -3  216.58   22.40
   4  21   3  249.97   19.70
  -4  21  -3  249.48   16.30
  -4  21  -3  254.57   25.00
  -4  21  -3  227.98   16.50
  -5 -21  -3  439.96   28.50
  -5 -21  -3  409.66   32.10
  -5  21  -3  448.46   24.90
  -5  21  -3  426.86   24.20
  -6 -21  -3 1330.57   61.49
  -6 -21  -3 1287.77   54.19
  -6  21  -3 1390.16   50.29
  -6  21  -3 1345.47   50.39
  -7 -21  -3  243.58   32.60
  -7  21  -3  221.78   25.90
  -7  21  -3  248.48   24.00
  -8 -21  -3   96.49   24.00
  -8  21  -3   90.49   17.10
  -8  21  -3   51.69   22.70
 -10 -22   3  -13.40   12.30
 -10 -22   3    7.60   17.40
 -10  22   3  -11.20   19.40
 -10  22   3    0.00   12.60
  -9 -22   3   52.79   18.50
  -9 -22   3   14.10   10.10
  -9 -22   3   24.60   14.70
  -9  22   3   12.00   16.40
  -9  22   3   37.60   12.70
  -9  22   3   -4.50   17.20
  -8 -22   3   43.10   11.30
  -8 -22   3   39.80    9.10
  -8 -22   3   41.30   15.70
  -8  22   3   31.30   15.00
  -8  22   3   31.10   10.00
  -8  22   3   38.40   15.00
  -7 -22   3   21.90    6.10
  -7 -22   3   28.20   12.10
  -7 -22   3   27.50    7.10
  -7  22   3   17.40   11.10
  -7  22   3   22.20    8.00
   7  22  -3   60.19   20.70
   6 -22  -3   37.70   10.30
  -6 -22   3   31.10   11.40
  -6 -22   3   25.60    4.30
  -6 -22   3   29.60    4.00
  -6  22   3   46.50    8.70
   6  22  -3   19.80   13.60
  -6  22   3   24.70   11.10
   5 -22  -3   17.70    7.20
  -5 -22   3    7.30    7.20
  -5  22   3    9.80    5.00
   5  22  -3   11.50   10.10
  -5  22   3    7.10    8.00
  -4 -22   3   89.39   13.40
   4 -22  -3   94.29   10.40
  -4  22   3  104.29    9.90
  -4  22   3   98.29   16.10
   4  22  -3  105.99   16.00
  -3 -22   3   60.39   10.50
   3 -22  -3   61.09   12.80
   3 -22  -3   76.19    8.30
  -3  22   3   66.89    8.30
  -3  22   3   54.99   11.40
   3  22  -3   67.89   11.10
  -2 -22   3   86.19    9.50
   2 -22  -3   93.39    8.60
   2 -22  -3   83.89   12.50
   2  22  -3   86.09   10.20
  -2  22   3  110.69   16.00
  -2  22   3   89.49    8.60
   1 -22  -3  147.29   10.70
   1 -22  -3  131.69   13.80
  -1 -22   3  150.68   10.80
  -1  22   3  132.59   14.40
  -1  22   3  150.98   11.50
   1  22  -3  136.39   10.50
   1  22  -3  147.09    8.80
   0 -22  -3   57.79   10.40
   0 -22  -3   54.09    8.80
   0  22   3   36.00    8.60
   0  22   3   67.99    9.70
   0  22  -3   50.29    6.70
   0  22  -3   62.29    8.50
  -1 -22  -3  343.37   20.50
  -1 -22  -3  350.46   20.90
   1  22   3  341.87   20.20
  -1  22  -3  354.46   14.70
   1  22   3  352.36   21.00
  -1  22  -3  385.26   20.70
  -2 -22  -3    1.40    6.00
  -2 -22  -3    3.90    6.60
  -2  22  -3   19.10    8.40
   2  22   3    6.60    6.20
  -2  22  -3   12.00    3.70
   2  22   3   16.60    6.90
  -3 -22  -3   15.80    8.70
   3 -22   3   38.90    7.40
  -3 -22  -3   19.20   10.70
  -3  22  -3   24.10    9.80
  -3  22  -3   21.80    5.50
   3  22   3   14.80    8.20
   3  22   3   28.30    8.40
  -4 -22  -3   69.19   14.00
  -4 -22  -3   61.79   15.30
   4  22   3   92.59   14.30
  -4  22  -3   81.59   10.70
  -4  22  -3   85.19   16.60
  -4  22  -3   77.69   11.00
  -5 -22  -3  110.19   19.90
  -5 -22  -3  125.29   18.10
  -5  22  -3  137.49   15.40
  -5  22  -3  137.69   14.90
  -6 -22  -3  -23.60   12.90
  -6 -22  -3    8.00   12.90
  -6  22  -3   13.10    9.30
  -6  22  -3    5.40    9.90
  -7 -22  -3   34.60   19.30
  -7  22  -3   34.00   12.50
  -7  22  -3   36.50   15.10
  -8 -22  -3    8.90   17.30
  -8  22  -3   12.10   12.20
 -10 -23   3  197.08   21.60
 -10 -23   3  181.38   31.60
 -10  23   3  172.28   23.10
 -10  23   3  128.69   28.30
  -9 -23   3  141.69   16.10
  -9 -23   3   65.49   20.90
  -9 -23   3  105.39   17.40
  -9  23   3  134.19   24.70
  -9  23   3   63.29   19.50
  -9  23   3   95.99   15.90
  -8 -23   3   27.20   13.30
  -8 -23   3   30.50    8.40
  -8 -23   3   12.40    9.40
  -8  23   3   33.40   16.50
  -8  23   3   25.90   10.10
  -8  23   3   36.70   14.50
  -7 -23   3  505.85   19.20
  -7 -23   3  505.25   32.80
  -7 -23   3  477.15   18.10
  -7  23   3  510.55   35.50
   7  23  -3  484.35   39.00
  -7  23   3  485.55   25.50
  -6 -23   3  513.05   31.40
   6 -23  -3  525.25   27.80
  -6  23   3  462.15   23.10
   6  23  -3  513.05   35.50
  -6  23   3  470.75   32.90
  -5 -23   3   11.00    8.20
   5 -23  -3   -2.30    6.40
  -5  23   3   12.00    4.80
  -5  23   3    6.80    8.60
   5  23  -3  -23.90    9.40
  -4 -23   3 1322.47   47.10
   4 -23  -3 1325.17   39.60
  -4  23   3 1277.27   38.50
   4  23  -3 1358.96   50.09
  -4  23   3 1322.17   53.49
   3 -23  -3 1577.14   43.40
  -3 -23   3 1613.94   50.49
   3 -23  -3 1605.24   55.09
  -3  23   3 1621.84   44.20
   3  23  -3 1599.24   51.89
  -3  23   3 1535.25   56.99
   2 -23  -3   57.49    7.50
   2 -23  -3   69.19   11.50
  -2 -23   3   70.39    9.50
  -2  23   3   79.69   13.30
  -2  23   3   74.59    8.30
   2  23  -3   72.99   10.10
   1 -23  -3  310.47   15.60
  -1 -23   3  306.77   15.60
   1 -23  -3  332.67   20.60
   1  23  -3  327.77   13.20
   1  23  -3  320.47   15.90
  -1  23   3  272.27   15.80
  -1  23   3  314.07   20.80
   0 -23  -3 1224.78   42.90
   0 -23  -3 1194.08   38.50
   0  23  -3 1189.68   36.90
   0  23   3 1208.98   40.00
   0  23  -3 1212.28   34.00
   0  23   3 1180.68   43.30
  -1 -23  -3   70.49   11.20
  -1 -23  -3   66.29   11.00
   1  23   3   55.49   10.60
  -1  23  -3   67.39   10.70
  -1  23  -3   68.89    6.60
   1  23   3   61.89   10.50
  -2 -23  -3  174.78   15.40
  -2 -23  -3  176.88   17.90
   2  23   3  158.58   15.00
  -2  23  -3  202.88   17.60
   2  23   3  161.08   15.80
  -2  23  -3  177.78   10.20
  -3 -23  -3  565.74   27.70
  -3 -23  -3  480.55   30.50
  -3 -23  -3  540.85   31.40
  -3  23  -3  513.65   30.70
   3  23   3  529.45   27.60
  -3  23  -3  546.95   20.70
  -3  23  -3  546.45   22.50
  -4 -23  -3  146.89   20.40
  -4 -23  -3  145.59   17.20
   4  23   3  135.29   15.40
  -4  23  -3  109.59   18.20
  -4  23  -3  135.39   12.20
  -4  23  -3  121.99   12.60
  -5 -23  -3  252.27   22.90
  -5 -23  -3  309.87   28.90
  -5  23  -3  282.97   19.80
  -5  23  -3  259.07   18.90
  -6 -23  -3  568.64   36.20
  -6 -23  -3  624.54   42.30
  -6  23  -3  573.34   30.60
  -6  23  -3  544.45   29.30
  -7 -23  -3  247.18   33.00
  -7  23  -3  226.68   22.70
  -7  23  -3  228.88   25.90
  -8 -23  -3   23.80   19.10
  -8  23  -3   21.70   13.00
  -9 -24   3  150.58   25.50
  -9 -24   3  169.38   17.30
  -9  24   3  187.98   25.10
  -9  24   3  178.08   21.10
  -9  24   3  169.68   29.50
  -8 -24   3  708.63   27.10
  -8 -24   3  692.63   25.90
  -8 -24   3  709.63   43.00
  -8  24   3  645.64   36.60
  -8  24   3  706.63   45.10
  -8  24   3  753.42   33.80
  -7 -24   3   51.39    6.10
  -7 -24   3   47.70    5.90
  -7 -24   3   76.79   16.30
  -7  24   3   52.59   10.10
  -7  24   3   31.70   13.50
   7  24  -3   67.19   21.90
   6 -24  -3  453.65   26.20
  -6 -24   3  514.25   31.60
   6  24  -3  565.74   36.80
  -6  24   3  550.04   35.40
  -6  24   3  511.65   23.80
  -5 -24   3 1562.54   54.89
   5 -24  -3 1411.06   45.50
   5  24  -3 1455.45   57.79
  -5  24   3 1507.65   43.70
  -5  24   3 1459.75   59.49
  -4 -24   3   66.09   11.80
   4 -24  -3   48.50    8.10
  -4  24   3   50.19   13.70
   4  24  -3   37.90   10.80
  -4  24   3   61.69    8.00
   3 -24  -3  785.02   26.60
  -3 -24   3  813.52   32.80
   3 -24  -3  863.11   38.30
  -3  24   3  784.82   38.60
  -3  24   3  818.82   27.20
   3  24  -3  836.92   34.50
   2 -24  -3 1676.33   55.69
   2 -24  -3 1715.03   44.70
  -2 -24   3 1727.43   49.70
   2  24  -3 1639.64   49.70
  -2  24   3 1730.03   46.60
  -2  24   3 1581.64   57.49
   1 -24  -3  441.96   18.50
   1 -24  -3  392.26   23.40
  -1 -24   3  427.06   18.70
   1  24  -3  397.26   18.30
  -1  24   3  417.26   24.90
   1  24  -3  427.16   15.60
  -1  24   3  415.06   19.50
   1  24  -3  413.16   15.20
   0 -24  -3  482.95   24.80
   0 -24  -3  472.35   21.50
   0  24  -3  445.16   17.50
   0  24   3  454.35   22.00
   0  24  -3  434.36   19.70
   0  24   3  459.55   25.10
   1 -24   3 1623.34   43.20
  -1 -24  -3 1598.84   51.39
  -1 -24  -3 1626.74   51.19
   1  24   3 1634.44   51.99
  -1  24  -3 1620.74   50.49
  -1  24  -3 1596.64   41.00
   1  24   3 1651.33   52.99
   2 -24   3  680.93   23.90
  -2 -24  -3  683.93   30.60
  -2 -24  -3  629.64   31.80
  -2  24  -3  717.33   33.00
   2  24   3  669.83   30.60
  -2  24  -3  687.53   21.70
   2  24   3  662.93   31.60
  -3 -24  -3   41.20   10.60
  -3 -24  -3   43.30   11.90
  -3  24  -3   64.99    8.40
  -3  24  -3   49.90   13.70
  -3  24  -3   43.30    6.70
   3  24   3   31.80    9.50
  -4 -24  -3  922.21   44.60
  -4 -24  -3  912.31   38.20
   4  24   3  865.31   38.20
  -4  24  -3  842.72   30.10
  -4  24  -3  893.41   52.09
  -4  24  -3  859.41   31.60
  -5 -24  -3  522.45   35.40
  -5 -24  -3  514.85   30.70
  -5  24  -3  523.75   25.50
  -5  24  -3  528.15   25.90
  -6 -24  -3    3.00   14.10
  -6 -24  -3   18.20   15.60
  -6  24  -3   -4.80    8.40
  -6  24  -3    5.50    9.80
  -7 -24  -3  338.17   34.00
  -7  24  -3  311.77   27.90
  -7  24  -3  384.76   26.40
  -8 -24  -3  351.86   41.20
  -8  24  -3  394.06   29.10
  -9 -25   3   18.60   12.10
  -9 -25   3    9.20    9.30
  -9 -25   3   26.60   17.40
  -9  25   3   24.40   17.90
  -9  25   3    2.10   15.70
  -9  25   3    1.10   10.30
  -8 -25   3   11.20    7.50
  -8 -25   3    9.30   13.60
  -8 -25   3   17.10    6.60
  -8  25   3   -4.90   12.90
  -8  25   3   -8.20   13.30
  -8  25   3    2.80    8.60
  -7 -25   3   -1.20   11.40
  -7  25   3   12.90   12.40
   7  25  -3    3.70   20.10
  -7  25   3   -5.40    6.70
   6 -25  -3   20.30   10.50
  -6 -25   3   25.70   10.20
   6  25  -3   18.40   14.50
  -6  25   3   28.90    7.60
  -6  25   3   32.70   12.30
   5 -25  -3   11.40    7.30
  -5 -25   3    3.60    7.70
   5  25  -3   -1.70   10.90
  -5  25   3   -4.40    8.60
  -5  25   3    6.30    4.90
   4 -25  -3  100.39   10.40
  -4 -25   3  116.19   15.40
  -4  25   3  124.39   18.70
   4  25  -3   81.59   14.80
  -4  25   3  101.89    9.50
   3 -25  -3   -0.50    4.40
  -3 -25   3   16.40    6.50
   3 -25  -3    2.50    7.60
  -3  25   3    6.60    8.70
   3  25  -3    2.40    6.60
  -3  25   3    3.50    4.00
   2 -25  -3   11.40    4.70
   2 -25  -3   11.30    8.90
  -2 -25   3   11.50    6.00
  -2  25   3   20.30    5.50
  -2  25   3   23.30   10.20
   2  25  -3   15.50    6.50
   1 -25  -3   17.40    5.20
   1 -25  -3   18.00    7.60
  -1 -25   3    1.80    3.90
  -1  25   3    2.50    6.30
   1  25  -3    4.70    3.30
   1  25  -3    2.10    3.40
  -1  25   3    9.70    4.60
   1  25  -3    6.00    4.00
   0 -25  -3    0.90    6.50
   0 -25  -3    2.70    5.10
   0  25   3   -2.70    4.50
   0  25   3    6.40    6.00
   0  25  -3    0.80    3.40
   0  25  -3   -0.30    4.90
   1 -25   3    0.00    3.80
  -1 -25  -3    7.10    6.70
  -1 -25  -3    2.60    6.60
  -1  25  -3    5.30    3.30
   1  25   3   -3.90    5.20
   1  25   3   -7.40    5.20
  -1  25  -3  -10.10    6.10
  -2 -25  -3   -0.90    7.00
   2 -25   3    0.20    3.90
  -2 -25  -3   -5.80    8.00
   2  25   3   -2.50    5.70
  -2  25  -3    5.80    8.00
   2  25   3    4.30    6.30
  -2  25  -3    1.80    3.20
  -3 -25  -3   86.79   13.80
  -3 -25  -3   64.29   12.90
   3 -25   3   69.49    8.90
  -3  25  -3   65.59    7.60
   3  25   3   64.79   12.10
  -3  25  -3   65.19    8.40
  -3  25  -3   71.99   15.40
  -4 -25  -3   11.00   10.70
  -4 -25  -3    0.00    9.60
   4  25   3    0.30    7.90
  -4  25  -3    8.40    5.40
  -4  25  -3    4.30    5.40
  -5 -25  -3   -2.20   11.30
  -5 -25  -3   -0.30   12.30
  -5  25  -3   -1.80    6.60
  -5  25  -3    9.60    7.40
  -6 -25  -3    2.90   12.70
  -6 -25  -3   10.20   15.00
  -6  25  -3    3.40    8.30
  -6  25  -3    8.60    9.50
  -7 -25  -3    4.40   14.30
  -7  25  -3   11.30   10.00
  -7  25  -3    2.60   14.30
  -8 -25  -3   17.40   20.50
  -8  25  -3    1.30   11.80
  -9 -26   3  284.97   33.30
  -9  26   3  237.58   33.40
  -9  26   3  216.78   21.80
  -8 -26   3  410.76   33.90
  -8 -26   3  370.36   14.90
  -8 -26   3  436.96   15.20
  -8  26   3  417.96   24.70
  -8  26   3  420.36   29.50
  -8  26   3  428.56   36.70
  -7 -26   3   24.40   13.70
  -7  26   3   28.30    8.60
  -7  26   3   33.10   11.30
   7  26  -3   60.69   23.60
  -7  26   3   31.90   14.90
   6 -26  -3  224.38   20.20
  -6 -26   3  245.98   22.90
  -6  26   3  202.68   14.90
  -6  26   3  195.78   25.70
   6  26  -3  219.48   28.50
   5 -26  -3  999.20   34.40
  -5 -26   3  900.91   40.60
  -5  26   3  961.70   31.50
  -5  26   3  921.61   46.40
   5  26  -3  931.31   45.40
  -4 -26   3  445.56   25.40
   4 -26  -3  403.16   18.90
   4  26  -3  463.35   28.80
  -4  26   3  445.16   30.60
  -4  26   3  429.06   18.40
   3 -26  -3  506.75   19.60
   3 -26  -3  464.25   28.00
  -3 -26   3  514.55   25.20
   3  26  -3  522.95   26.90
  -3  26   3  525.05   19.80
  -3  26   3  490.15   30.10
   2 -26  -3 1690.73   45.30
   2 -26  -3 1737.13   57.89
  -2 -26   3 1726.53   50.49
  -2  26   3 1677.83   60.09
  -2  26   3 1816.62   47.30
   2  26  -3 1739.03   51.59
   1 -26  -3  601.54   29.70
  -1 -26   3  612.14   22.90
   1 -26  -3  561.44   22.10
   1  26  -3  591.84   19.40
   1  26  -3  566.84   19.20
  -1  26   3  602.94   24.00
   1  26  -3  595.14   23.00
  -1  26   3  611.54   30.60
   0 -26  -3   30.90    7.20
   0 -26  -3   27.50    8.80
   0 -26   3   43.30    6.40
   0  26   3   45.30    8.40
   0  26   3   49.80   10.50
   0  26  -3   36.40    7.90
   0  26  -3   33.60    5.80
  -1 -26  -3 1588.84   51.59
  -1 -26  -3 1520.25   50.19
   1 -26   3 1614.34   41.70
  -1  26  -3 1593.44   39.10
   1  26   3 1589.74   52.79
   1  26   3 1576.84   51.29
  -1  26  -3 1570.34   49.80
   2 -26   3  625.14   21.50
  -2 -26  -3  578.24   28.80
  -2 -26  -3  560.14   30.30
   2  26   3  633.74   30.10
  -2  26  -3  622.34   19.10
  -2  26  -3  585.84   30.50
  -3 -26  -3   14.10    9.70
  -3 -26  -3   27.20    9.60
  -3  26  -3   21.40   12.50
  -3  26  -3   19.20    5.20
   3  26   3   22.20    8.10
  -3  26  -3   16.80    4.60
  -4 -26  -3 1099.79   43.70
  -4 -26  -3 1170.88   51.39
  -4  26  -3 1094.69   35.10
   4  26   3 1113.39   44.20
  -4  26  -3 1083.79   33.80
  -5 -26  -3  557.54   36.70
  -5 -26  -3  565.84   31.60
  -5  26  -3  553.94   25.40
  -5  26  -3  572.94   25.30
  -6 -26  -3  -38.10   13.20
  -6 -26  -3   -6.30   15.20
  -6  26  -3   -5.80    7.80
  -6  26  -3   -9.10    9.00
  -7 -26  -3  298.67   32.70
  -7  26  -3  270.47   22.30
  -7  26  -3  217.98   24.80
  -8 -26  -3  381.06   39.70
  -8  26  -3  356.26   27.60
  -9 -27   3  208.18   28.50
  -9  27   3  209.48   21.40
  -9  27   3  166.28   29.60
  -8 -27   3    1.30   11.50
  -8  27   3   -8.70   15.30
  -8  27   3   22.50   12.90
  -8  27   3    8.80    8.80
  -7 -27   3  257.07   26.70
  -7  27   3  320.07   19.30
  -7  27   3  294.27   30.30
  -7  27   3  334.67   22.70
   7  27  -3  287.17   36.40
   6 -27  -3  358.36   23.40
  -6 -27   3  366.16   27.90
  -6  27   3  365.96   19.10
  -6  27   3  337.97   30.70
   6  27  -3  389.46   34.30
   5 -27  -3   18.00    7.50
  -5 -27   3   -7.00    7.00
   5  27  -3    4.40   11.90
  -5  27   3    1.60    4.50
  -5  27   3   12.20    9.60
  -4 -27   3  795.62   34.90
   4 -27  -3  792.32   27.20
  -4  27   3  771.72   25.70
  -4  27   3  793.62   42.00
   4  27  -3  813.42   38.60
   3 -27  -3  313.57   14.80
  -3 -27   3  322.57   20.20
   3  27  -3  315.97   21.50
  -3  27   3  324.67   14.80
  -3  27   3  285.07   24.40
   2 -27  -3   19.10    9.50
  -2 -27   3   14.20    6.20
   2 -27  -3   13.90    5.00
  -2  27   3   19.00    8.60
  -2  27   3   15.30    4.80
   2  27  -3   27.80    7.60
  -1 -27   3  481.05   21.10
   1 -27  -3  637.94   22.90
   1 -27  -3  651.93   31.00
  -1  27   3  590.74   30.80
   1  27  -3  557.74   22.60
  -1  27   3  585.84   23.60
   1  27  -3  594.34   19.40
   1  27  -3  609.24   19.40
   0 -27  -3  915.91   32.20
   0 -27   3  882.71   27.70
   0 -27  -3  884.81   36.40
   0  27  -3  873.91   30.90
   0  27   3  931.41   38.20
   0  27  -3  902.11   26.80
   0  27   3  899.11   33.20
  -1 -27  -3  229.78   18.20
  -1 -27  -3  186.78   17.20
   1 -27   3  222.58   11.70
  -1  27  -3  233.58   10.00
   1  27   3  210.48   16.90
   1  27   3  240.98   18.60
  -1  27  -3  216.18   17.20
  -2 -27  -3  693.23   30.80
  -2 -27  -3  677.83   33.70
   2 -27   3  663.73   21.80
  -2 -27  -3  680.03   32.80
  -2  27  -3  655.03   18.90
   2  27   3  646.84   31.00
  -2  27  -3  638.74   19.80
  -2  27  -3  598.34   31.50
  -3 -27  -3 1043.70   40.10
  -3 -27  -3  953.30   44.20
  -3  27  -3 1027.70   29.20
  -3  27  -3  996.20   44.80
   3  27   3 1023.30   40.80
  -3  27  -3 1007.00   28.00
  -4 -27  -3   54.49   13.10
  -4 -27  -3   36.50   13.60
   4  27   3   48.60   11.60
  -4  27  -3   39.50    7.20
  -4  27  -3   48.30    7.40
  -5 -27  -3  129.59   22.00
  -5 -27  -3  158.48   21.00
  -5  27  -3  161.08   14.10
  -5  27  -3  149.69   13.80
  -6 -27  -3  329.87   31.90
  -6 -27  -3  423.56   36.20
  -6  27  -3  420.56   23.00
  -6  27  -3  421.06   24.10
  -7 -27  -3  217.38   32.80
  -7  27  -3  204.58   22.40
  -7  27  -3  210.38   20.30
  -9 -28   3   28.80   17.30
  -9  28   3   10.90   11.30
  -9  28   3   33.00   19.20
  -8 -28   3   10.60   13.40
  -8  28   3   16.10   13.90
  -8  28   3   21.90    9.80
  -8  28   3   23.20   14.80
  -7 -28   3   45.40   14.40
   7  28  -3    3.00   20.60
  -7  28   3   -4.50    9.30
  -7  28   3   10.70    7.30
  -7  28   3   20.20   14.40
   6 -28  -3   17.80   10.00
  -6 -28   3    1.70   10.00
   6  28  -3   -3.10   16.00
  -6  28   3   12.60    6.40
  -6  28   3   12.90   11.80
   5 -28  -3   10.90    7.50
  -5 -28   3    3.50    8.20
  -5  28   3   14.50    5.30
  -5  28   3    9.20   10.30
   5  28  -3    8.10   11.70
   4 -28  -3   29.90    6.90
  -4 -28   3   19.10    9.50
  -4  28   3   19.60   10.70
  -4  28   3   27.50    5.80
   4  28  -3   25.30   11.10
   3 -28  -3    5.40    4.60
  -3 -28   3   -6.50    5.50
  -3  28   3    5.50    4.00
   3  28  -3   -3.40    7.30
  -3  28   3    7.80    9.90
   2 -28  -3  113.49    9.40
  -2 -28   3  110.89   11.30
   2 -28  -3  117.89   16.00
  -2  28   3   86.39   15.00
  -2  28   3  108.99    9.40
   2  28  -3  126.79   12.40
   1 -28  -3   57.79    8.00
   1 -28  -3   46.80   11.40
  -1  28   3   57.79   11.80
   1  28  -3   48.90    6.20
   1  28  -3   61.09    6.60
   1  28  -3   49.30    7.90
  -1  28   3   39.70    7.30
   0 -28  -3   20.10    8.60
   0 -28  -3   15.90    6.50
   0 -28   3   11.70    4.70
   0  28   3   10.70    8.10
   0  28   3    8.10    5.60
   0  28  -3   18.60    5.70
   0  28  -3    5.40    5.80
   0  28  -3    8.60    4.10
  -1 -28  -3   75.39   13.00
   1 -28   3   84.59    7.80
  -1 -28  -3   89.39   13.20
  -1  28  -3   79.49    5.70
   1  28   3   85.39   12.00
   1  28   3   91.49   14.00
  -1  28  -3  103.39   13.60
  -2 -28  -3   46.20   11.00
   2 -28   3   47.00    6.10
  -2 -28  -3   26.90   12.40
  -2 -28  -3   38.20   10.30
  -2  28  -3   42.50    4.20
   2  28   3   59.39   12.00
  -2  28  -3   39.90    4.50
  -2  28  -3   41.60   11.90
  -3 -28  -3   18.90   10.20
  -3 -28  -3   25.90   10.40
  -3  28  -3   25.60    4.40
   3  28   3   18.60    8.60
  -3  28  -3   40.10   13.40
  -3  28  -3   30.40    5.00
  -4 -28  -3  141.69   21.10
  -4 -28  -3  115.59   17.10
   4  28   3  127.19   16.60
  -4  28  -3  117.99    9.70
  -4  28  -3  118.39    9.90
  -5 -28  -3  -10.40   12.80
  -5 -28  -3   -8.90   12.50
  -5  28  -3    9.30    6.30
  -5  28  -3   10.90    6.70
  -6 -28  -3    9.50   15.30
  -6 -28  -3  -13.90   16.00
  -6  28  -3   -7.80    7.40
  -6  28  -3   15.30    8.90
  -7 -28  -3   31.80   19.30
  -7  28  -3   20.00   12.90
  -7  28  -3    9.40    9.90
  -9 -29   3  347.77   33.70
  -9  29   3  253.17   22.80
  -9  29   3  247.48   34.70
  -8 -29   3   87.19   18.90
  -8  29   3   57.79   11.50
  -8  29   3   19.20   16.80
  -8  29   3   36.40   14.10
  -7 -29   3  469.25   34.30
  -7  29   3  487.15   37.60
  -7  29   3  458.45   25.60
  -7  29   3  482.45   23.30
   6 -29  -3  316.77   21.90
  -6 -29   3  295.47   25.70
   6  29  -3  296.07   31.70
  -6  29   3  271.97   17.70
  -6  29   3  312.97   17.00
  -6  29   3  340.57   31.80
  -5 -29   3   39.20   11.20
   5 -29  -3   44.70    9.30
  -5  29   3   37.90    6.80
  -5  29   3   59.29   15.40
   5  29  -3   35.60   14.60
   4 -29  -3  919.01   29.70
  -4 -29   3  961.70   39.90
  -4  29   3  982.30   47.40
   4  29  -3  973.70   42.60
  -4  29   3 1002.80   28.30
  -3 -29   3 1380.66   46.50
   3 -29  -3 1344.87   36.90
  -3  29   3 1404.46   55.89
  -3  29   3 1403.16   36.40
   3  29  -3 1339.27   48.20
   2 -29  -3   14.00    5.00
  -2 -29   3    5.10    5.40
   2 -29  -3   20.60    9.30
  -2  29   3   19.70    8.10
  -2  29   3   13.20    4.50
   2  29  -3    8.10    6.80
   1 -29  -3 1149.19   44.40
   1 -29  -3 1125.19   34.30
  -1  29   3 1146.59   35.70
   1  29  -3 1114.59   34.90
   1  29  -3 1157.78   30.90
  -1  29   3 1101.59   45.40
   1  29  -3 1127.19   30.50
   0 -29   3 1486.45   39.20
   0 -29  -3 1466.05   44.50
   0 -29  -3 1362.36   49.20
   0  29  -3 1536.75   44.00
   0  29   3 1449.76   45.40
   0  29  -3 1436.46   37.50
   0  29   3 1413.46   51.39
   0  29  -3 1417.36   42.40
   1 -29   3  101.59    8.00
  -1 -29  -3   99.79   13.90
  -1 -29  -3   98.89   14.00
  -1  29  -3  106.59   14.10
   1  29   3   90.79   13.70
  -2 -29  -3  580.34   31.10
  -2 -29  -3  565.84   28.30
  -2  29  -3  527.55   30.70
   2  29   3  573.34   29.00
  -3 -29  -3 1415.76   55.19
  -3 -29  -3 1406.86   49.70
  -3  29  -3 1370.96   54.99
   3  29   3 1404.16   50.19
  -4 -29  -3   82.69   18.20
  -4 -29  -3   76.99   14.70
  -4  29  -3   66.59    7.10
   4  29   3   73.29   13.50
  -4  29  -3   58.99    7.10
  -5 -29  -3  261.57   25.10
  -5 -29  -3  281.97   29.10
  -5  29  -3  255.87   15.10
  -5  29  -3  230.78   14.60
  -6 -29  -3  506.25   40.40
  -6 -29  -3  554.74   36.90
  -6  29  -3  513.05   24.20
  -6  29  -3  500.25   24.70
  -7 -29  -3  114.09   24.90
  -7  29  -3  157.08   25.40
  -7  29  -3  117.69   15.50
  -8 -30   3  134.99   24.00
  -8  30   3  160.08   19.60
  -8  30   3  146.99   16.60
  -8  30   3  170.08   27.90
  -7 -30   3   56.19   16.50
  -7  30   3   44.30   11.20
  -7  30   3   40.20   19.90
  -7  30   3   35.60    9.00
   6 -30  -3   67.69   13.10
  -6 -30   3   63.69   15.20
   6  30  -3   32.40   18.20
  -6  30   3   67.19    9.40
  -6  30   3   38.30   15.40
  -6  30   3   75.99   10.50
   5 -30  -3  446.16   21.00
  -5 -30   3  449.16   28.80
  -5  30   3  423.76   32.70
   5  30  -3  462.05   33.30
  -5  30   3  464.15   17.60
   4 -30  -3  215.18   13.00
  -4 -30   3  242.68   19.70
   4  30  -3  245.78   22.50
  -4  30   3  158.38   22.40
  -4  30   3  204.68   10.30
  -3 -30   3   53.59   10.90
   3 -30  -3   46.60    6.70
  -3  30   3   29.30   12.30
   3  30  -3   59.89   11.70
  -3  30   3   53.99    6.20
  -2 -30   3  387.96   20.00
   2 -30  -3  410.36   16.80
   2 -30  -3  370.96   26.00
  -2  30   3  406.86   28.10
  -2  30   3  401.26   16.30
   2  30  -3  397.86   21.50
   1 -30  -3  291.67   15.20
   1 -30  -3  289.47   22.10
   1  30  -3  286.97   12.50
  -1  30   3  253.77   15.20
  -1  30   3  263.47   21.90
   1  30  -3  271.57   12.30
   1  30  -3  287.97   15.60
   0 -30   3    3.00    4.30
   0 -30  -3    1.00    8.60
   0 -30  -3    5.60    6.10
   0  30  -3    2.70    3.80
   0  30   3   10.40    5.70
   0  30  -3    2.40    5.80
   0  30  -3    5.50    5.30
   0  30   3   12.40    7.50
  -1 -30  -3  572.34   28.90
  -1 -30  -3  521.05   26.80
  -1 -30  -3  548.35   28.70
   1 -30   3  542.75   17.10
   1  30   3  571.44   29.10
  -1  30  -3  585.84   26.40
  -1  30  -3  560.14   27.60
  -2 -30  -3  457.75   26.10
  -2 -30  -3  428.56   27.10
  -2  30  -3  424.06   27.60
   2  30   3  433.96   25.80
  -3 -30  -3   28.00   10.70
  -3 -30  -3   12.20   11.20
   3  30   3   13.50    9.10
  -3  30  -3   12.90   13.10
  -4 -30  -3  323.87   28.80
  -4 -30  -3  308.27   24.70
  -4  30  -3  333.27   12.20
  -4  30  -3  320.37   12.00
   4  30   3  345.27   24.50
  -5 -30  -3  247.98   26.50
  -5 -30  -3  198.88   22.90
  -5  30  -3  224.08   13.10
  -5  30  -3  216.58   13.20
  -6 -30  -3   11.70   16.60
  -6 -30  -3   -7.40   17.10
  -6  30  -3   -0.70    7.20
  -6  30  -3   12.60    8.20
  -7 -30  -3  162.08   30.20
  -7  30  -3  139.99   16.90
  -8 -31   3   40.90   18.60
  -8  31   3   33.10   10.40
  -8  31   3   13.70   17.10
  -8  31   3   46.40   12.90
  -7 -31   3  152.38   23.40
  -7  31   3  148.29   13.90
  -7  31   3  134.99   24.30
  -7  31   3  160.38   16.50
  -6 -31   3   91.09   17.70
  -6  31   3   70.19    8.70
  -6  31   3   74.69    9.70
  -6  31   3   82.89   20.20
   6  31  -3   55.89   20.90
   5 -31  -3   32.60    8.20
  -5 -31   3   31.80   11.40
  -5  31   3   45.90    5.80
  -5  31   3   24.60   12.80
  -5  31   3   18.70    5.30
   5  31  -3   54.19   16.20
   4 -31  -3  188.28   12.10
  -4 -31   3  212.18   19.10
   4  31  -3  243.18   23.10
  -4  31   3  207.78   24.40
  -3 -31   3  102.69   13.40
   3 -31  -3  112.29    8.80
   3  31  -3  109.29   15.00
  -3  31   3  109.29   17.80
  -3  31   3  101.59    6.50
   2 -31  -3    4.40   10.10
  -2 -31   3   -2.40    5.40
   2 -31  -3   -1.60    4.40
  -2  31   3    1.50    9.00
   2  31  -3    5.50    7.10
  -2  31   3    3.40    4.00
   1 -31  -3  122.29   10.60
  -1 -31   3  117.99   10.50
   1 -31  -3  117.59   16.50
  -1  31   3   99.79   16.10
   1  31  -3  107.69    8.10
   1  31  -3  104.69   10.50
  -1  31   3  113.29   10.60
   1  31  -3  106.79    7.90
   0 -31  -3  375.16   20.10
   0 -31   3  396.06   15.80
   0 -31  -3  420.86   25.90
   0  31  -3  414.86   19.90
   0  31  -3  425.66   20.80
   0  31   3  447.96   26.60
   0  31  -3  384.36   14.00
  -1 -31  -3   12.40    8.90
  -1 -31  -3   -0.50    7.60
  -1 -31  -3   21.70    9.00
  -1  31  -3   16.20    8.70
  -1  31  -3   11.60    7.10
   1  31   3   14.00    8.30
  -2 -31  -3  165.38   19.00
  -2 -31  -3  203.58   19.50
  -2  31  -3  223.88   22.30
   2  31   3  182.38   17.80
  -3 -31  -3  370.06   27.40
  -3 -31  -3  325.57   23.30
   3  31   3  345.57   23.60
  -3  31  -3  365.86   29.20
  -4 -31  -3   23.60   13.10
  -4 -31  -3   30.80   14.50
   4  31   3   20.40   10.60
  -5 -31  -3   73.29   17.90
  -5 -31  -3   65.99   16.60
  -5  31  -3   59.19    7.20
  -5  31  -3   58.39    7.20
  -6 -31  -3   97.49   22.30
  -6 -31  -3   75.49   20.80
  -6  31  -3  114.79   13.10
  -6  31  -3  109.09   12.70
  -7 -31  -3    6.20   18.10
  -7  31  -3    3.80    9.30
  -8 -32   3  667.63   44.50
  -8  32   3  531.25   45.50
  -8  32   3  555.74   26.00
  -8  32   3  576.94   29.90
  -7 -32   3   55.59   16.60
  -7  32   3   69.19    9.90
  -7  32   3   53.29   10.90
  -7  32   3   70.39   21.20
  -6 -32   3  213.98   23.90
  -6  32   3  228.78   12.30
  -6  32   3  224.58   13.20
  -6  32   3  231.88   27.20
   5 -32  -3  971.10   30.40
  -5 -32   3  959.80   42.80
   5  32  -3  947.71   48.30
  -5  32   3  952.80   50.49
  -4 -32   3  306.97   22.60
   4 -32  -3  290.77   13.10
  -4  32   3  243.78   24.70
   4  32  -3  275.77   25.20
  -3 -32   3  328.87   20.60
   3 -32  -3  324.17   13.20
  -3  32   3  324.07   27.40
   3  32  -3  339.67   23.30
   2 -32  -3 1302.27   50.39
   2 -32  -3 1264.07   34.40
  -2 -32   3 1202.38   39.90
   2  32  -3 1275.87   42.30
  -2  32   3 1297.57   52.69
   1 -32  -3  604.64   31.70
   1 -32  -3  592.74   22.30
  -1 -32   3  582.64   22.40
   1  32  -3  586.64   18.60
   1  32  -3  579.04   22.50
   1  32  -3  593.34   18.70
  -1  32   3  578.94   32.80
   0 -32  -3   27.30    8.70
   0 -32   3   24.50    5.30
   0 -32  -3   42.80    8.40
   0 -32  -3   23.40   10.50
   0  32   3   38.70   11.30
   0  32  -3   45.90    8.50
   0  32  -3   45.00    9.10
  -1 -32  -3 1022.40   40.40
  -1 -32  -3 1012.50   40.70
  -1 -32  -3  910.91   37.60
  -1  32  -3 1046.90   38.20
  -1  32  -3 1030.10   39.40
   1  32   3 1063.39   41.90
  -2 -32  -3  471.85   28.50
  -2 -32  -3  473.05   27.50
   2  32   3  507.85   27.80
  -2  32  -3  418.36   25.40
  -2  32  -3  458.25   29.30
  -3 -32  -3   44.60   12.90
  -3 -32  -3   30.10   12.20
  -3  32  -3    8.80   14.30
   3  32   3   17.30   10.10
  -4 -32  -3  643.84   38.90
  -4 -32  -3  662.33   34.00
   4  32   3  599.64   32.60
  -5 -32  -3  617.14   35.90
  -5 -32  -3  595.54   40.20
  -6 -32  -3  -21.80   16.40
  -6 -32  -3   -3.20   18.50
  -6  32  -3    1.00    6.20
  -6  32  -3   10.40    6.80
  -7 -32  -3  230.68   35.50
  -7  32  -3  255.07   18.20
  -8 -33   3   -6.10   17.40
  -8  33   3   -4.50   11.70
  -8  33   3   19.80    9.00
  -8  33   3   21.20   19.10
  -7 -33   3   74.69   19.20
  -7  33   3   31.30   17.00
  -7  33   3   43.20    9.50
  -7  33   3   46.30    7.90
  -6 -33   3  125.39   20.10
  -6  33   3  102.09   23.50
  -5 -33   3   12.80   10.90
  -5  33   3   15.40   12.20
  -4 -33   3   58.29   13.10
  -4  33   3  110.49   21.10
   4  33  -3   86.39   16.50
   3 -33  -3  285.67   11.40
  -3 -33   3  324.47   20.50
  -3  33   3  255.37   24.70
   3  33  -3  321.07   23.50
   2 -33  -3   13.00    5.20
  -2 -33   3   10.10    6.10
   2  33  -3   12.10    7.60
  -2  33   3    7.90    9.90
  -1 -33   3  116.99   10.40
   1 -33  -3  108.99   10.60
   1 -33  -3  103.09   16.90
  -1  33   3  119.59   17.60
   1  33  -3  100.59    7.40
   1  33  -3  102.39    7.80
   0 -33  -3  106.09   15.90
   0 -33  -3  107.09   13.30
   0 -33  -3   90.99   12.10
   0 -33   3   94.49    7.90
   0  33   3   94.89   15.20
   0  33  -3   97.99   12.00
   0  33  -3   96.89   11.50
  -1 -33  -3    7.50   10.40
  -1 -33  -3   17.60    9.10
  -1  33  -3   14.00    8.10
   1  33   3   25.50   10.20
  -1  33  -3   40.10   10.90
  -2 -33  -3   22.70   10.80
  -2 -33  -3   14.60   10.50
  -2  33  -3   26.10    9.40
  -2  33  -3   19.30   12.50
   2  33   3   18.90    9.40
  -3 -33  -3  217.08   21.10
  -3 -33  -3  194.78   23.60
  -3  33  -3  223.38   26.40
  -3  33  -3  184.68   20.80
   3  33   3  201.88   19.20
  -4 -33  -3    6.60   12.60
  -4 -33  -3   30.50   13.80
   4  33   3   49.80   13.00
  -5 -33  -3   23.80   15.20
  -5 -33  -3   28.40   16.40
  -6 -33  -3  158.08   25.20
  -6 -33  -3  148.79   28.60
  -6  33  -3  141.79    9.60
  -6  33  -3  154.28    9.90
  -8 -34   3  282.67   33.20
  -8  34   3  217.68   34.10
  -8  34   3  244.58   16.20
  -8  34   3  241.98   19.70
  -7 -34   3    0.30   14.60
  -7  34   3   42.70   20.10
  -6 -34   3  149.79   23.10
  -6  34   3  161.88   26.80
  -5 -34   3  279.07   25.00
  -5  34   3  308.87   31.10
  -4 -34   3  146.49   18.30
  -4  34   3   95.19   20.70
  -3 -34   3  150.38   15.30
  -3  34   3  116.49   20.90
   2 -34  -3  427.66   15.90
  -2 -34   3  433.86   21.10
  -2  34   3  445.56   30.90
  -1 -34   3  211.68   13.20
   1 -34  -3  199.98   14.50
   1 -34  -3  218.88   21.00
   1 -34  -3  208.18   13.10
   1  34  -3  207.28    9.60
  -1  34   3  206.68   20.90
   1  34  -3  202.08    9.70
   0 -34  -3   26.10    8.70
   0 -34   3   25.90    5.00
   0 -34  -3   50.09   12.80
   0 -34   3   32.90    5.10
   0 -34  -3   25.80    8.10
   0  34   3   25.90   10.60
   0  34  -3   45.00    8.80
   0  34  -3   38.40    8.90
  -1 -34  -3  593.74   30.00
  -1 -34  -3  538.65   30.00
  -1  34  -3  566.44   27.60
  -1  34  -3  571.64   29.20
   1  34   3  642.54   32.30
  -2 -34  -3   64.19   14.10
  -2 -34  -3   88.29   15.10
  -2  34  -3   64.19   13.10
   2  34   3   75.99   14.10
  -2  34  -3   77.79   16.80
  -3 -34  -3    4.40   11.40
  -3 -34  -3    7.20   12.20
   3  34   3    4.50    9.90
  -3  34  -3   17.60   11.10
  -4 -34  -3  402.96   31.30
  -4 -34  -3  393.96   27.70
   4  34   3  355.36   25.60
  -4  34  -3  315.87   27.80
  -5 -34  -3  243.38   30.30
  -5 -34  -3  229.98   25.30
  -5  34  -3  219.18   27.80
  -6 -34  -3  -30.60   29.90
  -6 -34  -3    7.20   17.80
  -6  34  -3   24.60   16.60
  -7 -35   3  270.97   30.20
  -7  35   3  246.28   32.80
  -6 -35   3  311.17   28.10
  -6  35   3  303.37   31.30
  -5 -35   3   23.80   11.80
  -5  35   3   27.80   15.10
  -4 -35   3  591.54   31.80
  -4  35   3  615.64   39.50
  -3 -35   3  730.83   32.00
  -3  35   3  774.32   43.50
   2 -35  -3   66.89    7.40
   2 -35  -3   74.19    7.20
  -2  35   3   86.29   17.50
   1 -35  -3  816.62   26.80
   1 -35  -3  815.82   38.80
   1 -35  -3  799.42   28.70
  -1 -35   3  804.12   26.80
   1  35  -3  853.51   21.70
   1  35  -3  800.12   21.50
  -1  35   3  843.12   41.00
   0 -35  -3  936.21   40.50
   0 -35  -3  903.41   32.80
   0  35   3  981.20   42.70
   0  35  -3  972.80   33.70
   0  35  -3  946.71   33.10
  -1 -35  -3  196.98   18.30
  -1 -35  -3  168.28   20.10
  -1  35  -3  162.88   18.60
  -1  35  -3  152.08   16.50
   1  35   3  170.28   18.30
  -2 -35  -3  428.66   27.80
  -2 -35  -3  392.46   26.80
  -2  35  -3  330.67   27.70
  -2  35  -3  347.57   24.60
   2  35   3  417.16   26.50
  -3 -35  -3  964.80   45.70
  -3 -35  -3  975.30   42.10
  -3  35  -3  966.80   44.60
   3  35   3  984.80   41.40
  -4 -35  -3  166.38   24.30
  -4 -35  -3  206.08   23.60
  -4  35  -3  182.58   24.10
   4  35   3  160.68   19.90
  -5 -35  -3  154.98   24.50
  -5 -35  -3  113.79   20.00
  -5  35  -3   68.99   18.40
  -6 -35  -3  370.56   40.80
  -7 -36   3   11.90   16.40
  -7  36   3   12.60   19.90
  -6 -36   3   25.40   14.70
  -6  36   3   13.70   18.20
  -5 -36   3  -11.30   10.00
  -5  36   3   15.60   13.80
  -4 -36   3   31.40   11.50
  -4  36   3   34.40   15.80
  -3 -36   3    0.40    7.70
  -3  36   3    6.50   11.10
  -2 -36   3   84.09   13.20
  -2  36   3   60.39   14.70
  -1 -36   3   18.40    6.30
   1 -36  -3   24.20    6.80
   1 -36  -3   30.30    7.30
  -1 -36   3   14.60    7.40
   1 -36  -3   29.10   13.00
  -1  36   3   21.30   11.30
   0 -36  -3    3.40    7.80
   0 -36  -3    4.30   11.40
   0  36  -3    5.90    8.00
   0  36  -3    4.40    6.70
   0  36   3    2.40   10.10
  -1 -36  -3    6.50   11.70
  -1 -36  -3   14.80    9.00
   1  36   3    9.20    9.70
  -1  36  -3   13.90    8.30
  -1  36  -3   11.50   11.40
  -2 -36  -3   41.10   12.80
  -2 -36  -3   14.20   10.80
  -2  36  -3   28.30   10.90
  -2  36  -3   17.70   14.60
   2  36   3   16.30   10.90
  -3 -36  -3  -18.40   12.70
  -3 -36  -3    3.90   11.80
   3  36   3   -3.60   10.30
  -3  36  -3    5.20   10.80
  -4 -36  -3    4.30   14.90
  -4 -36  -3   12.50   14.80
   4  36   3   -4.30   11.50
  -4  36  -3    8.10   13.10
  -5 -36  -3   -6.20   17.30
  -5 -36  -3  -28.80   16.50
  -5  36  -3   -1.40   14.50
  -6 -36  -3    2.90   20.10
  -6  36  -3   -9.10   16.40
  -7 -37   3  316.57   32.40
  -7  37   3  248.28   35.50
  -6 -37   3  347.87   29.70
  -6  37   3  296.77   33.60
  -5 -37   3   -0.30   11.60
  -5  37   3  -15.10   14.20
  -4 -37   3  308.97   23.60
  -4  37   3  319.77   32.20
  -3 -37   3  485.05   26.00
  -3  37   3  481.75   35.10
  -2 -37   3   16.00   10.10
  -2  37   3    3.20   11.00
   1 -37  -3  603.84   22.70
  -1 -37   3  540.45   22.00
  -1 -37   3  591.04   21.00
   1 -37  -3  546.75   20.70
  -1  37   3  579.24   34.80
   0 -37  -3  500.75   34.10
   0 -37  -3  479.95   31.00
   0 -37  -3  472.15   22.50
   0  37  -3  496.25   23.30
   0  37   3  446.96   29.80
   0  37  -3  514.95   23.60
  -1 -37  -3  -11.50    8.90
  -1 -37  -3   10.70   12.00
  -1  37  -3    4.60   11.10
  -1  37  -3   -6.50    7.90
   1  37   3   -9.10    9.20
  -2 -37  -3  102.59   16.90
  -2 -37  -3  114.59   18.50
   2  37   3  156.68   19.10
  -2  37  -3  164.18   21.30
  -2  37  -3  128.79   17.50
  -3 -37  -3  451.15   31.90
  -3 -37  -3  493.95   30.60
   3  37   3  434.36   27.90
  -3  37  -3  496.25   32.70
  -4 -37  -3  174.98   25.80
  -4 -37  -3  197.68   23.10
  -4  37  -3  171.58   23.60
   4  37   3  190.48   21.50
  -5 -37  -3   16.20   18.40
  -5 -37  -3   11.30   25.10
  -5  37  -3   16.50   15.80
  -6 -38   3   63.09   18.30
  -6  38   3   99.69   23.30
  -5 -38   3  519.15   33.20
  -5  38   3  538.65   41.70
  -4 -38   3   80.79   14.80
  -4  38   3  105.29   22.40
  -3 -38   3  103.79   14.00
  -3  38   3   96.79   20.10
  -2 -38   3  539.65   27.40
  -2 -38   3  577.24   24.40
  -2  38   3  525.65   35.10
  -1 -38   3  292.17   15.50
  -1 -38   3  299.07   14.60
   1 -38  -3  284.77   15.70
   1 -38  -3  278.97   14.20
  -1  38   3  306.67   27.00
   0 -38  -3   34.90    9.60
   0 -38  -3   49.99   10.10
   0 -38  -3   41.50   14.40
   0  38   3   54.99   14.10
   0  38  -3   37.30    9.30
   0  38  -3   34.90    9.70
  -1 -38  -3  475.95   29.90
  -1 -38  -3  480.05   27.00
  -1  38  -3  489.45   27.10
  -1  38  -3  504.05   28.90
   1  38   3  504.85   30.20
  -2 -38  -3  286.67   25.90
  -2 -38  -3  319.17   26.00
   2  38   3  348.37   25.90
  -2  38  -3  298.47   24.70
  -2  38  -3  312.17   28.20
  -3 -38  -3   15.80   14.00
  -3 -38  -3   15.40   14.50
  -3  38  -3    1.10   12.20
   3  38   3   23.80   12.70
  -4 -38  -3  334.77   33.30
  -4 -38  -3  376.16   29.30
   4  38   3  370.16   26.90
  -4  38  -3  363.86   30.80
  -5 -38  -3  360.96   35.50
  -5  38  -3  339.07   33.50
  -6 -39   3  -25.00   15.10
  -6  39   3    5.30   18.20
  -5 -39   3  -20.50   12.90
  -5  39   3   -4.20   16.00
  -4 -39   3   10.00   10.30
  -4  39   3  -20.00   12.80
  -3 -39   3   10.00    9.10
  -3  39   3    7.60   14.10
  -2 -39   3    0.10    6.90
  -2  39   3    1.20   13.10
   1 -39  -3   26.90    6.90
  -1 -39   3   25.10    6.40
  -1 -39   3   27.50    7.10
   1 -39  -3   31.80    6.70
  -1  39   3    2.30   12.30
   0 -39  -3   -0.60   13.50
   0 -39  -3  -25.30   12.50
   0 -39  -3    3.70    8.10
   0  39  -3    2.80    7.40
   0  39   3   -0.90   10.90
   0  39  -3    7.20    9.10
  -1 -39  -3    4.70   12.80
  -1 -39  -3    9.50    9.80
  -1  39  -3   -4.40    9.10
  -1  39  -3    1.60   12.70
   1  39   3   13.20   12.00
  -2 -39  -3   26.40   14.40
  -2 -39  -3  -16.20   11.00
   2  39   3   22.60   11.90
  -2  39  -3    4.80   10.90
  -2  39  -3   -3.60   15.70
  -3 -39  -3   36.90   14.80
  -3 -39  -3   39.90   15.70
  -3  39  -3   27.30   13.70
   3  39   3   25.00   13.10
  -4 -39  -3   31.20   17.00
  -4 -39  -3   36.80   17.20
  -4  39  -3   24.80   16.00
  -5 -39  -3  -16.40   17.80
  -5  39  -3   10.00   17.20
  -6 -40   3  112.89   21.50
  -6  40   3   98.29   24.60
  -5 -40   3  382.36   30.00
  -5  40   3  377.56   35.20
  -4 -40   3   94.09   16.90
  -4  40   3  160.38   26.20
  -3 -40   3  121.19   15.20
  -3  40   3  141.29   23.40
  -2 -40   3  672.73   26.50
  -2  40   3  618.44   40.30
   1 -40  -3  328.67   13.80
   1 -40  -3  323.07   13.60
  -1  40   3  340.07   28.90
   0 -40  -3   85.99   11.60
   0 -40  -3   42.30   15.80
   0  40  -3   60.29   10.50
   0  40   3   64.69   15.00
   0  40  -3   57.79   11.00
  -1 -40  -3  627.44   34.60
  -1 -40  -3  612.54   31.10
  -1  40  -3  626.84   31.10
   1  40   3  577.04   33.50
  -1  40  -3  628.84   32.20
  -2 -40  -3  220.18   23.60
  -2 -40  -3  212.58   22.30
   2  40   3  248.28   23.40
  -2  40  -3  236.58   27.30
  -2  40  -3  212.18   22.40
  -3 -40  -3    4.80   13.70
  -3 -40  -3   -4.30   15.30
  -3  40  -3  -16.80   12.20
   3  40   3   -2.50   12.00
  -4 -40  -3  330.77   32.20
  -4  40  -3  308.47   31.90
  -5 -41   3  -18.30   13.90
  -5  41   3    8.80   16.20
  -4  41   3  196.78   29.00
  -3  41   3  200.28   28.20
  -2 -41   3    5.50    7.80
  -2  41   3   15.60   15.80
  -1  41   3  132.79   21.50
   0 -41  -3  200.48   17.10
   0  41   3  317.47   26.70
   0  41  -3  313.57   18.20
   0  41  -3  275.27   18.70
  -1 -41  -3   -2.60   15.20
  -1  41  -3   40.90   14.40
   1  41   3   33.30   14.50
  -1  41  -3   35.00   11.50
  -2 -41  -3  104.99   19.30
   2  41   3  130.99   19.20
  -2  41  -3  120.69   19.40
  -2  41  -3  140.29   23.00
  -3 -41  -3  186.78   22.70
   3  41   3  207.28   22.80
  -3  41  -3  191.68   25.30
  -4 -41  -3   16.10   18.00
  -4  41  -3   57.29   19.30
  -5 -42   3   -9.20   14.10
  -5  42   3   47.20   21.70
  -4 -42   3  -28.20   11.30
  -4  42   3   42.60   19.80
  -3  42   3   19.20   17.40
  -2 -42   3    0.00    7.90
  -2  42   3   27.70   17.50
  -1  42   3   17.50   14.50
   0 -42  -3   -5.60    8.30
   0  42  -3    4.80    9.60
   0  42   3    8.60   13.00
   0  42  -3   15.30    8.30
  -1 -42  -3  145.09   21.40
  -1  42  -3  170.28   19.60
   1  42   3  131.99   19.70
  -1  42  -3  121.29   18.60
  -2 -42  -3   26.80   16.80
  -2 -42  -3  -12.00   12.70
  -2  42  -3   23.10   13.60
  -2  42  -3    3.80   19.80
   2  42   3   32.40   14.70
  -3 -42  -3   -5.00   15.40
   3  42   3   29.30   14.10
  -3  42  -3   13.40   14.10
  -4  43   3  206.28   31.20
  -3  43   3  328.27   35.60
  -2 -43   3   -3.90    8.20
  -2  43   3   17.80   16.60
  -1  43   3  193.68   25.70
   0  43  -3  572.14   24.30
   0  43  -3  556.04   24.20
   0  43   3  591.14   37.30
  -1 -43  -3   -7.50   11.50
  -1  43  -3   17.30   15.10
  -1  43  -3   53.89   13.10
   1  43   3   40.60   15.10
  -2 -43  -3  233.88   31.10
   2  43   3  294.67   25.80
  -2  43  -3  272.87   27.10
  -3  43  -3  490.75   35.80
   3  43   3  467.45   30.60
  -4  44   3    3.20   19.20
  -3  44   3   35.30   19.40
  -2  44   3  127.19   25.00
  -1  44   3   26.10   16.90
   0 -44  -3  -10.30    8.50
   0  44  -3   -4.40    8.00
   0  44   3   -5.80   15.20
  -1  44  -3  115.19   16.30
   1  44   3  123.29   20.20
  -2 -44  -3   25.90   21.20
  -2  44  -3   48.20   16.70
   2  44   3   38.10   15.70
  -3  45   3   62.39   22.00
  -2  45   3   13.60   17.70
  -1  45   3  153.78   25.30
   0  45   3  106.49   21.20
   0  45  -3  121.59   12.30
  -1  45  -3   -2.00   12.30
   1  45   3   15.80   15.70
  -2  45  -3   82.79   19.60
  -2  46   3  325.77   35.30
  -1  46   3  213.68   27.90
   0  46   3  126.99   22.50
 -11   0   4  566.34   41.40
 -11   0   4  471.45   38.60
 -10   0   4  182.18   25.50
 -10   0   4  188.68   26.00
  -9   0   4  136.69   20.60
  -9   0   4  165.48   23.10
  -8   0   4 1284.97   52.39
  -8   0   4 1339.87   54.49
  -7   0   4   85.99   13.80
   7   0  -4   75.09   17.00
  -7   0   4   92.69   15.00
  -6   0   4  232.38   18.70
  -6   0   4  261.17   20.10
   6   0  -4  227.18   20.70
  -5   0   4  670.93   30.70
  -5   0   4  635.14   29.70
   5   0  -4  682.03   32.30
   4   0  -4 7210.28  164.18
  -4   0   4 7209.58  166.08
  -4   0   4 7233.98  164.68
   4   0  -4 7149.88  165.98
  -3   0   4  925.11   32.90
   3   0  -4  888.61   32.60
  -3   0   4  871.11   32.90
   3   0  -4  860.11   31.40
   2   0  -4 6853.51  150.88
  -2   0   4 6467.25  150.78
   2   0  -4 7037.40  150.98
  -2   0   4 6526.25  151.78
  -1   0   4 8371.96  178.38
  -1   0   4 7916.91  177.08
   1   0  -4 7120.59  173.28
   1   0  -4 8570.34  177.08
   0   0   4 1296.57   41.60
   0   0  -4 1154.48   38.70
   0   0  -4 1321.67   40.90
   0   0   4 1337.37   42.10
   1   0   4 2470.05   69.19
   1   0   4 2441.96   68.89
  -1   0  -4 2500.25   67.49
  -1   0  -4 2453.95   67.99
  -2   0  -4 5200.48  124.69
   2   0   4 5079.29  126.39
  -2   0  -4 5091.49  124.99
   2   0   4 5024.60  125.69
   3   0   4  444.46   26.30
  -3   0  -4  447.56   26.00
  -3   0  -4  476.35   26.20
   3   0   4  466.95   26.50
  -4   0  -4  450.75   27.80
   4   0   4  410.36   27.10
  -4   0  -4  403.26   27.80
  -5   0  -4 1211.68   51.89
  -5   0  -4 1198.98   59.39
   5   0   4 1173.08   50.69
   6   0   4   61.89   15.10
  -6   0  -4   64.59   17.10
  -6   0  -4   78.09   18.40
  -7   0  -4  121.19   21.70
  -8   0  -4  658.03   45.80
  -9   0  -4  194.08   32.30
 -11  -1   4   12.60   15.30
 -11  -1   4    1.30   16.40
 -11   1   4   -7.30   16.90
 -11   1   4   20.70   17.00
 -10  -1   4   42.50   14.90
 -10  -1   4   34.40   15.90
 -10   1   4   78.39   19.90
 -10   1   4   64.59   18.20
  -9  -1   4  208.88   22.80
  -9  -1   4  172.68   22.70
  -9   1   4  166.88   22.40
  -9   1   4  191.38   24.70
  -8  -1   4   14.40    9.50
  -8  -1   4   17.00   10.20
  -8   1   4   15.40    9.30
  -8   1   4   10.90    9.10
  -7  -1   4  139.09   18.40
  -7  -1   4  141.49   16.40
   7  -1  -4  116.59   18.90
  -7   1   4  139.39   16.20
  -7   1   4  132.59   18.10
   7   1  -4  137.99   19.80
   6  -1  -4   94.39   15.50
  -6  -1   4   80.09   13.20
  -6  -1   4   67.39   11.70
   6   1  -4   65.79   13.10
  -6   1   4   89.19   13.30
  -6   1   4   91.49   13.60
   5  -1  -4  325.17   20.60
  -5  -1   4  377.76   22.20
   5  -1  -4  317.37   21.50
  -5  -1   4  351.66   20.80
  -5   1   4  329.37   21.30
   5   1  -4  342.07   22.40
  -5   1   4  316.07   20.70
  -4  -1   4   40.70    7.60
   4  -1  -4   23.50    6.90
  -4  -1   4   31.20    7.30
   4  -1  -4   29.20    7.70
   4   1  -4   24.90    7.40
   4   1  -4   17.20    6.40
  -4   1   4   22.90    6.60
  -4   1   4   29.60    7.60
   3  -1  -4  995.60   35.40
  -3  -1   4  985.50   34.50
   3  -1  -4 1038.50   35.60
  -3  -1   4 1021.90   36.40
   3   1  -4 1085.89   36.70
   3   1  -4 1030.00   34.60
  -3   1   4 1074.39   36.60
  -3   1   4  963.10   35.60
   2  -1  -4   17.10    5.10
   2  -1  -4   22.00    5.60
  -2  -1   4   14.00    5.00
  -2  -1   4   15.10    4.70
   2   1  -4   31.90    6.30
  -2   1   4   25.10    5.90
  -2   1   4   34.80    6.90
   2   1  -4   19.80    5.40
  -1  -1   4  302.47   16.30
   1  -1  -4  310.47   15.90
   1  -1  -4  278.37   15.60
  -1  -1   4  289.57   16.40
  -1   1   4  323.87   17.20
   1   1  -4  297.57   15.60
  -1   1   4  263.27   15.80
   1   1  -4  248.48   14.90
   0  -1  -4 1886.21   52.59
   0  -1   4 1821.32   53.59
   0  -1   4 1820.22   53.59
   0  -1  -4 1884.71   53.29
   0   1  -4 1791.52   51.49
   0   1  -4 1875.51   53.09
   0   1   4 1840.22   54.39
   0   1   4 1846.12   54.09
   1  -1   4 2443.36   68.59
  -1  -1  -4 2427.36   66.89
  -1  -1  -4 2398.96   67.29
   1  -1   4 2510.45   68.99
  -1   1  -4 2457.05   66.79
   1   1   4 2504.85   69.59
   1   1   4 2396.96   68.39
  -1   1  -4 2410.36   67.39
  -2  -1  -4  833.92   34.30
  -2  -1  -4  802.72   33.70
   2  -1   4  795.52   34.00
   2  -1   4  821.32   34.70
   2   1   4  932.61   36.60
  -2   1  -4  851.91   34.80
  -2   1  -4  757.82   32.70
   2   1   4  791.42   34.20
  -3  -1  -4 1021.70   41.30
  -3  -1  -4 1018.40   40.80
   3  -1   4  878.61   39.10
   3   1   4  984.30   41.40
   3   1   4 1049.79   41.60
  -3   1  -4 1037.90   41.00
  -3   1  -4 1023.70   41.50
   4  -1   4  172.68   17.40
  -4  -1  -4  170.78   18.40
  -4  -1  -4  182.68   18.60
  -4   1  -4  192.98   19.00
   4   1   4  192.58   18.60
  -4   1  -4  177.78   18.30
  -5  -1  -4   79.99   16.70
  -5  -1  -4   98.29   17.80
   5  -1   4   79.59   14.90
  -5   1  -4   83.09   17.40
  -5   1  -4  113.69   27.90
   5   1   4  110.89   18.00
  -6  -1  -4  202.78   26.30
   6  -1   4  260.07   25.70
  -6  -1  -4  152.98   22.80
  -6   1  -4  254.47   28.60
  -6   1  -4  237.88   24.90
   6   1   4  207.88   23.30
  -7  -1  -4   66.79   17.00
  -7   1  -4  108.79   20.60
  -8  -1  -4   26.00   15.10
  -8   1  -4    5.50   14.20
  -9  -1  -4   47.10   20.40
  -9   1  -4  111.79   25.50
 -11  -2   4  166.88   27.60
 -11  -2   4  146.99   24.20
 -11   2   4  136.29   25.50
 -11   2   4  138.49   25.20
 -10  -2   4   61.39   15.70
 -10  -2   4   78.89   18.00
 -10   2   4   45.10   16.60
 -10   2   4   67.69   18.50
  -9  -2   4    0.80    9.00
  -9  -2   4   15.70   11.80
  -9   2   4   20.80   12.20
  -9   2   4    4.20   10.80
  -8  -2   4  678.33   34.70
  -8  -2   4  629.14   36.50
  -8   2   4  625.04   35.50
  -8   2   4  629.44   35.10
  -7  -2   4  292.27   21.40
  -7  -2   4  328.77   23.90
   7  -2  -4  311.07   28.50
  -7   2   4  300.57   23.70
   7   2  -4  315.87   28.50
  -7   2   4  332.37   24.40
   6  -2  -4  173.58   18.40
  -6  -2   4  198.48   16.30
  -6  -2   4  218.68   18.00
  -6   2   4  165.08   15.90
   6   2  -4  175.58   18.30
  -6   2   4  144.49   15.20
   5  -2  -4 2696.53   78.79
  -5  -2   4 2703.13   78.39
  -5  -2   4 2909.51   77.19
   5  -2  -4 2804.32   78.09
   5   2  -4 2762.02   80.29
  -5   2   4 2743.63   78.69
  -5   2   4 2745.23   78.29
   4  -2  -4  136.59   12.90
  -4  -2   4  142.89   12.40
  -4  -2   4  116.19   11.90
   4  -2  -4  137.19   12.60
   4   2  -4  126.99   11.70
  -4   2   4  153.28   13.70
   4   2  -4  121.69   13.00
  -4   2   4  140.49   12.70
   3  -2  -4  138.59   11.90
  -3  -2   4  147.19   12.40
   3  -2  -4  123.59   11.50
  -3  -2   4  149.09   11.70
   3   2  -4  149.39   11.80
   3   2  -4  126.29   11.40
  -3   2   4  103.49   10.60
  -3   2   4  110.99   11.20
   2  -2  -4 3839.42   92.59
  -2  -2   4 3829.62   91.79
  -2  -2   4 3723.53   93.39
   2  -2  -4 3851.31   91.89
  -2   2   4 3827.42   94.09
  -2   2   4 3701.73   93.19
   2   2  -4 3882.51   91.29
   2   2  -4 3764.32   91.99
  -1  -2   4 2351.36   63.19
   1  -2  -4 2308.37   61.09
  -1  -2   4 2286.37   62.09
   1  -2  -4 2388.56   62.69
  -1   2   4 2322.77   63.49
   1   2  -4 2389.66   61.59
   1   2  -4 2415.36   61.59
  -1   2   4 2274.27   63.19
   0  -2   4    9.60    4.60
   0  -2   4   17.20    5.10
   0  -2  -4   30.00    6.40
   0  -2  -4   29.70    6.10
   0   2  -4   26.10    6.00
   0   2  -4   24.30    5.60
   0   2   4   26.00    6.00
   0   2   4   15.10    5.30
  -1  -2  -4 1952.00   57.29
   1  -2   4 1964.40   57.99
   1  -2   4 1953.60   57.89
  -1  -2  -4 1967.20   56.99
   1   2   4 1936.11   58.29
  -1   2  -4 1979.40   57.29
  -1   2  -4 1893.51   55.69
  -2  -2  -4 1260.97   44.40
   2  -2   4 1242.48   44.80
  -2  -2  -4 1316.67   44.90
   2  -2   4 1255.47   44.90
  -2   2  -4 1216.38   44.00
   2   2   4 1272.57   45.80
   2   2   4 1233.88   45.00
  -2   2  -4 1254.47   43.40
  -3  -2  -4  723.43   33.80
  -3  -2  -4  739.43   34.30
   3  -2   4  730.33   34.40
  -3   2  -4  713.33   33.80
  -3   2  -4  734.73   33.20
   3   2   4  769.42   34.90
   3   2   4  744.43   35.30
  -4  -2  -4  405.86   26.80
   4  -2   4  383.86   25.90
  -4  -2  -4  386.96   26.10
  -4   2  -4  369.26   26.60
  -4   2  -4  386.66   25.70
   4   2   4  374.56   25.80
   5  -2   4  710.83   37.30
  -5  -2  -4  673.93   38.00
  -5  -2  -4  663.93   37.70
  -5   2  -4  612.14   36.00
   5   2   4  710.83   37.90
  -6  -2  -4  113.99   19.70
  -6  -2  -4   76.29   21.00
   6  -2   4  106.79   18.90
  -6   2  -4  113.29   19.70
  -6   2  -4   96.69   20.90
   6   2   4  113.09   19.60
  -7  -2  -4  310.17   30.80
  -7   2  -4  356.46   32.40
  -8  -2  -4  298.97   33.90
  -8   2  -4  299.77   36.50
  -9  -2  -4   61.49   20.70
  -9   2  -4   36.70   18.40
 -11  -3   4    0.60   13.30
 -11  -3   4   -0.30   16.00
 -11   3   4   15.80   15.70
 -11   3   4   21.40   17.50
 -10  -3   4  727.53   42.80
 -10  -3   4  747.83   45.00
 -10   3   4  818.92   47.00
 -10   3   4  744.93   44.90
  -9  -3   4  700.43   41.40
  -9  -3   4  652.03   37.00
  -9   3   4  622.74   37.60
  -9   3   4  595.84   37.90
  -8  -3   4  202.58   19.80
  -8  -3   4  192.38   20.50
  -8   3   4  139.89   19.80
  -8   3   4  129.09   18.50
  -7  -3   4  646.84   35.00
   7  -3  -4  663.93   43.50
  -7  -3   4  714.03   33.80
  -7   3   4  686.03   34.50
   7   3  -4  629.94   38.30
  -7   3   4  663.33   35.30
  -6  -3   4 2085.49   66.29
  -6  -3   4 2025.10   62.59
   6  -3  -4 2121.99   68.69
  -6   3   4 2031.20   64.99
  -6   3   4 1992.80   65.19
   6   3  -4 2008.00   68.39
  -5  -3   4  278.57   19.50
  -5  -3   4  287.77   18.40
   5  -3  -4  303.07   20.00
   5  -3  -4  278.37   19.80
  -5   3   4  280.97   19.90
  -5   3   4  291.77   19.50
   5   3  -4  256.57   19.70
  -4  -3   4 2435.96   72.39
  -4  -3   4 2573.64   69.79
   4  -3  -4 2593.84   72.29
   4  -3  -4 2733.43   73.49
  -4   3   4 2691.63   73.19
   4   3  -4 2705.93   70.49
  -4   3   4 2736.83   74.29
   4   3  -4 2569.54   73.39
   3  -3  -4 3077.39   79.29
   3  -3  -4 3182.68   80.39
  -3  -3   4 3036.10   80.79
  -3  -3   4 3149.28   78.19
   3   3  -4 3073.39   80.39
  -3   3   4 2944.21   79.39
  -3   3   4 3031.90   80.89
   3   3  -4 3245.18   77.89
   2  -3  -4  534.15   22.10
  -2  -3   4  536.35   23.50
  -2  -3   4  514.45   21.60
   2  -3  -4  513.05   22.50
   2   3  -4  436.66   21.00
  -2   3   4  510.75   23.20
   2   3  -4  520.95   21.30
  -2   3   4  492.85   22.70
  -1  -3   4 1720.33   50.89
   1  -3  -4 1730.23   50.49
  -1  -3   4 1770.22   50.39
   1  -3  -4 1837.12   49.99
   1   3  -4 1761.12   49.40
   1   3  -4 1773.52   49.20
  -1   3   4 1814.12   52.29
  -1   3   4 1816.12   51.99
   0  -3   4 7809.72  172.58
   0  -3  -4 7558.74  171.58
   0  -3  -4 7718.83  171.18
   0  -3   4 7691.33  172.08
   0   3  -4 8079.99  171.88
   0   3  -4 7706.93  169.98
   0   3   4 7405.66  172.58
   0   3   4 7554.04  173.28
  -1  -3  -4 2049.20   58.79
   1  -3   4 2024.60   58.99
  -1  -3  -4 2020.70   58.29
   1  -3   4 1981.90   58.69
  -1   3  -4 1977.70   57.99
  -1   3  -4 1966.20   56.59
   1   3   4 1960.60   59.09
   1   3   4 2012.30   59.89
  -2  -3  -4  169.98   15.10
   2  -3   4  144.39   13.90
  -2  -3  -4  176.28   14.70
   2  -3   4  143.49   13.90
   2   3   4  156.78   14.10
  -2   3  -4  137.39   13.00
   2   3   4  131.99   14.40
  -2   3  -4  155.88   14.40
  -3  -3  -4 2194.18   68.39
  -3  -3  -4 2113.09   67.19
   3  -3   4 2145.69   67.59
   3   3   4 2218.68   69.59
   3   3   4 2239.68   68.79
  -3   3  -4 2186.38   66.59
  -3   3  -4 2172.18   68.19
  -4  -3  -4 1303.67   51.39
   4  -3   4 1217.78   49.50
  -4  -3  -4 1325.77   51.09
   4   3   4 1307.87   51.69
  -4   3  -4 1376.96   51.39
  -4   3  -4 1240.98   50.59
  -5  -3  -4   17.90   11.20
  -5  -3  -4   26.00   13.00
   5  -3   4   12.00    8.30
   5   3   4    1.00    8.30
  -5   3  -4    4.50   10.40
   6  -3   4  822.42   43.90
  -6  -3  -4  918.71   56.49
  -6  -3  -4  773.82   45.20
  -6   3  -4  903.91   47.50
  -6   3  -4  888.31   47.50
  -7  -3  -4  643.94   43.30
  -7   3  -4  822.02   47.40
  -8  -3  -4    5.90   15.60
  -8   3  -4   -8.50   11.60
  -9  -3  -4  323.37   36.80
  -9   3  -4  271.87   36.60
 -11  -4   4   36.00   18.70
 -11  -4   4   36.80   17.80
 -11   4   4   17.00   15.80
 -11   4   4   35.60   19.00
 -10  -4   4   21.80   15.20
 -10  -4   4   23.10   14.90
 -10   4   4   10.60   12.70
 -10   4   4   12.70   16.60
  -9  -4   4   16.60   10.20
  -9  -4   4   33.30   13.00
  -9   4   4   35.50   11.50
  -9   4   4   18.30   13.60
  -8  -4   4   12.60    9.50
  -8  -4   4   19.90    8.30
  -8   4   4   53.59   13.10
  -8   4   4   22.40   10.30
  -7  -4   4   50.99   11.30
  -7  -4   4   52.59   12.30
  -7   4   4   35.60    9.70
   7   4  -4   34.40   13.50
  -7   4   4   51.19   12.70
  -6  -4   4   60.09   10.80
  -6  -4   4   93.19   14.60
   6  -4  -4   45.80   11.20
  -6   4   4   55.09   10.80
  -6   4   4   57.59   12.00
   6   4  -4   68.09   14.40
  -5  -4   4  131.09   13.90
   5  -4  -4  165.38   15.40
   5  -4  -4  155.38   16.00
  -5  -4   4  166.98   13.90
  -5   4   4  169.68   14.90
  -5   4   4  137.29   14.60
   5   4  -4  164.48   16.00
   4  -4  -4   24.00    6.90
  -4  -4   4   26.10    6.70
   4  -4  -4   35.60    8.60
  -4  -4   4   11.70    5.20
  -4   4   4   41.60    8.10
   4   4  -4   28.70    7.00
  -4   4   4   18.70    6.10
   4   4  -4   28.60    7.60
   3  -4  -4   16.90    5.90
   3  -4  -4    8.40    5.30
  -3  -4   4    7.10    4.50
  -3  -4   4   14.50    4.80
   3   4  -4    8.00    5.20
  -3   4   4   11.20    4.60
  -3   4   4   11.30    4.90
   3   4  -4   10.30    4.30
   2  -4  -4   91.09    8.80
  -2  -4   4   99.99    9.10
   2  -4  -4   96.89    9.40
  -2  -4   4   95.89    9.70
  -2   4   4   79.39    9.00
  -2   4   4   76.99    9.10
   2   4  -4   91.59    9.10
   2   4  -4   79.49    7.90
  -1  -4   4   56.09    8.30
   1  -4  -4   56.99    8.60
   1  -4  -4   54.29    8.10
  -1  -4   4   55.99    8.40
   1   4  -4   54.49    7.70
  -1   4   4   50.99    7.90
  -1   4   4   47.20    8.30
   1   4  -4   63.99    8.40
   0  -4  -4  519.35   23.00
   0  -4  -4  515.15   23.40
   0  -4   4  551.04   24.10
   0  -4   4  592.24   24.60
   0   4   4  519.05   24.20
   0   4  -4  517.65   22.90
   0   4   4  535.75   24.40
   0   4  -4  554.94   22.90
  -1  -4  -4  181.38   14.10
   1  -4   4  189.28   14.20
  -1  -4  -4  190.48   14.70
   1  -4   4  176.08   14.10
   1   4   4  189.68   15.10
  -1   4  -4  164.58   13.40
  -1   4  -4  191.18   14.10
   1   4   4  167.08   13.90
   2  -4   4  385.96   22.30
   2  -4   4  327.07   20.60
  -2  -4  -4  282.57   19.30
  -2  -4  -4  328.97   20.30
  -2   4  -4  335.57   20.90
   2   4   4  328.77   21.20
   2   4   4  290.07   19.70
  -2   4  -4  343.47   19.80
   3  -4   4   11.40    6.80
  -3  -4  -4    5.40    7.00
  -3  -4  -4   15.50    7.80
   3   4   4    3.80    5.80
  -3   4  -4   -0.50    7.50
  -3   4  -4   -2.80    6.10
   3   4   4   10.00    5.90
   4  -4   4    3.80    7.40
  -4  -4  -4    4.00    9.20
  -4  -4  -4    1.20    8.40
  -4   4  -4    2.40    9.20
  -4   4  -4   -0.60    7.20
   4   4   4   15.50    7.60
  -5  -4  -4   -1.40   11.20
   5  -4   4   -2.00    6.60
  -5  -4  -4  -11.90   10.20
   5   4   4    1.20    7.50
  -5   4  -4   -7.00    8.80
  -6  -4  -4    7.50   11.80
   6  -4   4   38.70   12.50
  -6   4  -4   45.80   14.80
  -6   4  -4   32.30   15.40
  -7  -4  -4   -2.90   11.40
  -7   4  -4  -30.00   15.40
  -7   4  -4   -1.60   11.20
  -8  -4  -4   24.90   17.50
  -8   4  -4   20.00   15.20
  -9  -4  -4   31.70   18.70
  -9   4  -4    1.00   16.00
 -11  -5   4    6.70   15.00
 -11  -5   4   -6.30   15.40
 -11   5   4    6.60   14.70
 -11   5   4   -9.60   16.60
 -10  -5   4  314.77   29.20
 -10  -5   4  339.57   31.50
 -10   5   4  296.17   29.10
 -10   5   4  345.67   33.00
  -9  -5   4  459.65   31.20
  -9  -5   4  499.55   35.60
  -9   5   4  470.05   33.50
  -9   5   4  483.05   32.20
  -8  -5   4   70.09   16.10
  -8  -5   4   75.69   14.70
  -8   5   4  118.19   19.10
  -8   5   4   69.19   13.90
  -7  -5   4  824.02   36.20
  -7  -5   4  882.91   41.00
   7   5  -4  841.42   44.20
  -7   5   4  798.42   38.00
  -7   5   4  849.91   40.50
   6  -5  -4 1505.35   55.09
  -6  -5   4 1524.85   50.39
  -6  -5   4 1516.35   54.49
  -6   5   4 1594.34   55.79
   6   5  -4 1572.84   58.09
  -6   5   4 1444.16   52.09
  -5  -5   4   60.59   10.90
  -5  -5   4   60.59   10.00
   5  -5  -4   49.00    9.90
   5  -5  -4   60.59   11.70
   5   5  -4   62.89   12.40
  -5   5   4   51.59   10.90
  -5   5   4   54.89    9.90
   4  -5  -4 1488.85   48.60
   4  -5  -4 1525.75   50.29
  -4  -5   4 1621.64   51.49
  -4  -5   4 1579.14   46.60
  -4   5   4 1539.05   49.20
  -4   5   4 1466.95   50.49
   4   5  -4 1522.65   50.79
   4   5  -4 1613.94   46.80
  -3  -5   4 2117.69   60.99
   3  -5  -4 2054.69   58.49
   3  -5  -4 2183.38   61.09
  -3  -5   4 2075.39   56.49
  -3   5   4 2057.09   59.49
   3   5  -4 2206.78   56.89
  -3   5   4 2156.38   62.59
   3   5  -4 2128.39   60.79
   2  -5  -4  150.48   11.50
  -2  -5   4  139.29   11.60
  -2  -5   4  152.98   11.10
   2  -5  -4  168.08   12.70
  -2   5   4  170.78   13.20
   2   5  -4  152.48   10.70
  -2   5   4  168.28   12.50
   2   5  -4  170.08   12.60
   1  -5  -4 1178.38   38.20
  -1  -5   4 1145.59   36.60
   1  -5  -4 1148.89   36.50
  -1  -5   4 1119.99   37.30
   1   5  -4 1171.68   36.40
   1   5  -4 1182.28   35.80
  -1   5   4 1132.29   38.00
  -1   5   4 1134.89   38.90
   0  -5   4 4863.51  115.59
   0  -5  -4 4848.42  115.09
   0  -5   4 4941.01  116.09
   0  -5  -4 4933.11  116.89
   0   5   4 4877.41  117.39
   0   5   4 4886.71  117.79
   0   5  -4 4842.92  113.29
   0   5  -4 4964.90  114.89
  -1  -5  -4 1841.92   54.29
   1  -5   4 1759.02   53.69
  -1  -5  -4 1805.12   53.59
   1  -5   4 1759.32   53.39
  -1   5  -4 1806.42   51.59
   1   5   4 1708.33   53.99
  -1   5  -4 1647.94   51.89
   1   5   4 1674.63   54.09
   2  -5   4  100.69   11.70
  -2  -5  -4   92.39   12.70
  -2  -5  -4   78.29   12.10
   2  -5   4   84.49   12.20
  -2   5  -4  104.79   13.80
   2   5   4   84.19   12.60
  -2   5  -4   94.79   11.40
   2   5   4  107.89   12.00
  -3  -5  -4 1379.26   49.80
   3  -5   4 1369.56   49.70
  -3  -5  -4 1378.06   51.09
  -3   5  -4 1338.67   47.60
  -3   5  -4 1419.06   51.09
   3   5   4 1413.46   51.89
   3   5   4 1384.36   50.29
  -4  -5  -4 1543.55   57.19
   4  -5   4 1431.56   53.79
  -4  -5  -4 1485.75   55.09
  -4   5  -4 1467.25   54.09
   4   5   4 1470.45   56.69
  -4   5  -4 1518.25   56.79
  -5  -5  -4    0.20    9.90
   5  -5   4   -2.60    6.70
  -5  -5  -4   15.50   12.20
   5   5   4  -15.00    7.70
  -5   5  -4   -3.50    9.70
   6  -5   4  516.95   33.70
  -6  -5  -4  500.65   37.50
  -6   5  -4  605.74   37.50
  -6   5  -4  498.45   34.90
  -7  -5  -4  506.35   38.80
  -7   5  -4  537.55   42.60
  -7   5  -4  536.45   38.70
  -8  -5  -4   10.40   14.70
  -8   5  -4   14.30   14.60
  -9  -5  -4  261.67   37.00
  -9   5  -4  278.27   36.00
 -11  -6   4  336.17   33.50
 -11  -6   4  377.06   38.00
 -11   6   4  353.26   35.00
 -11   6   4  423.56   39.10
 -10  -6   4  115.19   20.50
 -10  -6   4  145.49   25.50
 -10   6   4  116.89   20.20
 -10   6   4  168.78   24.90
  -9  -6   4   73.09   16.30
  -9  -6   4   52.39   14.20
  -9   6   4   65.49   15.70
  -9   6   4   52.49   15.70
  -8  -6   4 1002.60   42.80
  -8  -6   4  977.40   46.60
  -8   6   4  951.20   44.30
  -8   6   4  952.90   46.50
  -7  -6   4  696.93   36.80
  -7  -6   4  626.94   31.00
  -7   6   4  685.13   36.30
  -7   6   4  725.03   35.20
   7   6  -4  637.04   39.80
  -6  -6   4   32.20    9.10
  -6  -6   4   16.10    6.30
   6  -6  -4   36.70   10.50
  -6   6   4   21.90    7.30
   6   6  -4   14.00    9.50
  -6   6   4   15.70    8.40
   5  -6  -4 2258.17   66.29
   5  -6  -4 2142.59   66.89
  -5  -6   4 2149.48   66.39
  -5  -6   4 2096.59   60.39
  -5   6   4 2115.99   67.39
   5   6  -4 2197.98   68.19
  -5   6   4 2120.39   63.99
  -4  -6   4 1727.83   53.29
   4  -6  -4 1641.74   50.59
   4  -6  -4 1530.15   51.29
  -4  -6   4 1613.34   47.20
   4   6  -4 1466.95   45.80
  -4   6   4 1602.64   50.39
   4   6  -4 1602.74   52.09
  -4   6   4 1568.54   52.49
   3  -6  -4   61.39    9.90
   3  -6  -4   57.69    8.50
  -3  -6   4   70.99    7.70
  -3  -6   4   58.99    9.30
  -3   6   4   72.49   10.70
   3   6  -4   72.59    8.00
  -3   6   4   53.69    8.70
   3   6  -4   63.49    9.60
  -2  -6   4 1909.91   55.69
   2  -6  -4 2005.30   53.99
  -2  -6   4 2004.50   53.09
   2  -6  -4 1997.70   56.69
   2   6  -4 1944.41   51.69
  -2   6   4 1938.31   55.59
   2   6  -4 1976.00   55.39
  -2   6   4 1980.20   57.89
  -1  -6   4 3330.47   80.89
   1  -6  -4 3246.28   80.59
  -1  -6   4 3293.67   82.19
   1  -6  -4 3208.88   82.29
  -1   6   4 3262.77   84.29
  -1   6   4 3191.18   82.79
   1   6  -4 3372.96   79.69
   1   6  -4 3246.78   80.29
   0  -6  -4  470.75   22.50
   0  -6  -4  479.05   22.30
   0  -6   4  536.55   23.10
   0  -6   4  517.15   22.80
   0   6   4  465.45   22.90
   0   6   4  472.95   23.30
   0   6  -4  512.55   22.30
   0   6  -4  515.85   21.90
   1  -6   4 2454.15   68.49
  -1  -6  -4 2477.85   68.99
   1  -6   4 2426.26   68.69
  -1  -6  -4 2497.45   69.09
   1   6   4 2449.75   70.69
  -1   6  -4 2593.64   69.29
   1   6   4 2510.35   70.59
  -1   6  -4 2501.85   66.69
   2  -6   4 2722.23   76.59
  -2  -6  -4 2797.12   78.09
  -2  -6  -4 2735.03   76.99
  -2   6  -4 2773.72   77.59
   2   6   4 2779.22   79.69
   2   6   4 2749.92   78.49
  -2   6  -4 2803.62   75.19
   3  -6   4  290.97   20.10
  -3  -6  -4  273.97   20.80
  -3  -6  -4  254.07   19.70
   3   6   4  278.77   21.50
  -3   6  -4  259.17   20.50
   3   6   4  282.97   20.20
  -3   6  -4  262.37   19.30
  -4  -6  -4  440.36   27.80
   4  -6   4  458.85   27.20
  -4  -6  -4  428.46   29.70
  -4   6  -4  457.25   29.30
   4   6   4  487.25   30.50
  -4   6  -4  421.36   26.70
   5  -6   4  963.70   44.10
  -5  -6  -4  987.10   47.40
  -5  -6  -4  945.11   46.10
  -5   6  -4  959.00   44.20
   5   6   4  965.50   46.40
  -6  -6  -4  235.18   26.50
  -6   6  -4  233.78   27.50
  -6   6  -4  249.18   25.70
  -7  -6  -4  179.68   27.40
  -7   6  -4  153.18   23.10
  -7   6  -4  167.88   27.90
  -8  -6  -4  607.74   45.30
  -8   6  -4  594.84   44.30
  -9  -6  -4   65.49   22.70
  -9   6  -4  108.79   24.10
 -11  -7   4   -3.60   17.30
 -11  -7   4   -8.60   15.00
 -11   7   4   -0.20   16.00
 -11   7   4    2.80   14.60
 -10  -7   4    4.70   12.50
 -10  -7   4    3.40   12.70
 -10   7   4   12.20   13.40
 -10   7   4    1.40   11.50
  -9  -7   4    8.70   10.80
  -9  -7   4    6.70   10.70
  -9   7   4    0.10   10.60
  -9   7   4   -1.60    9.30
  -8  -7   4   25.50    9.50
  -8  -7   4   33.50   11.90
  -8   7   4   13.00    9.50
  -8   7   4    5.40    7.30
  -7  -7   4   62.09   11.70
  -7  -7   4   47.60   11.80
  -7   7   4   32.70    9.60
  -7   7   4   55.59   13.00
   7   7  -4   41.50   16.20
  -6  -7   4   68.59   13.40
  -6  -7   4   67.29   10.80
   6  -7  -4   43.40   10.90
  -6   7   4   44.90    9.90
   6   7  -4   80.69   15.50
  -6   7   4   61.19   12.70
  -5  -7   4   69.79   10.00
   5  -7  -4  111.19   12.80
   5  -7  -4  105.89   15.10
  -5  -7   4  115.79   13.10
  -5   7   4  131.99   12.90
   5   7  -4   94.39   14.80
  -5   7   4   82.19   14.20
  -4  -7   4   15.90    6.00
  -4  -7   4   27.00    6.00
   4  -7  -4   16.60    6.80
   4  -7  -4   20.90    6.70
  -4   7   4   19.20    5.90
   4   7  -4   13.80    5.20
  -4   7   4   16.00    6.60
   4   7  -4   14.30    6.40
  -3  -7   4   93.99   10.70
  -3  -7   4  109.79    9.20
   3  -7  -4  102.39   11.10
   3  -7  -4  113.09   10.30
   3   7  -4  104.39   10.90
  -3   7   4   99.09   10.20
   3   7  -4  119.69    9.50
  -3   7   4   94.89   10.90
  -2  -7   4   48.30    8.60
   2  -7  -4   60.89    9.40
  -2  -7   4   54.49    7.60
   2  -7  -4   49.50    7.40
   2   7  -4   41.40    7.60
  -2   7   4   67.79   10.40
  -2   7   4   53.29    8.20
   2   7  -4   41.50    6.60
  -1  -7   4   15.70    5.00
   1  -7  -4   22.20    5.20
   1  -7  -4   32.60    7.00
  -1  -7   4   23.00    5.40
  -1   7   4   25.90    5.90
  -1   7   4   32.00    7.50
   1   7  -4   25.60    5.30
   1   7  -4   21.80    5.20
   0  -7   4   13.90    4.50
   0  -7  -4    9.60    4.50
   0  -7  -4   14.30    5.20
   0  -7   4   16.10    5.20
   0   7   4   13.60    5.20
   0   7  -4   12.00    4.20
   0   7  -4   11.90    4.70
   0   7   4    7.70    4.60
  -1  -7  -4    1.60    4.20
   1  -7   4    3.10    3.90
   1  -7   4    8.10    4.40
  -1  -7  -4   10.20    5.70
  -1   7  -4   10.50    4.40
   1   7   4    5.90    4.60
   1   7   4   -0.60    4.00
  -1   7  -4   -1.60    4.20
  -2  -7  -4  105.09   13.80
  -2  -7  -4  112.99   12.80
   2  -7   4  103.89   12.10
   2   7   4   90.19   13.20
   2   7   4  101.99   13.80
  -2   7  -4  104.19   13.80
  -2   7  -4  107.89   12.00
   3  -7   4   76.89   12.40
  -3  -7  -4  109.69   15.80
  -3  -7  -4   96.79   13.90
   3   7   4   78.99   13.00
  -3   7  -4   90.69   13.10
   3   7   4   90.29   14.50
  -3   7  -4   90.29   15.30
  -4  -7  -4  140.99   19.50
   4  -7   4  149.39   18.60
  -4  -7  -4  165.68   19.30
   4   7   4  181.18   18.70
  -4   7  -4  158.78   16.50
  -4   7  -4  169.28   21.20
  -5  -7  -4    5.30   12.70
   5  -7   4   16.60    9.90
  -5  -7  -4   29.90   12.60
  -5   7  -4   14.20   11.80
   5   7   4   15.50   10.30
  -6  -7  -4   13.80   12.80
  -6   7  -4   20.10   10.60
  -6   7  -4   29.50   14.90
  -7  -7  -4  -12.60   12.80
  -7   7  -4   10.50   13.10
  -7   7  -4   16.10   18.80
  -8  -7  -4  -10.00   14.30
  -8   7  -4   -9.80   13.70
  -9  -7  -4   17.90   18.60
  -9   7  -4   -3.40   17.60
 -11  -8   4  423.06   34.10
 -11  -8   4  414.66   37.90
 -11   8   4  385.16   35.00
 -11   8   4  432.96   40.30
 -10  -8   4  215.48   26.10
 -10  -8   4  251.77   28.00
 -10   8   4  204.68   29.70
 -10   8   4  173.48   24.90
  -9  -8   4   40.60   12.40
  -9  -8   4   24.10   14.10
  -9   8   4    6.70    9.40
  -9   8   4   19.80   13.80
  -8  -8   4 1322.37   49.60
  -8  -8   4 1377.56   56.59
  -8   8   4 1254.57   54.99
  -8   8   4 1310.57   52.79
  -7  -8   4  371.96   22.90
  -7  -8   4  437.46   29.50
  -7   8   4  395.86   25.30
   7   8  -4  452.45   33.70
  -7   8   4  405.16   29.30
  -6  -8   4  132.49   15.00
  -6  -8   4  130.69   13.00
   6  -8  -4   90.69   14.50
   6   8  -4  130.09   18.80
  -6   8   4   98.59   15.40
  -6   8   4   92.39   13.10
  -5  -8   4 1774.82   58.79
   5  -8  -4 1887.71   60.79
  -5  -8   4 1839.32   52.69
   5  -8  -4 1825.12   57.69
   5   8  -4 1713.13   59.89
  -5   8   4 1878.71   57.59
  -5   8   4 1801.82   61.19
  -4  -8   4 1583.64   51.49
  -4  -8   4 1513.45   44.10
   4  -8  -4 1569.14   51.79
   4  -8  -4 1540.55   48.40
  -4   8   4 1502.25   48.10
   4   8  -4 1510.75   44.30
   4   8  -4 1491.15   50.59
  -4   8   4 1511.05   52.09
   3  -8  -4 1323.57   44.20
  -3  -8   4 1251.57   42.80
   3  -8  -4 1276.27   40.80
  -3  -8   4 1343.47   38.20
   3   8  -4 1196.48   42.10
  -3   8   4 1199.28   44.20
  -3   8   4 1327.67   42.20
   3   8  -4 1336.97   38.00
  -2  -8   4 3861.51   88.89
  -2  -8   4 3616.04   92.59
   2  -8  -4 3818.62   94.79
   2  -8  -4 3713.53   90.29
   2   8  -4 3828.92   87.59
  -2   8   4 3794.12   96.29
  -2   8   4 3669.93   92.39
   2   8  -4 3752.82   92.29
  -1  -8   4 2587.24   65.79
   1  -8  -4 2603.24   69.19
   1  -8  -4 2608.74   66.79
  -1  -8   4 2465.15   67.09
  -1   8   4 2487.95   68.29
  -1   8   4 2588.54   70.79
   1   8  -4 2495.15   65.69
   1   8  -4 2649.43   64.99
   0  -8   4  332.17   17.70
   0  -8  -4  309.97   17.40
   0  -8  -4  315.57   18.60
   0  -8   4  311.67   17.00
   0   8   4  334.07   19.10
   0   8   4  312.97   18.70
   0   8  -4  327.27   17.20
   0   8  -4  286.47   15.70
  -1  -8  -4 2306.87   66.49
   1  -8   4 2360.56   66.69
  -1  -8  -4 2248.88   65.99
   1  -8   4 2300.67   65.29
   1   8   4 2442.66   69.59
  -1   8  -4 2420.36   66.49
  -1   8  -4 2464.25   63.99
  -2  -8  -4 2291.67   67.29
  -2  -8  -4 2186.18   67.29
   2  -8   4 2371.26   67.09
  -2   8  -4 2338.07   64.49
  -2   8  -4 2275.77   67.49
   2   8   4 2241.88   67.89
   2   8   4 2252.87   69.39
   3  -8   4  600.94   29.50
  -3  -8  -4  619.64   31.00
  -3  -8  -4  633.44   32.20
  -3   8  -4  576.94   28.50
  -3   8  -4  590.04   31.70
   3   8   4  587.14   30.30
   3   8   4  597.74   31.70
  -4  -8  -4  596.94   34.50
   4  -8   4  592.64   31.60
  -4  -8  -4  642.04   34.30
   4   8   4  692.93   36.10
  -4   8  -4  598.64   34.10
  -4   8  -4  584.64   30.60
  -5  -8  -4 1281.97   56.39
  -5  -8  -4 1382.76   55.19
   5  -8   4 1365.76   53.29
   5   8   4 1259.07   55.29
  -5   8  -4 1361.46   54.09
  -6  -8  -4  242.08   26.60
  -6   8  -4  294.97   26.80
  -6   8  -4  254.27   25.50
  -7  -8  -4  211.48   29.10
  -7   8  -4  229.58   27.30
  -7   8  -4  262.67   29.90
  -8  -8  -4  622.34   48.80
  -8   8  -4  669.83   45.60
  -9  -8  -4  105.09   25.60
  -9   8  -4  115.99   24.60
 -11  -9   4   27.80   17.60
 -11  -9   4   -6.70   16.10
 -11   9   4   -1.10   18.30
 -11   9   4   36.90   15.80
 -10  -9   4  113.09   20.10
 -10  -9   4  159.98   26.60
 -10   9   4  146.19   25.50
 -10   9   4  118.89   19.30
  -9  -9   4  477.55   34.50
  -9  -9   4  430.76   29.80
  -9   9   4  466.45   31.50
  -9   9   4  450.25   34.00
  -8  -9   4   71.89   15.20
  -8  -9   4   79.79   14.30
  -8   9   4   54.49   13.00
  -8   9   4   68.69   16.60
  -7  -9   4  495.45   31.00
  -7  -9   4  490.85   26.40
  -7   9   4  502.25   29.10
  -7   9   4  547.25   33.10
   7   9  -4  486.85   35.80
  -6  -9   4  908.21   40.50
  -6  -9   4  910.11   34.80
   6  -9  -4  873.41   38.70
  -6   9   4  943.11   38.50
  -6   9   4  937.01   41.90
   6   9  -4  900.11   43.60
  -5  -9   4  280.27   16.10
  -5  -9   4  279.67   20.00
   5  -9  -4  286.17   19.60
   5  -9  -4  271.07   20.60
  -5   9   4  268.57   21.40
  -5   9   4  273.27   18.50
   5   9  -4  254.27   21.20
   4  -9  -4  151.68   13.50
  -4  -9   4  149.88   10.80
  -4  -9   4  158.88   14.10
   4  -9  -4  204.38   16.20
  -4   9   4  150.98   12.60
  -4   9   4  141.39   14.90
   4   9  -4  150.38   11.30
   4   9  -4  143.19   14.30
  -3  -9   4 1313.87   37.70
   3  -9  -4 1276.97   44.20
  -3  -9   4 1266.87   43.20
   3  -9  -4 1337.37   41.60
  -3   9   4 1313.57   46.20
   3   9  -4 1291.87   37.40
  -3   9   4 1291.47   41.80
   3   9  -4 1302.87   43.40
  -2  -9   4 1093.09   37.50
   2  -9  -4 1117.09   39.00
  -2  -9   4 1121.29   34.00
   2  -9  -4 1045.70   35.10
  -2   9   4 1120.59   40.80
   2   9  -4 1191.68   38.00
  -2   9   4 1091.79   37.10
   2   9  -4 1154.88   33.30
   1  -9  -4  224.28   15.20
  -1  -9   4  192.58   13.20
   1  -9  -4  233.38   14.10
  -1  -9   4  201.88   12.70
  -1   9   4  211.48   15.10
   1   9  -4  200.18   13.00
   1   9  -4  188.88   12.00
  -1   9   4  175.28   13.20
   0  -9   4 2184.88   60.29
   0  -9   4 2147.09   59.79
   0  -9  -4 2185.68   61.99
   0  -9  -4 2213.78   60.89
   0   9  -4 2128.39   57.79
   0   9  -4 2271.57   59.99
   0   9   4 2185.48   62.89
   0   9   4 2195.78   63.39
  -1  -9  -4 1828.42   55.49
   1  -9   4 1794.52   53.69
   1  -9   4 1842.42   54.99
  -1  -9  -4 1718.33   54.39
   1   9   4 1754.92   56.59
  -1   9  -4 1843.32   51.99
   1   9   4 1938.31   57.59
  -1   9  -4 1812.52   54.29
  -2  -9  -4  105.49   14.00
  -2  -9  -4   95.69   13.90
   2  -9   4   96.19   11.60
  -2   9  -4  105.89   11.60
  -2   9  -4  121.49   13.90
   2   9   4  104.09   13.90
   2   9   4  108.69   14.90
  -3  -9  -4  280.07   20.70
  -3  -9  -4  294.07   22.80
   3  -9   4  339.87   21.50
  -3   9  -4  329.67   22.80
  -3   9  -4  258.47   18.70
   3   9   4  273.87   21.40
   3   9   4  293.47   21.50
  -4  -9  -4  708.33   38.30
  -4  -9  -4  703.63   36.10
   4  -9   4  660.23   33.40
  -4   9  -4  711.13   37.80
   4   9   4  676.83   36.60
   4   9   4  703.33   35.20
  -4   9  -4  700.13   33.80
   5  -9   4   28.90   10.30
  -5  -9  -4   19.60   13.80
  -5  -9  -4   31.70   13.40
  -5   9  -4    9.70    9.50
   5   9   4   24.40   11.60
  -6  -9  -4  577.84   39.30
  -6   9  -4  536.15   35.30
  -6   9  -4  494.45   35.10
  -7  -9  -4  267.47   31.10
  -7   9  -4  360.76   35.00
  -7   9  -4  359.96   30.30
  -8  -9  -4   20.70   17.60
  -8   9  -4   -0.30   15.20
  -9  -9  -4  304.57   41.20
  -9   9  -4  210.88   31.60
 -11 -10   4   35.50   18.40
 -11 -10   4   36.50   18.00
 -11  10   4   17.60   17.50
 -11  10   4   29.80   16.90
 -10 -10   4   46.70   15.60
 -10 -10   4   22.90   16.50
 -10  10   4   23.30   14.10
 -10  10   4   12.70   14.60
  -9 -10   4   20.20   12.80
  -9 -10   4   52.49   13.20
  -9  10   4   36.60   15.20
  -9  10   4   18.40   12.00
  -8 -10   4  129.29   20.00
  -8 -10   4  175.38   17.60
  -8  10   4  135.19   20.70
  -8  10   4  156.08   18.50
  -7 -10   4   10.30    9.10
  -7 -10   4    4.40    6.70
  -7  10   4   -2.10    7.90
   7  10  -4    8.60   13.40
  -7  10   4   -0.50    6.20
   6 -10  -4  114.09   15.80
  -6 -10   4  101.89   11.80
  -6 -10   4  145.19   16.30
  -6  10   4  116.09   13.70
   6  10  -4   88.29   16.50
  -6  10   4   98.89   15.60
   5 -10  -4   89.29   13.00
  -5 -10   4   74.49   12.40
  -5 -10   4   75.19    8.90
   5 -10  -4   86.89   13.80
  -5  10   4   62.89   10.30
  -5  10   4   67.09   12.80
   5  10  -4   79.99   13.40
  -4 -10   4  316.57   16.00
   4 -10  -4  384.16   22.80
  -4 -10   4  350.16   21.20
   4 -10  -4  376.16   20.30
  -4  10   4  385.56   23.70
  -4  10   4  331.37   19.00
   4  10  -4  344.97   16.60
   4  10  -4  342.17   21.40
  -3 -10   4    8.10    3.80
  -3 -10   4    7.80    4.40
   3 -10  -4   10.70    4.40
   3 -10  -4   12.60    5.60
  -3  10   4   20.80    6.20
   3  10  -4   15.10    4.20
  -3  10   4    2.20    4.70
   3  10  -4   11.80    5.40
   2 -10  -4  666.93   28.70
   2 -10  -4  630.54   25.00
  -2 -10   4  657.33   23.60
  -2 -10   4  676.23   27.40
  -2  10   4  620.24   26.30
   2  10  -4  678.03   22.90
  -2  10   4  699.23   30.50
   2  10  -4  701.63   27.50
   1 -10  -4  950.00   32.40
  -1 -10   4  990.40   31.90
   1 -10  -4  970.50   35.40
  -1 -10   4  924.71   33.00
   1  10  -4  931.31   30.50
   1  10  -4  969.90   32.50
  -1  10   4 1009.50   37.00
  -1  10   4  961.50   34.60
   0 -10  -4   85.79    9.90
   0 -10   4   72.39    9.90
   0 -10   4   70.79    9.60
   0 -10  -4   79.79   11.20
   0  10   4   96.49   12.70
   0  10   4   51.99    8.60
   0  10  -4   84.69    8.60
   0  10  -4   84.39    8.80
  -1 -10  -4  265.47   17.50
   1 -10   4  277.47   17.00
  -1 -10  -4  253.97   17.50
  -1  10  -4  260.27   16.90
   1  10   4  265.57   18.30
   1  10   4  233.48   17.10
  -1  10  -4  258.57   15.30
  -2 -10  -4  488.05   26.10
   2 -10   4  462.25   23.80
  -2 -10  -4  431.96   24.20
   2  10   4  484.25   26.10
  -2  10  -4  476.25   22.70
  -2  10  -4  429.96   24.80
   2  10   4  470.05   26.50
   3 -10   4   11.90    7.00
  -3 -10  -4   11.10    7.20
  -3 -10  -4   23.30    8.60
   3  10   4    9.50    7.30
   3  10   4   16.10    7.20
  -3  10  -4    7.00    7.70
  -3  10  -4   10.40    6.60
   4 -10   4   -1.20    6.20
  -4 -10  -4   -1.90    8.60
  -4 -10  -4   -3.10    8.80
  -4  10  -4    2.90    7.70
  -4  10  -4    9.60   10.00
   4  10   4   -0.70    7.80
   4  10   4   -4.10    7.00
   5 -10   4  106.29   16.50
  -5 -10  -4   99.69   18.60
  -5  10  -4   65.99   13.60
   5  10   4   92.29   18.00
  -6 -10  -4  -15.30   10.30
  -6  10  -4   -6.50    9.60
  -6  10  -4   18.20   13.80
  -7 -10  -4   13.80   13.00
  -7  10  -4   10.20   10.90
  -7  10  -4  -13.50   15.20
  -8 -10  -4   52.69   20.70
  -8  10  -4   35.10   29.60
  -8  10  -4   57.99   19.10
  -9 -10  -4   17.20   22.80
  -9  10  -4   -0.60   18.20
 -11 -11   4   -9.50   16.20
 -11 -11   4   25.30   19.00
 -11  11   4   14.70   15.90
 -11  11   4   12.80   19.40
 -10 -11   4  314.57   27.20
 -10 -11   4  280.97   29.80
 -10  11   4  281.37   28.20
 -10  11   4  340.87   34.90
  -9 -11   4  519.75   36.60
  -9 -11   4  529.85   30.90
  -9  11   4  549.35   37.50
  -9  11   4  527.05   33.70
  -8 -11   4   98.79   15.00
  -8 -11   4   93.39   18.70
  -8  11   4   88.89   14.90
  -8  11   4   97.89   19.50
  -7 -11   4 1175.18   42.20
  -7 -11   4 1234.38   50.99
   7  11  -4 1096.89   53.19
  -7  11   4 1199.68   51.69
  -7  11   4 1101.29   45.30
  -6 -11   4 1204.98   48.00
   6 -11  -4 1181.08   46.40
  -6 -11   4 1156.98   39.50
   6  11  -4 1163.08   50.49
  -6  11   4 1144.99   48.80
  -6  11   4 1262.97   45.00
   5 -11  -4  314.77   20.40
   5 -11  -4  337.87   23.90
  -5 -11   4  301.37   16.50
  -5 -11   4  334.87   22.00
   5  11  -4  308.77   22.90
  -5  11   4  296.67   22.60
  -5  11   4  317.57   19.90
  -4 -11   4  867.21   28.30
  -4 -11   4  818.52   34.70
   4 -11  -4  839.62   36.10
   4 -11  -4  857.01   32.90
  -4  11   4  824.52   37.30
  -4  11   4  867.01   33.00
   4  11  -4  878.71   36.10
   4  11  -4  873.41   28.40
   3 -11  -4 5280.97  126.59
  -3 -11   4 5166.28  115.29
  -3 -11   4 5170.28  124.69
   3 -11  -4 5096.39  120.59
  -3  11   4 5219.58  122.39
   3  11  -4 5168.28  124.39
   3  11  -4 5272.57  115.29
  -3  11   4 5060.19  128.49
   2 -11  -4 1296.17   43.70
  -2 -11   4 1274.27   41.30
  -2 -11   4 1284.97   36.60
   2 -11  -4 1252.47   38.70
   2  11  -4 1311.57   41.20
   2  11  -4 1332.57   35.90
  -2  11   4 1310.27   45.40
  -2  11   4 1055.19   38.80
   1 -11  -4  653.63   27.60
   1 -11  -4  616.84   24.60
  -1 -11   4  614.84   23.70
  -1 -11   4  616.24   25.30
  -1  11   4  640.04   28.60
   1  11  -4  621.74   23.00
   1  11  -4  579.94   23.90
  -1  11   4  646.84   26.70
   0 -11  -4 3653.03   90.79
   0 -11   4 3636.64   89.59
   0 -11   4 3554.44   89.19
   0 -11  -4 3531.35   91.69
   0  11   4 3535.65   92.59
   0  11  -4 3633.24   88.69
   0  11  -4 3665.93   87.29
   0  11   4 3752.82   94.69
  -1 -11  -4 1510.45   49.40
   1 -11   4 1526.15   47.70
  -1 -11  -4 1581.54   50.09
   1  11   4 1595.04   52.19
   1  11   4 1526.15   50.89
  -1  11  -4 1582.94   49.10
  -1  11  -4 1553.34   45.80
  -2 -11  -4   55.29   11.10
   2 -11   4   45.00    9.00
  -2 -11  -4   41.00    9.60
   2  11   4   40.00    9.70
  -2  11  -4   39.10    9.30
  -2  11  -4   59.39    9.50
   2  11   4   54.29   10.70
   3 -11   4 1762.82   57.59
  -3 -11  -4 1855.51   62.49
  -3 -11  -4 1813.12   59.99
  -3  11  -4 1809.22   61.39
  -3  11  -4 1880.51   56.99
   3  11   4 1763.82   59.99
   3  11   4 1775.52   62.09
  -4 -11  -4 1532.45   59.29
   4 -11   4 1617.34   55.59
  -4 -11  -4 1619.94   57.29
  -4  11  -4 1459.65   57.69
   4  11   4 1513.75   56.29
   4  11   4 1563.24   59.89
  -4  11  -4 1585.94   54.29
  -5 -11  -4   38.50   14.00
   5 -11   4   51.59   12.70
  -5  11  -4   43.60   11.90
   5  11   4   30.30   12.10
  -6 -11  -4  724.13   45.00
  -6  11  -4  668.03   39.80
  -6  11  -4  691.23   39.50
  -7 -11  -4  343.07   34.20
  -7  11  -4  367.06   35.10
  -7  11  -4  430.86   33.30
  -8 -11  -4  -11.80   16.70
  -8  11  -4    5.90   14.60
  -8  11  -4  -50.69   23.30
  -9 -11  -4  207.48   33.40
  -9  11  -4  112.89   25.90
 -11 -12   4  111.19   26.00
 -11 -12   4  160.18   24.00
 -11  12   4  142.19   28.00
 -11  12   4  111.79   22.90
 -10 -12   4   89.39   18.60
 -10 -12   4   69.09   19.20
 -10  12   4   88.49   20.40
 -10  12   4   92.49   18.60
  -9 -12   4   24.90   11.60
  -9 -12   4   41.80   15.00
  -9  12   4   40.30   16.80
  -9  12   4   36.90   12.60
  -8 -12   4  389.36   30.60
  -8 -12   4  462.55   25.90
  -8  12   4  442.76   28.60
  -8  12   4  434.96   32.40
  -7 -12   4  606.64   28.20
  -7 -12   4  579.84   34.10
   7  12  -4  577.14   38.40
  -7  12   4  599.94   35.70
  -7  12   4  560.04   30.50
  -6 -12   4   11.70    5.70
   6 -12  -4    2.90    8.40
  -6 -12   4    0.10    6.40
  -6  12   4   14.20    6.90
  -6  12   4   10.60    8.30
   6  12  -4    8.90   10.40
  -5 -12   4  222.78   13.60
  -5 -12   4  242.68   18.80
   5 -12  -4  232.68   17.80
   5 -12  -4  269.47   21.00
  -5  12   4  212.78   20.20
   5  12  -4  223.48   19.70
  -5  12   4  203.98   16.20
  -4 -12   4  233.18   12.90
   4 -12  -4  251.47   19.90
  -4 -12   4  281.77   19.30
   4 -12  -4  264.27   17.10
  -4  12   4  244.48   16.30
  -4  12   4  226.78   18.90
   4  12  -4  254.47   19.40
   4  12  -4  259.27   13.60
   3 -12  -4   18.50    6.10
   3 -12  -4   12.10    6.60
  -3 -12   4   30.30    5.30
  -3 -12   4   25.00    6.60
  -3  12   4   23.10    7.60
   3  12  -4   18.10    6.30
  -3  12   4   34.80    7.00
   3  12  -4   27.90    5.40
   2 -12  -4  667.53   29.30
  -2 -12   4  623.34   26.50
   2 -12  -4  691.43   25.60
  -2 -12   4  641.44   22.80
  -2  12   4  704.03   27.40
   2  12  -4  628.44   21.90
  -2  12   4  664.63   30.30
   2  12  -4  614.74   26.20
   1 -12  -4  894.51   34.30
  -1 -12   4  926.21   32.40
  -1 -12   4  935.61   30.50
   1 -12  -4  925.31   31.70
   1  12  -4  928.21   29.80
  -1  12   4  869.11   33.10
   1  12  -4  877.31   30.90
   0 -12  -4   48.60    8.70
   0 -12  -4   57.19    9.50
   0 -12   4   43.70    7.70
   0 -12   4   31.00    6.50
   0  12   4   52.79    9.70
   0  12   4   45.70    8.90
   0  12  -4   44.40    7.10
   0  12  -4   29.10    6.80
  -1 -12  -4  752.82   31.00
  -1 -12  -4  687.03   29.90
   1 -12   4  659.33   27.50
  -1  12  -4  680.53   26.10
   1  12   4  633.34   30.00
  -1  12  -4  650.03   28.20
   1  12   4  703.33   31.00
  -2 -12  -4  485.85   25.50
  -2 -12  -4  472.05   26.70
   2 -12   4  477.25   24.10
  -2  12  -4  465.85   22.50
   2  12   4  474.45   25.80
   2  12   4  500.45   27.40
  -2  12  -4  490.75   26.00
  -3 -12  -4    2.50    7.20
  -3 -12  -4    2.40    6.60
   3 -12   4    7.00    5.60
   3  12   4    3.30    6.10
   3  12   4   -6.50    5.10
  -3  12  -4    7.60    7.80
  -3  12  -4   -1.40    5.50
  -4 -12  -4   -1.60    9.10
   4 -12   4    7.40    6.90
  -4 -12  -4   -0.80    8.10
   4  12   4    6.10    7.50
  -4  12  -4   11.70   11.00
  -4  12  -4    5.80    7.80
   4  12   4    5.30    7.20
   5 -12   4  436.86   28.70
  -5 -12  -4  412.06   31.00
  -5  12  -4  463.85   29.40
   5  12   4  396.76   29.80
  -6 -12  -4   72.59   17.80
  -6  12  -4   82.69   18.40
  -6  12  -4   81.09   16.90
  -7 -12  -4   59.69   19.00
  -7  12  -4   19.10   13.40
  -7  12  -4   77.09   22.30
  -8 -12  -4  256.07   34.00
  -8  12  -4  265.57   32.60
  -8  12  -4  284.57   36.80
  -9 -12  -4   41.40   25.00
  -9  12  -4   44.80   20.90
 -11 -13   4    8.40   16.70
 -11 -13   4   -6.30   18.70
 -11  13   4   19.40   15.50
 -11  13   4    3.30   21.60
 -10 -13   4  114.89   19.70
 -10 -13   4  125.29   22.90
 -10  13   4  108.19   19.70
 -10  13   4   81.69   21.80
  -9 -13   4  223.58   25.50
  -9 -13   4  207.08   20.60
  -9  13   4  145.29   20.10
  -9  13   4  223.58   26.00
  -8 -13   4    3.20    8.20
  -8 -13   4   12.50   11.10
  -8  13   4    8.80   11.00
  -8  13   4    6.60    9.70
  -7 -13   4  412.46   29.30
  -7 -13   4  414.76   22.60
  -7  13   4  394.16   29.20
  -7  13   4  295.77   22.50
   7  13  -4  370.96   31.80
   6 -13  -4  192.08   19.00
  -6 -13   4  232.38   15.30
  -6 -13   4  211.88   19.50
  -6  13   4  232.78   18.10
  -6  13   4  197.08   20.00
   6  13  -4  249.58   23.40
  -5 -13   4   11.60    4.50
   5 -13  -4    1.10    6.20
   5 -13  -4   11.10    8.00
  -5 -13   4    2.80    5.50
  -5  13   4    5.30    6.20
   5  13  -4    2.60    8.30
  -5  13   4   10.20    5.70
  -4 -13   4  106.29    8.60
  -4 -13   4  102.99   14.00
   4 -13  -4   95.79   11.00
   4 -13  -4  117.89   15.90
  -4  13   4   76.79   12.80
   4  13  -4   97.99   14.00
  -4  13   4  117.29   11.40
   3 -13  -4  877.71   31.50
  -3 -13   4  881.21   34.20
  -3 -13   4  870.31   26.70
   3 -13  -4  823.12   34.90
   3  13  -4  799.12   33.10
   3  13  -4  910.81   26.90
  -3  13   4  885.61   37.70
  -3  13   4  892.01   32.50
  -2 -13   4  703.63   23.90
   2 -13  -4  679.83   26.10
   2 -13  -4  727.73   31.00
  -2 -13   4  670.83   28.10
   2  13  -4  722.33   23.30
  -2  13   4  753.72   28.70
   2  13  -4  733.33   28.80
  -2  13   4  715.93   32.10
  -1 -13   4  699.13   27.10
   1 -13  -4  681.43   29.30
  -1 -13   4  734.73   25.80
   1 -13  -4  713.23   26.80
   1  13  -4  673.53   24.50
   1  13  -4  708.33   26.70
  -1  13   4  666.43   30.20
  -1  13   4  674.13   28.10
   0 -13  -4 1173.88   39.70
   0 -13  -4 1186.58   41.30
   0 -13   4 1145.89   38.10
   0  13   4 1190.58   42.60
   0  13  -4 1194.38   38.20
   0  13   4 1213.78   41.90
   0  13  -4 1177.28   36.60
  -1 -13  -4  158.58   14.10
  -1 -13  -4  190.68   15.70
   1 -13   4  150.38   12.70
   1  13   4  172.08   14.80
   1  13   4  158.68   14.70
  -1  13  -4  189.38   14.60
  -1  13  -4  183.38   12.70
   2 -13   4   -3.30    4.30
  -2 -13  -4   10.20    6.10
  -2 -13  -4   -7.40    6.20
  -2  13  -4    3.20    4.80
   2  13   4    3.10    5.00
   2  13   4   -1.30    5.40
  -2  13  -4   17.70    7.70
  -3 -13  -4  434.56   27.40
   3 -13   4  418.66   23.70
  -3 -13  -4  392.56   25.30
   3  13   4  455.65   26.70
  -3  13  -4  423.86   26.60
  -3  13  -4  387.16   22.10
   3  13   4  405.36   26.40
  -4 -13  -4  485.65   29.60
  -4 -13  -4  495.95   32.00
   4 -13   4  448.36   26.60
   4  13   4  480.15   28.70
  -4  13  -4  508.55   33.10
  -4  13  -4  368.96   24.30
   4  13   4  493.85   31.10
  -5 -13  -4    9.10   12.50
   5 -13   4   24.10   10.50
  -5  13  -4   38.80   12.30
   5  13   4   45.80   13.60
  -6 -13  -4   88.39   19.20
  -6  13  -4  106.99   19.10
  -6  13  -4   87.89   17.20
  -7 -13  -4   32.50   17.90
  -7  13  -4   52.69   20.30
  -7  13  -4   35.90   14.10
  -8 -13  -4   12.70   17.00
  -8  13  -4    9.90   24.60
  -8  13  -4   28.90   16.10
 -10 -14   4  176.58   22.80
 -10 -14   4  150.28   25.20
 -10  14   4  181.68   28.30
 -10  14   4  176.98   23.80
  -9 -14   4   56.29   16.20
  -9 -14   4   72.29   14.80
  -9  14   4   81.79   18.50
  -9  14   4   95.99   17.10
  -8 -14   4 1190.08   44.00
  -8 -14   4 1282.37   55.59
  -8  14   4 1162.98   48.50
  -8  14   4 1140.29   54.59
  -7 -14   4  627.34   28.10
  -7 -14   4  625.54   35.60
  -7  14   4  573.04   36.80
  -7  14   4  654.13   32.30
   7  14  -4  649.43   42.60
   6 -14  -4   -5.30    8.10
  -6 -14   4   11.30    7.50
  -6 -14   4    6.10    4.90
  -6  14   4    0.40    7.70
   6  14  -4   10.20   10.80
  -6  14   4   15.40    7.20
  -5 -14   4 1024.30   31.60
   5 -14  -4 1011.20   38.40
  -5 -14   4 1016.60   41.50
  -5  14   4  962.30   37.10
   5  14  -4 1040.10   44.10
  -5  14   4  961.80   44.30
  -4 -14   4 1974.50   49.70
  -4 -14   4 1970.70   61.39
   4 -14  -4 1987.80   57.29
   4 -14  -4 2040.20   64.39
  -4  14   4 1945.41   57.19
   4  14  -4 1965.90   62.09
  -4  14   4 1961.60   65.49
   3 -14  -4   63.39   11.00
  -3 -14   4   80.99   11.60
   3 -14  -4   63.69    9.20
  -3 -14   4   79.89    7.10
  -3  14   4   68.69    9.50
  -3  14   4   78.19   12.90
   3  14  -4   63.39   10.00
   3  14  -4   74.69    6.90
  -2 -14   4 1869.21   47.60
  -2 -14   4 1781.52   53.39
   2 -14  -4 1881.91   51.19
   2 -14  -4 1861.91   57.19
   2  14  -4 1775.62   46.10
  -2  14   4 1855.41   59.59
  -2  14   4 1828.62   53.39
   2  14  -4 1809.12   53.39
   1 -14  -4 2715.83   73.99
  -1 -14   4 2669.23   69.79
   1 -14  -4 2662.23   69.19
  -1 -14   4 2623.84   66.89
   1  14  -4 2636.34   65.99
  -1  14   4 2699.23   72.29
   1  14  -4 2663.83   69.29
  -1  14   4 2747.93   76.39
   0 -14  -4  204.88   15.30
   0 -14  -4  176.98   13.50
   0 -14   4  185.58   13.20
   0  14   4  195.48   14.90
   0  14   4  171.68   14.70
   0  14  -4  195.08   13.50
   0  14  -4  190.28   12.50
  -1 -14  -4 1563.34   51.09
  -1 -14  -4 1628.54   51.99
   1 -14   4 1568.04   48.40
   1  14   4 1613.54   53.19
   1  14   4 1590.34   53.39
  -1  14  -4 1595.04   50.19
  -1  14  -4 1625.44   46.50
  -2 -14  -4 1937.01   61.89
   2 -14   4 1883.81   57.09
  -2 -14  -4 1926.21   60.19
   2  14   4 1867.51   60.59
  -2  14  -4 1965.10   55.19
  -2  14  -4 1946.41   61.09
   2  14   4 1862.21   62.29
   3 -14   4  651.13   29.90
  -3 -14  -4  621.54   33.50
  -3 -14  -4  662.73   32.00
  -3  14  -4  582.44   27.60
   3  14   4  623.74   33.40
  -3  14  -4  605.84   32.60
   3  14   4  626.34   31.90
  -4 -14  -4 1099.79   50.29
  -4 -14  -4 1132.69   46.30
   4 -14   4 1110.49   44.10
   4  14   4 1079.59   49.00
  -4  14  -4 1173.38   43.90
  -4  14  -4 1097.09   49.30
   4  14   4 1200.68   48.30
   5 -14   4 1578.44   57.19
  -5 -14  -4 1566.34   65.89
  -5 -14  -4 1588.24   60.69
  -5  14  -4 1616.74   59.79
  -5  14  -4 1500.15   55.89
   5  14   4 1501.05   62.69
  -6 -14  -4  224.98   30.30
  -6  14  -4  237.58   26.70
  -6  14  -4  216.38   22.90
  -7 -14  -4   89.49   20.80
  -7  14  -4  132.19   23.70
  -7  14  -4  115.39   21.00
  -8 -14  -4  391.86   40.20
  -8  14  -4  409.66   36.80
  -8  14  -4  493.25   46.60
 -10 -15   4   30.40   15.70
 -10 -15   4   21.40   13.70
 -10  15   4   15.60   13.20
 -10  15   4   31.00   17.80
  -9 -15   4   78.19   19.40
  -9 -15   4   50.29   12.50
  -9  15   4   37.00   16.70
  -9  15   4   95.09   17.40
  -8 -15   4   12.40   12.20
  -8 -15   4   13.70    8.40
  -8  15   4   18.70    9.10
  -8  15   4    9.20   11.20
  -7 -15   4   68.69   14.70
  -7 -15   4   66.29   10.60
  -7  15   4   77.39   13.70
   7  15  -4   81.19   19.90
  -7  15   4   82.09   16.90
   6 -15  -4  293.47   22.10
  -6 -15   4  264.57   15.70
  -6 -15   4  231.98   20.50
  -6  15   4  246.18   18.60
  -6  15   4  253.07   23.90
   6  15  -4  276.67   27.00
  -5 -15   4  130.19    9.80
   5 -15  -4  107.39   13.80
  -5 -15   4  122.59   14.30
  -5  15   4   86.09   14.60
  -5  15   4  136.39   13.30
   5  15  -4  124.39   17.90
  -4 -15   4  145.89   14.30
   4 -15  -4  166.58   17.70
   4 -15  -4  153.48   13.80
  -4 -15   4  158.38    9.50
   4  15  -4  160.58   16.30
  -4  15   4  169.98   17.30
  -4  15   4  155.18   13.30
   3 -15  -4  385.16   19.50
  -3 -15   4  414.56   22.20
  -3 -15   4  407.36   15.50
   3 -15  -4  422.76   24.40
   3  15  -4  370.26   21.70
  -3  15   4  379.26   24.20
   3  15  -4  398.86   15.30
  -3  15   4  397.36   20.00
   2 -15  -4   14.70    5.10
  -2 -15   4   18.50    4.20
   2 -15  -4   18.30    6.90
  -2 -15   4   17.40    5.80
  -2  15   4   25.00    6.50
   2  15  -4   20.00    6.50
   2  15  -4   18.30    4.30
  -2  15   4   25.60    7.80
  -1 -15   4  177.48   11.80
  -1 -15   4  197.28   13.60
   1 -15  -4  225.88   16.50
   1 -15  -4  189.48   13.50
  -1  15   4  206.58   16.60
   1  15  -4  216.58   13.80
  -1  15   4  207.08   15.10
   1  15  -4  193.38   12.10
   0 -15   4  439.56   20.80
   0 -15  -4  425.56   21.60
   0 -15  -4  462.45   23.50
   0  15   4  427.56   23.70
   0  15   4  459.05   23.40
   0  15  -4  458.55   21.00
   0  15  -4  420.76   19.40
  -1 -15  -4  243.48   17.80
   1 -15   4  245.38   16.00
  -1 -15  -4  276.17   19.10
   1  15   4  250.27   18.60
  -1  15  -4  254.77   17.40
   1  15   4  263.67   19.10
  -1  15  -4  260.17   14.80
  -2 -15  -4   -0.20    7.00
  -2 -15  -4    4.70    6.70
   2 -15   4    2.60    4.90
   2  15   4    9.70    6.30
  -2  15  -4    3.80    6.10
  -2  15  -4    4.20    4.60
   2  15   4   -4.00    5.20
   3 -15   4   87.59   12.40
  -3 -15  -4   58.69   14.10
  -3 -15  -4   68.19   13.30
   3  15   4   68.19   14.10
  -3  15  -4   94.39   15.70
  -3  15  -4   73.39   11.40
   3  15   4   62.89   12.00
  -4 -15  -4   53.19   13.30
   4 -15   4   53.99   11.00
  -4  15  -4   76.39   12.80
  -4  15  -4   60.99   15.80
   4  15   4   37.00   11.20
   4  15   4   53.29   12.60
   5 -15   4   -8.80    7.20
  -5 -15  -4    6.80   11.30
  -5 -15  -4   -3.90   12.10
  -5  15  -4   -5.90    9.00
  -5  15  -4   -1.10    7.90
   5  15   4   12.00    9.70
  -6 -15  -4  102.29   21.10
  -6  15  -4   81.69   16.30
  -6  15  -4   84.89   17.50
  -7 -15  -4   73.89   20.90
  -7  15  -4   68.89   20.60
  -7  15  -4   63.29   17.20
  -8 -15  -4   30.90   20.50
  -8  15  -4  -11.60   14.20
  -8  15  -4  -21.60   23.50
 -10 -16   4  100.69   24.10
 -10 -16   4   77.79   16.60
 -10  16   4   63.39   23.50
 -10  16   4   52.19   16.70
  -9 -16   4    0.60   12.70
  -9 -16   4    1.50    9.90
  -9  16   4   -0.60   12.80
  -9  16   4   21.30   10.60
  -8 -16   4  564.54   35.90
  -8 -16   4  567.64   28.20
  -8  16   4  488.25   35.90
  -8  16   4  507.75   30.20
  -7 -16   4  238.88   16.50
  -7 -16   4  275.47   23.90
  -7  16   4  255.87   20.10
   7  16  -4  237.88   30.90
  -7  16   4  262.27   25.10
  -6 -16   4   13.20    7.90
  -6 -16   4   10.00    5.40
   6 -16  -4   -0.70    8.80
   6  16  -4    2.90   10.00
  -6  16   4   14.40    7.20
  -6  16   4   15.30    9.10
  -5 -16   4  930.31   27.90
  -5 -16   4  892.11   38.60
   5 -16  -4  845.12   34.80
  -5  16   4  862.61   34.10
   5  16  -4  933.81   42.00
  -5  16   4  858.91   41.80
   4 -16  -4 1016.90   35.90
  -4 -16   4  968.20   39.20
  -4 -16   4 1006.70   28.20
   4 -16  -4 1023.90   42.30
  -4  16   4 1038.20   44.20
   4  16  -4  988.60   40.20
  -4  16   4  979.40   35.70
   3 -16  -4    5.60    4.60
  -3 -16   4    6.20    3.10
  -3 -16   4    8.50    5.70
   3 -16  -4    4.60    6.40
  -3  16   4    9.10    6.80
   3  16  -4    4.30    5.40
  -3  16   4    8.60    4.80
   3  16  -4    7.90    3.30
  -2 -16   4  749.73   29.60
   2 -16  -4  738.03   32.40
   2 -16  -4  721.33   27.00
  -2 -16   4  763.62   24.10
  -2  16   4  777.72   29.80
   2  16  -4  736.43   29.30
  -2  16   4  730.93   33.80
   2  16  -4  763.52   23.40
   1 -16  -4 1332.47   41.20
  -1 -16   4 1304.57   41.30
   1 -16  -4 1392.26   46.30
  -1  16   4 1296.17   46.80
  -1  16   4 1312.77   43.70
   1  16  -4 1311.77   40.90
   1  16  -4 1324.07   38.20
   0 -16  -4  171.58   13.80
   0 -16   4  188.28   13.20
   0 -16  -4  210.18   16.40
   0  16   4  182.68   15.50
   0  16   4  174.08   15.10
   0  16  -4  179.98   13.20
   0  16  -4  183.48   12.30
  -1 -16  -4  997.10   38.00
  -1 -16  -4  970.50   37.60
   1 -16   4  995.10   34.70
  -1  16  -4  964.60   32.20
  -1  16  -4  971.90   36.50
   1  16   4  952.50   38.80
   1  16   4  918.11   38.00
  -2 -16  -4  884.11   37.80
   2 -16   4  907.01   34.30
  -2 -16  -4  859.41   36.20
  -2  16  -4  834.02   31.10
  -2  16  -4  866.71   37.10
   2  16   4  896.01   37.80
   2  16   4  894.61   39.10
  -3 -16  -4  430.26   26.40
   3 -16   4  428.86   23.40
  -3 -16  -4  410.26   27.30
   3  16   4  386.06   26.40
   3  16   4  393.76   24.90
  -3  16  -4  363.16   20.90
  -3  16  -4  402.86   27.30
  -4 -16  -4  273.07   22.80
   4 -16   4  237.18   19.50
  -4  16  -4  211.28   25.00
   4  16   4  262.17   21.90
   4  16   4  255.67   23.00
  -4  16  -4  259.07   19.40
   5 -16   4  510.35   29.80
  -5 -16  -4  546.05   37.40
  -5 -16  -4  480.45   31.50
  -5  16  -4  498.45   31.10
  -5  16  -4  494.65   29.40
   5  16   4  489.55   33.50
  -6 -16  -4   95.39   20.90
  -6  16  -4  128.39   20.10
  -6  16  -4  123.59   19.00
  -7 -16  -4   37.40   18.60
  -7  16  -4   23.00   13.90
  -7  16  -4   35.40   18.90
  -8 -16  -4  246.88   35.10
  -8  16  -4  185.88   31.40
  -8  16  -4  220.08   29.10
 -10 -17   4  250.47   29.90
 -10 -17   4  306.57   26.70
 -10 -17   4  270.47   35.10
 -10  17   4  305.97   28.80
 -10  17   4  340.37   35.90
  -9 -17   4  463.55   35.50
  -9 -17   4  456.65   27.50
  -9  17   4  476.55   31.00
  -9  17   4  403.06   34.70
  -8 -17   4   -2.80    7.40
  -8 -17   4   18.60   11.50
  -8  17   4   18.40    9.40
  -8  17   4    6.60   12.10
  -7 -17   4  624.04   26.10
  -7 -17   4  566.54   34.70
   7  17  -4  654.43   41.90
  -7  17   4  627.84   31.20
  -7  17   4  561.84   36.30
   6 -17  -4 1121.69   44.90
  -6 -17   4 1229.18   49.60
  -6 -17   4 1211.88   36.10
  -6  17   4 1228.08   52.79
   6  17  -4 1206.68   53.29
  -6  17   4 1154.88   42.90
  -5 -17   4  290.77   13.10
  -5 -17   4  283.87   20.90
   5 -17  -4  282.87   18.90
  -5  17   4  271.07   23.90
  -5  17   4  269.07   17.90
   5  17  -4  316.17   25.00
   4 -17  -4  770.62   35.60
  -4 -17   4  768.42   33.80
  -4 -17   4  714.03   21.40
   4 -17  -4  679.43   28.70
  -4  17   4  751.92   37.10
   4  17  -4  710.03   33.80
  -4  17   4  772.32   30.10
  -3 -17   4 2438.96   56.29
  -3 -17   4 2482.75   69.59
   3 -17  -4 2383.16   72.69
   3 -17  -4 2414.86   64.69
   3  17  -4 2422.96   55.79
  -3  17   4 2413.06   66.09
   3  17  -4 2456.85   69.79
  -3  17   4 2513.05   76.39
   2 -17  -4  845.72   34.90
   2 -17  -4  814.62   28.80
  -2 -17   4  826.52   25.00
  -2 -17   4  753.62   30.30
  -2  17   4  855.91   31.50
   2  17  -4  804.32   24.20
   2  17  -4  826.12   31.50
  -2  17   4  736.73   34.80
   1 -17  -4  478.45   24.90
   1 -17  -4  472.75   21.50
  -1 -17   4  463.25   21.50
   1  17  -4  480.05   21.70
  -1  17   4  473.25   23.30
  -1  17   4  484.95   26.20
   1  17  -4  484.15   19.40
   0 -17  -4 2161.88   65.19
   0 -17   4 2222.58   60.59
   0 -17  -4 2241.58   62.99
   0  17  -4 2314.47   60.99
   0  17   4 2206.58   66.99
   0  17  -4 2232.28   58.79
   0  17   4 2197.58   65.09
  -1 -17  -4  996.70   39.10
   1 -17   4 1072.69   36.40
  -1 -17  -4  991.90   38.60
  -1  17  -4 1023.10   33.50
   1  17   4 1030.10   40.80
  -1  17  -4 1087.29   38.80
   1  17   4 1055.29   41.20
  -2 -17  -4   66.49   11.40
  -2 -17  -4   69.59   12.30
   2 -17   4   79.79   11.60
   2  17   4   62.59   12.00
  -2  17  -4   69.29   12.50
  -2  17  -4   73.49    9.70
   2  17   4   88.39   14.00
   3 -17   4 1619.54   52.19
  -3 -17  -4 1535.05   54.39
  -3 -17  -4 1570.44   58.19
   3  17   4 1614.74   59.09
  -3  17  -4 1610.14   49.90
   3  17   4 1586.74   56.19
  -3  17  -4 1622.14   58.39
   4 -17   4  938.71   38.70
  -4 -17  -4  849.81   40.70
   4  17   4  928.81   41.90
  -4  17  -4  895.51   37.00
  -4  17  -4  915.71   46.60
   4  17   4  934.41   45.30
   5 -17   4   32.20   11.10
  -5 -17  -4   56.19   16.90
  -5 -17  -4   46.80   15.60
  -5  17  -4   57.89   13.70
  -5  17  -4   32.40   11.60
  -6 -17  -4  737.73   45.80
  -6  17  -4  712.43   38.90
  -6  17  -4  743.03   40.20
  -7 -17  -4  458.85   39.40
  -7  17  -4  446.86   34.10
  -7  17  -4  461.15   37.00
  -8 -17  -4    3.60   19.00
  -8  17  -4   -8.50   14.30
 -10 -18   4   23.80   21.10
 -10 -18   4    3.80   12.40
 -10 -18   4    0.90   15.50
 -10  18   4    7.70   12.10
 -10  18   4  -12.20   14.90
  -9 -18   4    8.60   10.40
  -9 -18   4   -5.30   13.60
  -9  18   4   10.60   10.30
  -9  18   4    1.00   14.20
  -8 -18   4   15.70   12.20
  -8 -18   4   23.30    8.40
  -8  18   4   34.30   10.70
  -8  18   4   22.20   13.50
  -7 -18   4   20.10   11.50
  -7 -18   4   33.60    7.80
  -7  18   4   33.30    9.90
  -7  18   4   17.60   11.30
   7  18  -4   24.20   17.50
  -6 -18   4   34.30    6.50
  -6 -18   4   53.89   12.70
   6 -18  -4   35.90   10.40
  -6  18   4   20.90   10.00
   6  18  -4   24.80   12.80
  -6  18   4   38.90    9.20
  -5 -18   4    1.30    3.40
   5 -18  -4   -2.80    6.00
  -5 -18   4   -1.30    6.70
  -5  18   4   11.30    8.10
  -5  18   4   -5.60    4.60
   5  18  -4   12.60    9.60
   4 -18  -4   -0.10    7.60
  -4 -18   4    1.50    2.60
   4 -18  -4   14.60    6.00
  -4 -18   4   11.80    6.20
  -4  18   4    7.00    7.60
  -4  18   4    6.60    5.00
   4  18  -4    4.50    6.90
  -3 -18   4   70.49    5.70
  -3 -18   4   77.89   11.20
   3 -18  -4   52.99   11.30
   3 -18  -4   67.29    9.30
  -3  18   4   55.69   12.00
  -3  18   4   54.99    8.70
   3  18  -4   64.49   10.80
   3  18  -4   56.19    5.30
   2 -18  -4   87.09   12.80
   2 -18  -4  122.49   10.60
  -2 -18   4  109.39   11.10
   2  18  -4  103.09   11.10
  -2  18   4  107.39   10.80
   2  18  -4  113.09    7.80
  -2  18   4  109.29   15.00
   1 -18  -4   26.10    6.60
  -1 -18   4   25.80    6.50
   1 -18  -4   17.20    7.30
  -1  18   4    6.20    5.20
  -1  18   4   18.40    7.20
   1  18  -4   22.30    6.10
   1  18  -4   18.80    5.20
   0 -18  -4   11.10    5.90
   0 -18  -4    5.60    5.80
   0 -18   4    4.90    4.20
   0  18  -4    1.60    4.50
   0  18   4    2.50    5.70
   0  18   4    1.90    5.00
   0  18  -4    7.60    4.20
  -1 -18  -4   53.79   10.50
   1 -18   4   50.39    8.60
  -1 -18  -4   57.39   11.00
  -1  18  -4   32.40    8.90
   1  18   4   55.09   10.90
  -1  18  -4   47.70    7.70
  -2 -18  -4   19.30    8.40
   2 -18   4   22.70    6.90
  -2 -18  -4   25.30    9.30
  -2  18  -4   17.20    5.60
  -2  18  -4   26.70    9.10
   2  18   4   19.80    7.30
   2  18   4    9.90    7.50
  -3 -18  -4  167.58   21.60
  -3 -18  -4  164.98   17.90
   3 -18   4  198.68   16.70
   3  18   4  155.08   16.30
  -3  18  -4  228.18   20.40
   3  18   4  158.78   17.70
  -3  18  -4  199.78   15.30
   4 -18   4  195.78   18.30
  -4 -18  -4  186.18   19.60
  -4  18  -4  204.98   17.20
   4  18   4  203.58   19.30
   4  18   4  195.18   21.00
  -5 -18  -4   38.30   15.60
  -5 -18  -4   35.40   14.00
   5 -18   4   50.09   12.40
  -5  18  -4   54.29   13.40
  -5  18  -4   45.20   12.70
  -6 -18  -4    5.40   11.90
  -6  18  -4  -16.30   12.30
  -6  18  -4    8.70   10.30
  -7 -18  -4   51.09   17.70
  -7  18  -4   42.70   14.10
  -7  18  -4   24.60   17.00
  -8 -18  -4   13.70   21.00
  -8  18  -4   21.70   16.00
 -10 -19   4  224.18   28.30
 -10 -19   4  199.98   23.40
 -10 -19   4  158.58   26.80
 -10  19   4  229.08   25.90
 -10  19   4  189.88   29.50
  -9 -19   4  283.27   29.90
  -9 -19   4  291.57   21.60
  -9 -19   4  246.88   26.10
  -9  19   4  214.68   31.10
  -9  19   4  282.17   24.90
  -8 -19   4   56.99   10.60
  -8 -19   4   77.69   18.90
  -8  19   4   59.29   13.40
  -8  19   4   49.00   16.60
  -7 -19   4  516.25   21.90
  -7 -19   4  510.95   32.90
  -7  19   4  494.25   35.70
  -7  19   4  483.75   27.70
   7  19  -4  508.25   38.40
   6 -19  -4  845.12   37.20
  -6 -19   4  852.81   26.60
  -6 -19   4  842.12   40.00
   6  19  -4  887.11   46.00
  -6  19   4  883.41   35.30
  -6  19   4  821.62   43.50
  -5 -19   4  339.77   23.20
   5 -19  -4  373.96   21.30
  -5 -19   4  337.27   12.60
   5  19  -4  356.76   26.00
  -5  19   4  357.76   20.30
  -5  19   4  350.66   26.40
   4 -19  -4  731.23   35.30
   4 -19  -4  633.84   27.10
  -4 -19   4  692.03   32.10
   4  19  -4  634.54   32.30
  -4  19   4  684.33   36.00
  -4  19   4  652.83   27.50
   3 -19  -4 2589.54   70.99
   3 -19  -4 2878.11   82.39
  -3 -19   4 2863.01   77.49
  -3  19   4 2925.91   86.09
   3  19  -4 2812.72   77.69
   3  19  -4 2785.72   60.39
  -3  19   4 2793.72   73.49
   2 -19  -4  504.25   21.70
   2 -19  -4  512.95   27.30
  -2 -19   4  462.45   22.80
  -2  19   4  482.35   23.00
   2  19  -4  488.65   23.40
   2  19  -4  497.35   16.80
  -2  19   4  484.25   28.40
  -1 -19   4   65.59    9.30
   1 -19  -4   72.29   12.60
   1 -19  -4   66.39    9.50
   1  19  -4   73.89    9.80
   1  19  -4   56.29    7.60
  -1  19   4   62.49    9.80
  -1  19   4   75.39   12.50
   0 -19  -4 1582.34   49.50
   0 -19   4 1578.14   46.90
   0 -19  -4 1572.64   52.09
   0  19   4 1610.04   51.99
   0  19   4 1539.15   53.29
   0  19  -4 1547.45   45.30
   0  19  -4 1650.33   47.70
  -1 -19  -4 1070.49   40.80
   1 -19   4 1104.69   37.20
  -1 -19  -4 1092.49   40.90
  -1  19  -4 1108.09   39.90
   1  19   4 1040.70   41.80
  -1  19  -4 1072.29   34.40
   1  19   4 1153.48   43.40
  -2 -19  -4  131.59   16.80
   2 -19   4  141.89   13.30
  -2 -19  -4  137.89   16.00
  -2  19  -4  127.19   11.40
   2  19   4  117.19   16.00
  -2  19  -4  132.09   16.90
   2  19   4   93.99   14.40
  -3 -19  -4 1115.49   48.70
   3 -19   4 1146.39   41.40
  -3 -19  -4 1223.58   46.20
   3  19   4 1062.89   47.10
  -3  19  -4 1247.48   49.30
   3  19   4 1232.28   47.20
  -3  19  -4 1104.29   38.70
  -4 -19  -4  627.74   34.50
   4 -19   4  660.83   31.50
   4  19   4  585.74   35.30
  -4  19  -4  596.04   29.00
   4  19   4  661.03   34.90
  -5 -19  -4    8.40   14.20
  -5 -19  -4    7.70   10.70
   5 -19   4   11.40    9.00
  -5  19  -4   14.30    9.80
  -5  19  -4    4.30    8.70
  -6 -19  -4  459.85   37.40
  -6  19  -4  345.27   27.70
  -6  19  -4  415.66   29.90
  -7 -19  -4  393.56   36.80
  -7  19  -4  369.56   34.00
  -7  19  -4  346.07   29.70
  -8 -19  -4   10.80   17.50
  -8  19  -4   14.70   16.20
 -10 -20   4  139.49   19.70
 -10 -20   4  160.08   28.80
 -10  20   4  132.39   21.10
 -10  20   4  123.19   25.80
  -9 -20   4  122.49   16.00
  -9 -20   4   86.39   19.70
  -9 -20   4   54.39   16.00
  -9  20   4   94.19   16.90
  -9  20   4  120.49   23.20
  -8 -20   4  742.63   29.60
  -8 -20   4  803.52   44.40
  -8 -20   4  764.02   32.00
  -8  20   4  748.13   36.00
  -8  20   4  702.33   44.30
  -7 -20   4  456.15   32.60
  -7 -20   4  504.15   20.80
  -7  20   4  471.25   35.10
   7  20  -4  447.06   39.90
  -7  20   4  496.35   27.00
  -6 -20   4  120.69   18.20
   6 -20  -4  124.19   16.20
  -6 -20   4  108.29    8.50
  -6  20   4  113.59   13.70
  -6  20   4   95.39   18.70
   6  20  -4   57.09   17.40
  -5 -20   4  810.82   37.30
   5 -20  -4  791.82   32.40
   5  20  -4  773.62   39.00
  -5  20   4  781.42   40.60
  -5  20   4  741.63   30.80
   4 -20  -4 1062.69   44.50
   4 -20  -4 1033.00   36.10
  -4 -20   4 1085.79   41.80
   4  20  -4 1100.29   43.30
  -4  20   4  955.10   44.70
  -4  20   4  986.00   35.90
   3 -20  -4   17.90    5.60
  -3 -20   4    9.70    5.40
   3 -20  -4    9.40    7.40
  -3  20   4    4.40    4.50
  -3  20   4   -2.60    5.70
   3  20  -4    6.90    6.30
  -2 -20   4 1847.02   54.69
   2 -20  -4 1869.01   51.59
   2 -20  -4 1856.11   60.39
   2  20  -4 1893.61   55.19
  -2  20   4 1890.71   54.69
  -2  20   4 1837.92   62.69
   2  20  -4 1815.02   44.40
   1 -20  -4 1565.54   46.80
   1 -20  -4 1632.64   54.19
  -1 -20   4 1576.64   47.10
   1  20  -4 1492.75   46.10
  -1  20   4 1604.84   50.09
   1  20  -4 1597.24   43.40
  -1  20   4 1636.24   55.59
   0 -20   4    4.10    4.50
   0 -20  -4    6.10    5.60
   0 -20  -4    5.70    6.80
   0  20   4    3.30    4.70
   0  20  -4    8.50    5.70
   0  20  -4    4.10    4.10
   0  20   4    1.40    5.80
  -1 -20  -4  872.71   36.30
   1 -20   4  918.01   32.40
  -1 -20  -4  911.81   36.50
   1  20   4  851.41   36.70
  -1  20  -4  823.02   34.00
  -1  20  -4  855.61   29.50
   1  20   4  839.82   36.60
  -2 -20  -4 1440.56   50.49
  -2 -20  -4 1453.05   52.49
   2 -20   4 1429.96   45.90
   2  20   4 1402.96   51.29
  -2  20  -4 1480.45   43.10
   2  20   4 1378.66   52.49
  -2  20  -4 1468.95   51.49
   3 -20   4   18.80    7.20
  -3 -20  -4   31.70   10.40
   3  20   4   10.30    8.50
   3  20   4   16.10    8.50
  -3  20  -4    7.20    5.90
  -3  20  -4   11.80   11.30
  -4 -20  -4  335.77   25.30
   4 -20   4  261.27   20.60
   4  20   4  313.37   26.60
   4  20   4  321.67   24.70
  -4  20  -4  309.67   20.40
  -5 -20  -4  832.62   49.50
  -5 -20  -4  807.22   46.00
  -5  20  -4  828.62   37.20
  -5  20  -4  789.12   37.90
  -6 -20  -4   62.79   19.70
  -6  20  -4   41.00   15.00
  -6  20  -4   62.89   14.30
  -7 -20  -4  115.79   24.90
  -7  20  -4  108.09   21.60
  -7  20  -4  124.49   19.50
  -8 -20  -4  433.46   41.50
  -8  20  -4  348.77   33.30
 -10 -21   4   -2.80   15.80
 -10 -21   4  -12.80   12.30
 -10  21   4   21.20   20.30
 -10  21   4   -3.00   12.50
  -9 -21   4   11.60    9.50
  -9 -21   4    6.50   15.80
  -9 -21   4   21.60   13.80
  -9  21   4    7.10   10.10
  -9  21   4    2.60   14.00
  -8 -21   4   21.10    8.40
  -8 -21   4   38.70   15.80
  -8 -21   4   23.80    9.80
  -8  21   4   32.50   11.50
  -8  21   4   39.00   15.10
  -7 -21   4   13.50    5.50
  -7 -21   4   11.70    6.40
  -7 -21   4   21.50   10.50
   7  21  -4   33.40   18.10
  -7  21   4    5.20    7.30
  -7  21   4    2.90   12.00
  -6 -21   4   75.29    6.80
  -6 -21   4   92.89   15.60
  -6 -21   4   66.39    6.20
   6 -21  -4   65.79   13.10
   6  21  -4   99.59   18.90
  -6  21   4   78.89   11.90
  -6  21   4  101.49   19.00
  -5 -21   4   10.10    7.60
   5 -21  -4    9.40    7.30
   5  21  -4   14.10   11.20
  -5  21   4   15.50    6.30
  -5  21   4    8.90    8.80
  -4 -21   4  260.67   19.80
   4 -21  -4  277.67   17.50
   4 -21  -4  219.98   22.60
   4  21  -4  271.07   21.50
  -4  21   4  234.98   16.00
  -4  21   4  249.28   22.10
   3 -21  -4   50.99    8.50
   3 -21  -4   77.29   14.30
  -3 -21   4   55.19   10.20
  -3  21   4   55.29    9.20
   3  21  -4   67.69   10.90
  -3  21   4   55.19   12.50
  -2 -21   4   18.60    6.10
   2 -21  -4   28.50    6.60
   2 -21  -4    6.40    7.30
  -2  21   4   13.50    5.70
   2  21  -4   18.80    3.80
  -2  21   4   29.80    8.70
   2  21  -4   13.00    5.90
  -1 -21   4    2.10    4.20
   1 -21  -4   14.20    5.80
   1 -21  -4    1.30    6.30
   1  21  -4   10.50    4.40
  -1  21   4    1.50    6.30
   1  21  -4    6.30    5.20
  -1  21   4    2.60    4.90
   0 -21   4   24.20    6.50
   0 -21  -4   19.80    7.20
   0 -21  -4   23.10    8.30
   0  21   4   15.90    6.40
   0  21  -4   14.40    6.50
   0  21  -4   15.80    5.80
   0  21   4   35.50    9.50
  -1 -21  -4  117.19   15.70
  -1 -21  -4  144.69   14.70
   1 -21   4  127.69   11.80
  -1  21  -4  143.79   11.30
   1  21   4  134.89   15.20
  -1  21  -4  136.99   14.70
   1  21   4  137.99   14.80
  -2 -21  -4   10.00    9.00
   2 -21   4   25.00    7.30
  -2 -21  -4   19.50   10.40
   2  21   4   18.20    8.50
  -2  21  -4   13.40    9.60
   2  21   4   24.80    8.80
  -2  21  -4   28.20    6.40
  -3 -21  -4   38.50   11.90
   3 -21   4   34.10    8.40
   3  21   4   25.30    9.60
  -3  21  -4   44.30    8.50
   3  21   4   41.00   11.00
  -3  21  -4   49.40   13.50
  -4 -21  -4   31.60   11.90
   4 -21   4    4.30    7.30
   4  21   4   25.90   10.20
   4  21   4   24.70    9.70
  -4  21  -4    7.70    7.50
  -5 -21  -4   50.79   17.20
  -5  21  -4   77.99   13.60
  -5  21  -4   71.59   13.70
  -6 -21  -4  -10.50   14.70
  -6  21  -4  -15.90   11.60
  -6  21  -4  -12.90    9.20
  -7 -21  -4   -0.90   17.00
  -7  21  -4   23.00   13.70
  -7  21  -4   16.50   17.10
  -8 -21  -4    2.30   19.20
  -8  21  -4  -12.90   14.90
 -10 -22   4  118.89   26.60
 -10 -22   4   96.39   16.80
 -10  22   4   84.39   17.50
 -10  22   4  127.19   27.20
  -9 -22   4   48.30   18.20
  -9 -22   4   65.39   14.70
  -9 -22   4   48.50   11.40
  -9  22   4   68.29   15.00
  -9  22   4   28.80   17.00
  -8 -22   4  792.72   45.10
  -8 -22   4  835.72   31.30
  -8 -22   4  850.61   30.30
  -8  22   4  858.41   49.70
  -8  22   4  949.40   39.60
  -7 -22   4  396.56   30.70
  -7 -22   4  383.76   16.60
  -7 -22   4  406.86   16.10
   7  22  -4  438.66   37.70
  -7  22   4  353.26   32.10
  -7  22   4  421.46   24.70
  -6 -22   4  101.59   17.20
   6 -22  -4   67.09   17.20
  -6  22   4   92.89   12.80
  -6  22   4   88.19   18.80
   6  22  -4   89.99   19.90
   5 -22  -4 1733.23   53.69
  -5 -22   4 1746.63   60.59
  -5  22   4 1740.03   52.69
  -5  22   4 1784.12   67.19
   5  22  -4 1696.93   63.39
  -4 -22   4 1581.84   53.89
   4 -22  -4 1548.35   47.10
   4 -22  -4 1474.85   56.59
  -4  22   4 1568.54   60.09
  -4  22   4 1549.45   47.80
   4  22  -4 1608.04   55.99
   3 -22  -4   30.80    7.40
  -3 -22   4   39.20    8.80
   3 -22  -4   23.90    9.80
  -3  22   4   29.60    7.00
   3  22  -4   24.10    8.70
  -3  22   4   23.00   10.60
   2 -22  -4 1319.57   40.00
   2 -22  -4 1283.67   47.80
  -2 -22   4 1306.37   42.70
   2  22  -4 1254.37   31.80
   2  22  -4 1302.87   42.90
  -2  22   4 1271.57   50.69
  -2  22   4 1310.57   42.60
   1 -22  -4 1014.30   40.50
   1 -22  -4 1047.40   35.20
  -1 -22   4  983.00   34.60
   1  22  -4  998.60   34.20
  -1  22   4 1049.59   43.00
   1  22  -4  993.60   31.00
  -1  22   4 1030.10   37.50
   0 -22  -4   27.00    7.70
   0 -22   4   16.80    6.00
   0 -22  -4   23.30    8.60
   0  22  -4   15.60    6.80
   0  22   4    5.00    6.70
   0  22   4   20.40    7.30
   0  22  -4   14.90    5.40
  -1 -22  -4 1275.87   45.60
  -1 -22  -4 1275.67   46.10
   1 -22   4 1258.77   40.20
  -1  22  -4 1242.28   37.70
   1  22   4 1228.08   46.40
   1  22   4 1186.98   46.20
  -1  22  -4 1271.17   44.30
  -2 -22  -4 1277.87   46.80
   2 -22   4 1268.37   41.60
  -2 -22  -4 1180.08   47.30
  -2  22  -4 1274.27   38.50
  -2  22  -4 1260.77   47.90
   2  22   4 1285.17   49.60
   2  22   4 1188.98   47.10
  -3 -22  -4  264.57   22.40
   3 -22   4  287.57   19.10
   3  22   4  269.67   22.90
  -3  22  -4  309.97   17.70
   3  22   4  305.17   22.90
  -3  22  -4  281.17   25.60
   4 -22   4  828.42   34.80
  -4 -22  -4  745.03   37.40
  -4 -22  -4  848.42   45.20
   4  22   4  744.73   40.50
   4  22   4  777.02   38.80
  -4  22  -4  818.42   33.00
  -5 -22  -4 1427.86   63.69
  -5  22  -4 1491.65   53.29
  -5  22  -4 1452.25   50.79
  -6 -22  -4  203.68   31.00
  -6  22  -4  232.38   23.10
  -6  22  -4  248.58   24.00
  -7 -22  -4  174.68   29.60
  -7  22  -4  134.29   22.70
  -7  22  -4  164.28   22.30
  -8 -22  -4  475.05   44.70
  -8  22  -4  487.95   35.60
 -10 -23   4   64.59   21.70
 -10 -23   4   41.40   13.60
 -10  23   4  101.99   26.80
 -10  23   4   84.79   16.60
  -9 -23   4  358.66   33.90
  -9 -23   4  347.17   21.00
  -9  23   4  357.46   27.10
  -9  23   4  342.97   34.70
  -8 -23   4   16.60    7.40
  -8 -23   4   45.70   15.60
  -8 -23   4   26.60    8.80
  -8  23   4   26.70   10.40
  -8  23   4   17.30   13.60
  -7 -23   4  355.26   13.30
  -7 -23   4  326.17   27.50
  -7 -23   4  370.76   13.10
  -7  23   4  405.76   24.00
   7  23  -4  352.76   37.50
  -7  23   4  344.47   32.20
  -6 -23   4  648.34   36.20
  -6  23   4  656.13   29.00
   6  23  -4  618.04   40.40
  -6  23   4  648.74   40.80
   5 -23  -4  216.68   17.30
  -5 -23   4  173.08   18.50
  -5  23   4  162.08   22.50
   5  23  -4  163.38   21.40
  -5  23   4  185.38   15.00
   4 -23  -4  160.08   18.80
  -4 -23   4  142.49   15.50
   4 -23  -4  138.39   13.30
  -4  23   4  155.78   13.20
  -4  23   4  173.48   22.60
   4  23  -4  129.29   17.30
  -3 -23   4  540.55   27.20
   3 -23  -4  592.54   31.70
   3 -23  -4  575.94   24.20
  -3  23   4  570.04   33.20
   3  23  -4  585.04   28.70
  -3  23   4  571.24   25.00
   2 -23  -4  239.98   14.90
  -2 -23   4  241.48   16.60
   2 -23  -4  258.17   19.80
   2  23  -4  254.27   16.70
  -2  23   4  225.98   20.00
   2  23  -4  228.58    9.50
  -2  23   4  236.18   16.10
   1 -23  -4  164.78   13.40
   1 -23  -4  187.08   17.90
  -1 -23   4  169.38   13.30
   1  23  -4  177.08   13.50
   1  23  -4  177.48   11.50
  -1  23   4  148.09   14.00
  -1  23   4  142.49   15.80
   0 -23  -4  994.40   36.50
   0 -23   4  952.70   32.90
   0 -23  -4  987.30   39.80
   0  23  -4  951.30   31.90
   0  23   4  948.51   37.70
   0  23  -4  967.10   33.90
   0  23   4  934.21   40.20
  -1 -23  -4  238.18   18.90
   1 -23   4  232.08   15.40
  -1 -23  -4  209.68   18.80
  -1  23  -4  242.08   18.30
  -1  23  -4  253.57   14.10
   1  23   4  219.68   18.90
   1  23   4  230.48   18.70
   2 -23   4  150.28   13.70
  -2 -23  -4  135.49   17.30
  -2 -23  -4  139.79   17.90
  -2  23  -4  125.39   17.50
  -2  23  -4  134.79   11.10
   2  23   4  143.49   16.40
   2  23   4  126.79   15.30
   3 -23   4  517.85   25.40
  -3 -23  -4  520.05   29.90
  -3  23  -4  516.65   32.10
   3  23   4  502.75   31.30
  -3  23  -4  537.45   23.30
   3  23   4  507.75   29.70
  -4 -23  -4  282.27   26.10
   4 -23   4  272.77   20.30
  -4 -23  -4  252.97   24.40
   4  23   4  261.27   23.50
  -4  23  -4  287.57   21.00
  -4  23  -4  319.87   19.80
  -5 -23  -4  -10.60   12.40
  -5  23  -4    6.70    9.20
  -5  23  -4   -9.30    8.70
  -6 -23  -4  420.56   36.60
  -6  23  -4  424.86   28.90
  -6  23  -4  368.16   28.00
  -7 -23  -4  256.87   35.00
  -7  23  -4  343.17   28.10
  -7  23  -4  252.37   29.30
  -9 -24   4   -6.30   10.90
  -9 -24   4   18.20    9.20
  -9 -24   4    5.10   16.50
  -9  24   4   17.60   11.50
  -9  24   4   11.70   15.70
  -8 -24   4  146.29   10.80
  -8 -24   4  156.28   24.00
  -8 -24   4  162.28   12.60
  -8  24   4  163.68   26.20
  -8  24   4  148.39   17.80
  -7 -24   4   80.69   17.60
  -7  24   4   66.59   11.90
   7  24  -4   66.29   23.40
  -7  24   4   52.59   17.50
  -6 -24   4   15.70   10.40
  -6  24   4   25.70   13.50
   6  24  -4   20.80   16.10
  -6  24   4   29.10    8.40
   5 -24  -4  304.87   20.20
  -5 -24   4  338.47   24.40
  -5  24   4  307.27   18.70
  -5  24   4  306.97   26.60
   5  24  -4  317.97   27.70
  -4 -24   4  194.48   17.90
   4 -24  -4  237.38   15.60
   4 -24  -4  203.98   23.20
   4  24  -4  196.68   19.70
  -4  24   4  193.08   14.90
  -4  24   4  228.68   23.20
   3 -24  -4    8.80    9.80
  -3 -24   4   -1.20    5.40
   3 -24  -4   -7.90    5.20
  -3  24   4    8.70    8.30
  -3  24   4    2.40    4.90
   3  24  -4    6.40    6.80
   2 -24  -4  125.09   17.60
   2 -24  -4  141.99   11.80
  -2 -24   4  149.09   13.40
   2  24  -4  135.39    6.80
  -2  24   4  106.29   17.30
   2  24  -4  140.29   13.70
  -2  24   4  141.49   12.60
  -1 -24   4  252.87   15.70
   1 -24  -4  221.48   15.30
   1 -24  -4  230.18   19.70
   1  24  -4  233.88   15.00
  -1  24   4  224.98   16.50
   1  24  -4  219.18   12.90
  -1  24   4  222.28   19.40
   0 -24   4    7.80    5.50
   0 -24  -4    6.10    6.20
   0 -24  -4   16.60    8.50
   0  24  -4    5.90    6.10
   0  24   4   14.40    6.80
   0  24  -4   10.40    4.90
   0  24   4   11.60    8.20
  -1 -24  -4  299.77   21.70
  -1 -24  -4  303.57   21.50
   1 -24   4  349.77   18.20
  -1  24  -4  320.67   20.90
   1  24   4  302.97   21.60
  -1  24  -4  338.07   16.60
   1  24   4  330.57   23.00
  -2 -24  -4  273.07   21.10
   2 -24   4  234.58   15.90
  -2  24  -4  215.08   13.70
   2  24   4  250.07   21.10
  -2  24  -4  203.58   19.80
   2  24   4  203.88   18.90
  -3 -24  -4   30.70   11.90
   3 -24   4   53.29   10.00
   3  24   4   45.30   12.60
  -3  24  -4   53.99   15.20
   3  24   4   36.30   11.60
  -3  24  -4   42.80    8.00
  -4 -24  -4   39.40   13.40
  -4 -24  -4   28.70   13.50
   4 -24   4   67.19   12.10
   4  24   4   46.60   12.90
  -4  24  -4   50.59   10.10
  -4  24  -4   65.99   12.20
  -5 -24  -4  186.18   25.70
  -5  24  -4  141.19   17.00
  -5  24  -4  194.68   19.30
  -6 -24  -4   11.70   15.70
  -6  24  -4   25.00   13.40
  -6  24  -4   31.20   11.90
  -7 -24  -4    5.20   19.20
  -7  24  -4   -1.30   12.30
  -7  24  -4   44.40   19.80
  -9  25   4  460.55   40.10
  -8 -25   4   38.60   15.50
  -8  25   4   44.00   18.20
  -8  25   4   66.59   13.80
  -7 -25   4  619.44   38.30
  -7  25   4  608.04   29.60
   7  25  -4  570.74   45.90
  -7  25   4  576.04   40.20
  -6 -25   4 1238.08   51.49
  -6  25   4 1225.78   57.49
   6  25  -4 1288.27   58.99
  -6  25   4 1211.78   42.50
   5 -25  -4  134.19   15.40
  -5 -25   4  133.19   17.70
   5  25  -4  152.98   21.20
  -5  25   4  133.49   13.10
  -5  25   4  124.89   20.10
   4 -25  -4  817.22   30.50
  -4 -25   4  855.11   37.20
   4  25  -4  769.72   37.70
  -4  25   4  817.82   31.00
  -4  25   4  832.02   43.50
  -3 -25   4 1785.62   55.39
   3 -25  -4 1696.53   48.80
   3 -25  -4 1632.24   59.99
   3  25  -4 1729.53   55.99
  -3  25   4 1682.53   63.49
  -3  25   4 1721.63   50.49
  -2 -25   4  483.35   23.40
   2 -25  -4  377.06   26.10
   2 -25  -4  456.25   20.80
   2  25  -4  472.15   12.80
  -2  25   4  427.46   22.00
   2  25  -4  455.45   23.20
   2  25  -4  463.45   12.80
  -2  25   4  487.75   30.30
   1 -25  -4  185.78   17.40
  -1 -25   4  208.88   14.60
   1 -25  -4  184.68   14.30
   1  25  -4  205.48   12.50
   1  25  -4  213.78   14.40
  -1  25   4  206.78   19.30
  -1  25   4  216.48   16.10
   0 -25  -4 1997.60   58.59
   0 -25   4 2059.69   54.99
   0 -25  -4 1976.20   63.49
   0  25   4 1879.71   59.89
   0  25  -4 2000.20   55.99
   0  25  -4 1903.01   52.29
   0  25   4 1882.11   63.89
  -1 -25  -4  624.74   31.70
   1 -25   4  698.03   26.50
  -1 -25  -4  620.54   30.90
  -1  25  -4  615.94   30.10
  -1  25  -4  653.83   24.00
   1  25   4  617.74   31.40
   1  25   4  662.63   33.20
   2 -25   4  259.17   16.50
  -2 -25  -4  236.38   21.10
  -2  25  -4  266.37   21.90
   2  25   4  249.88   20.60
  -2  25  -4  235.18   14.10
   2  25   4  294.27   22.70
  -3 -25  -4 1308.97   50.19
   3 -25   4 1291.47   43.00
  -3  25  -4 1354.76   40.30
   3  25   4 1343.27   54.09
   3  25   4 1264.17   50.69
  -3  25  -4 1327.97   54.29
   4 -25   4  814.62   33.90
  -4 -25  -4  820.42   40.40
  -4 -25  -4  785.72   44.80
  -4  25  -4  788.32   33.50
  -4  25  -4  839.42   31.50
   4  25   4  790.42   39.80
  -5 -25  -4   10.40   13.90
  -5  25  -4    4.50    9.30
  -5  25  -4   18.30    9.50
  -6 -25  -4  506.75   41.80
  -6  25  -4  549.35   31.50
  -6  25  -4  607.14   32.50
  -7 -25  -4  564.04   48.60
  -7  25  -4  562.34   34.50
  -9 -26   4   20.50   17.60
  -9 -26   4    0.20    6.60
  -9  26   4   20.00   18.10
  -9  26   4   24.50   12.00
  -8 -26   4  113.09   22.00
  -8  26   4  127.89   17.20
  -8  26   4   79.69   21.70
  -7 -26   4   99.49   19.90
  -7  26   4  116.69   14.60
  -7  26   4  100.29   21.20
   7  26  -4  115.69   26.50
  -6 -26   4   32.90   12.80
   6  26  -4   23.10   16.80
  -6  26   4   43.20    9.50
  -6  26   4   44.70   14.10
  -5 -26   4  213.28   20.10
   5 -26  -4  194.48   17.00
  -5  26   4  203.68   22.90
   5  26  -4  197.38   24.20
  -5  26   4  220.08   15.90
   4 -26  -4  264.67   17.00
  -4 -26   4  295.97   21.70
   4  26  -4  262.27   22.30
  -4  26   4  262.27   16.60
  -4  26   4  301.07   26.70
   3 -26  -4   40.20    8.00
  -3 -26   4   27.80    8.70
   3 -26  -4   35.90   12.00
  -3  26   4   18.30   10.20
  -3  26   4   37.00    7.90
   3  26  -4   38.70    9.80
   2 -26  -4  198.58   18.90
  -2 -26   4  176.18   14.80
   2 -26  -4  187.08   13.30
   2  26  -4  165.08   14.80
  -2  26   4  170.58   18.60
  -2  26   4  186.98   14.30
   1 -26  -4  358.26   24.70
   1 -26  -4  342.07   18.80
  -1 -26   4  333.57   18.10
   1  26  -4  343.27   15.90
  -1  26   4  353.56   20.30
  -1  26   4  334.17   24.10
   1  26  -4  325.07   17.90
   0 -26  -4   11.60    7.70
   0 -26  -4    8.20    7.80
   0 -26   4    5.90    5.30
   0  26   4    0.40    6.20
   0  26   4   -0.90    7.20
   0  26  -4   10.70    5.00
   0  26  -4   13.90    7.20
  -1 -26  -4  237.98   19.30
  -1 -26  -4  234.58   20.10
  -1  26  -4  225.88   19.30
   1  26   4  236.58   19.90
  -1  26  -4  252.97   14.00
   1  26   4  257.77   20.70
  -2 -26  -4  250.27   21.40
   2  26   4  252.17   20.80
   2  26   4  236.68   21.70
  -2  26  -4  239.18   21.80
  -2  26  -4  260.87   14.20
   3 -26   4   17.00    6.90
  -3 -26  -4    5.20   10.40
  -3  26  -4    6.50    5.50
   3  26   4    3.40    9.20
   3  26   4   18.30   10.60
  -3  26  -4    9.20   13.40
  -4 -26  -4  104.09   20.80
  -4 -26  -4  129.99   18.70
  -4  26  -4  127.09   13.30
   4  26   4   88.99   16.40
  -4  26  -4  134.49   14.70
  -5 -26  -4  190.28   26.70
  -5  26  -4  165.18   16.30
  -5  26  -4  150.88   17.50
  -6 -26  -4   32.80   17.90
  -6  26  -4   32.00   12.20
  -6  26  -4   42.30   13.20
  -7 -26  -4   65.19   24.90
  -7  26  -4   82.49   16.50
  -9 -27   4  113.39   24.20
  -9  27   4   83.89   25.90
  -9  27   4   95.09   16.60
  -8 -27   4  -33.80   14.00
  -8  27   4    8.80   16.30
  -8  27   4   15.80   10.30
  -7 -27   4  226.68   26.50
   7  27  -4  266.07   35.00
  -7  27   4  264.57   19.90
  -7  27   4  251.27   28.30
  -6 -27   4  390.76   29.00
   6  27  -4  398.26   33.00
  -6  27   4  430.16   33.40
  -6  27   4  361.86   21.30
  -5 -27   4   25.60   10.60
   5 -27  -4   47.40   10.10
   5  27  -4   26.00   14.00
  -5  27   4   58.79   10.00
  -5  27   4   24.70   12.80
   4 -27  -4  406.36   21.20
  -4 -27   4  443.56   26.40
   4  27  -4  408.96   28.30
  -4  27   4  459.35   32.10
  -4  27   4  423.76   20.80
   3 -27  -4  594.64   24.70
   3 -27  -4  665.63   34.90
  -3 -27   4  597.04   29.00
  -3  27   4  585.24   35.10
  -3  27   4  617.44   25.60
   3  27  -4  574.14   29.40
   2 -27  -4  260.17   15.90
  -2 -27   4  258.47   17.30
   2 -27  -4  257.17   22.60
  -2  27   4  265.47   16.90
   2  27  -4  260.57   18.00
  -2  27   4  227.18   21.60
   1 -27  -4   99.19   11.90
  -1 -27   4  122.59   11.90
   1 -27  -4   86.89   15.90
   1  27  -4   95.99   10.70
  -1  27   4  108.19   17.00
  -1  27   4   99.79   11.80
   1  27  -4   94.29    9.50
   0 -27  -4 1026.50   37.70
   0 -27   4  819.02   31.50
   0 -27  -4 1027.80   42.50
   0  27  -4 1022.70   35.30
   0  27  -4 1008.20   32.00
   0  27   4 1008.30   39.20
   0  27   4 1033.00   43.50
  -1 -27  -4  204.08   20.40
  -1 -27  -4  274.37   21.60
   1  27   4  236.48   19.90
  -1  27  -4  256.87   20.10
   1  27   4  263.27   21.20
  -1  27  -4  220.48   13.20
  -2 -27  -4   97.39   16.30
  -2  27  -4   97.59   16.60
  -2  27  -4  104.99    9.80
   2  27   4   94.19   15.60
   2  27   4   87.19   15.20
  -3 -27  -4  531.55   30.40
  -3 -27  -4  505.75   33.80
   3  27   4  452.65   29.70
  -3  27  -4  497.95   33.50
  -3  27  -4  459.65   20.10
  -4 -27  -4  317.67   28.80
  -4 -27  -4  246.58   26.00
   4  27   4  239.78   23.70
  -4  27  -4  219.88   15.70
  -4  27  -4  239.88   17.70
  -5 -27  -4   13.10   15.70
  -5  27  -4    8.60    8.50
  -5  27  -4   19.50    8.90
  -6 -27  -4  238.48   33.70
  -6  27  -4  228.88   22.20
  -6  27  -4  249.78   22.90
  -7 -27  -4  169.48   30.00
  -7  27  -4  166.18   20.60
  -9 -28   4   96.29   23.70
  -9  28   4   79.49   24.80
  -9  28   4   73.29   14.90
  -8 -28   4  461.35   37.00
  -8  28   4  457.65   38.90
  -8  28   4  469.45   26.90
  -7 -28   4  423.96   33.10
  -7  28   4  436.36   24.10
   7  28  -4  444.86   42.70
  -7  28   4  394.16   35.60
  -6 -28   4   54.29   14.40
   6  28  -4   97.59   22.20
  -6  28   4   87.79   12.20
  -6  28   4   84.49   20.10
  -5 -28   4 2003.80   67.89
   5 -28  -4 2054.49   58.79
  -5  28   4 2035.40   57.09
  -5  28   4 1983.70   76.99
   5  28  -4 2045.10   73.09
   4 -28  -4  496.75   23.00
  -4 -28   4  532.35   29.00
  -4  28   4  468.05   22.30
   4  28  -4  535.55   31.90
  -4  28   4  531.05   34.90
  -3 -28   4    7.80    6.60
   3 -28  -4    4.80    9.80
   3 -28  -4    5.20    5.90
  -3  28   4   -2.00    5.10
  -3  28   4   11.40    9.10
   3  28  -4   10.30    8.40
   2 -28  -4  961.30   32.60
   2 -28  -4  932.41   42.60
  -2 -28   4  920.61   34.90
   2  28  -4  989.30   36.50
  -2  28   4  951.90   44.90
  -2  28   4  980.90   35.00
   1 -28  -4  947.91   33.80
  -1 -28   4  977.50   33.90
   1 -28  -4  939.71   41.10
  -1  28   4  979.70   44.10
  -1  28   4  933.81   35.80
   1  28  -4  987.30   29.80
   1  28  -4 1006.30   33.70
   0 -28  -4   40.10    9.30
   0 -28  -4   37.70   11.80
   0  28  -4   43.10    7.10
   0  28   4   44.40    9.70
   0  28   4   31.20   10.30
   0  28  -4   37.40    8.70
   1 -28   4  943.31   34.50
  -1 -28  -4  948.31   41.00
   1  28   4  945.21   41.60
  -1  28  -4  959.50   38.70
   1  28   4  969.60   40.50
  -1  28  -4  968.50   29.60
   2 -28   4  880.41   31.50
  -2 -28  -4  906.21   40.10
   2  28   4  940.21   42.10
   2  28   4  909.71   41.10
  -2  28  -4 1010.10   42.80
  -2  28  -4  941.31   29.10
  -3 -28  -4   20.10   13.70
  -3 -28  -4   44.20   13.70
   3  28   4   31.50   10.90
  -3  28  -4   28.80   14.90
  -3  28  -4   33.50    6.90
  -3  28  -4   27.70    7.60
  -4 -28  -4  453.25   32.00
  -4 -28  -4  471.35   35.10
  -4  28  -4  423.06   20.50
  -4  28  -4  482.65   23.50
   4  28   4  486.35   31.60
  -5 -28  -4  599.14   42.40
  -5  28  -4  616.34   27.50
  -5  28  -4  618.74   28.90
  -6 -28  -4  197.28   30.40
  -6  28  -4  162.18   18.90
  -6  28  -4  175.38   20.30
  -7 -28  -4  194.98   32.50
  -7  28  -4  186.48   21.70
  -9 -29   4   32.70   18.00
  -9  29   4   25.40   22.50
  -9  29   4   20.00   12.30
  -8 -29   4   12.50   16.60
  -8  29   4   29.00   14.40
  -8  29   4    6.20   16.60
  -8  29   4   23.50   10.60
  -7 -29   4   18.80   13.10
  -7  29   4   12.70    8.50
  -7  29   4   19.90   16.70
   7  29  -4   26.70   22.80
  -6 -29   4  177.08   21.40
  -6  29   4  211.98   30.10
  -6  29   4  189.28   15.90
   6  29  -4  195.78   28.00
  -5 -29   4   80.09   15.30
   5 -29  -4   69.89   11.60
  -5  29   4   59.19    9.80
  -5  29   4   57.09   16.80
   5  29  -4   71.59   17.20
   4 -29  -4    5.70    7.10
  -4 -29   4   12.50    8.70
  -4  29   4   -2.70    9.30
  -4  29   4   17.30    6.60
   4  29  -4   28.90   11.70
   3 -29  -4    8.30    6.20
  -3 -29   4   11.00    6.90
  -3  29   4   -7.10    8.30
  -3  29   4    5.90    5.60
   3  29  -4    5.30    8.10
   2 -29  -4   36.00   13.50
  -2 -29   4   39.40    8.70
   2 -29  -4   27.30    7.20
  -2  29   4   35.70    7.90
   2  29  -4    6.50    7.40
  -2  29   4   30.70   12.30
   1 -29  -4    8.60    6.70
   1 -29  -4    0.30    8.90
  -1 -29   4    3.40    5.50
  -1  29   4    3.50    7.40
  -1  29   4    4.80    6.50
   1  29  -4    8.60    5.90
   1  29  -4   -3.90    4.20
   1  29  -4   -2.90    4.60
   0 -29  -4   10.00    9.80
   0 -29  -4   12.20    7.60
   0  29  -4   15.10    7.50
   0  29  -4    1.20    4.60
   0  29   4   10.10    8.30
   0  29   4   12.00    7.20
  -1 -29  -4   32.10   11.20
   1 -29   4   24.30    7.10
  -1  29  -4   16.70    5.50
   1  29   4   24.40   10.10
  -1  29  -4    7.20    9.70
   1  29   4   31.00    9.70
  -2 -29  -4   -9.10    9.70
   2 -29   4   -2.40    5.80
   2  29   4    2.10    8.20
   2  29   4    6.00    9.30
  -2  29  -4    2.40   11.00
  -2  29  -4    1.60    4.60
   3 -29   4   32.10    8.20
  -3 -29  -4    5.30   12.90
  -3 -29  -4   27.50   13.40
   3  29   4   39.50   12.60
  -3  29  -4   40.50    7.00
  -3  29  -4   40.50    8.10
  -4 -29  -4    2.60   14.50
  -4 -29  -4   11.50   13.10
   4  29   4   16.60   12.10
  -4  29  -4   25.10    8.40
  -4  29  -4   35.40    7.40
  -5 -29  -4   16.30   15.20
  -5  29  -4   -8.60    7.20
  -5  29  -4    6.30    8.30
  -6 -29  -4   71.59   23.60
  -6  29  -4   66.89   13.20
  -6  29  -4   62.79   12.80
  -8 -30   4  298.27   32.70
  -8  30   4  281.77   36.40
  -8  30   4  345.47   27.30
  -8  30   4  333.07   22.80
  -7 -30   4   69.59   17.90
  -7  30   4   21.60   16.50
   7  30  -4   76.79   27.00
  -7  30   4   42.80   10.70
  -6 -30   4   42.00   13.80
   6  30  -4   28.50   18.70
  -6  30   4   41.20   16.70
  -6  30   4   39.10    9.20
  -5 -30   4  255.77   22.80
   5 -30  -4  218.68   17.90
  -5  30   4  236.28   26.10
   5  30  -4  291.37   27.50
  -5  30   4  230.28   15.80
   4 -30  -4 1404.96   42.50
  -4 -30   4 1409.76   51.09
   4  30  -4 1397.36   54.59
  -4  30   4 1455.55   62.29
  -4  30   4 1402.86   42.30
  -3 -30   4    4.20    6.80
   3 -30  -4    1.70    6.30
  -3  30   4    7.20    9.20
   3  30  -4    7.40    8.80
  -3  30   4    5.20    5.90
  -2 -30   4  702.33   29.10
   2 -30  -4  614.74   34.40
   2 -30  -4  623.44   25.60
  -2  30   4  661.13   37.90
  -2  30   4  695.83   27.90
   2  30  -4  718.73   30.30
  -1 -30   4  796.02   29.90
   1 -30  -4  818.92   39.00
   1 -30  -4  804.62   30.60
   1  30  -4  766.82   29.50
  -1  30   4  846.42   33.10
  -1  30   4  834.82   40.90
   1  30  -4  817.72   25.90
   1  30  -4  794.82   25.90
   0 -30   4   72.89   10.60
   0 -30  -4   72.09   14.50
   0 -30  -4   64.49   11.20
   0  30  -4   69.89   10.90
   0  30  -4   61.09    8.50
   0  30   4  103.59   16.90
   0  30   4   52.99   11.40
   1 -30   4  586.24   23.40
  -1 -30  -4  598.84   33.20
  -1  30  -4  627.74   31.20
  -1  30  -4  636.74   21.20
   1  30   4  573.44   32.40
   1  30   4  627.34   31.90
  -2 -30  -4  893.31   41.10
   2 -30   4  913.01   30.10
  -2  30  -4  899.71   26.50
   2  30   4  875.41   40.80
   2  30   4  939.31   42.40
  -2  30  -4  815.12   40.70
  -3 -30  -4   -2.60   11.90
  -3 -30  -4   -6.70   12.20
   3  30   4    8.60    9.90
  -3  30  -4    2.00    5.50
  -3  30  -4    5.00    4.80
  -4 -30  -4  207.08   24.40
  -4 -30  -4  247.28   27.50
  -4  30  -4  287.67   16.40
   4  30   4  258.97   24.10
  -4  30  -4  236.68   14.80
  -5 -30  -4  395.16   36.10
  -5  30  -4  384.46   20.40
  -5  30  -4  395.16   21.60
  -6 -30  -4   80.59   23.70
  -6  30  -4   28.70   11.00
  -6  30  -4   26.00   10.40
  -8 -31   4   -3.60   16.00
  -8  31   4  -12.20   18.80
  -8  31   4    4.60   14.20
  -8  31   4    9.80   10.00
  -7 -31   4  266.47   28.50
   7  31  -4  251.77   37.90
  -7  31   4  266.57   19.20
  -7  31   4  255.17   33.40
  -6 -31   4  402.26   30.30
  -6  31   4  400.46   21.30
   6  31  -4  366.76   36.60
  -6  31   4  440.96   34.90
  -5 -31   4  304.67   25.50
   5 -31  -4  309.07   20.10
   5  31  -4  332.57   29.90
  -5  31   4  314.27   17.50
  -5  31   4  294.27   30.30
   4 -31  -4  117.69   13.40
  -4 -31   4  114.69   16.10
  -4  31   4  129.19   11.90
  -4  31   4  129.89   22.40
   4  31  -4  110.39   18.40
   3 -31  -4 1077.69   33.90
  -3 -31   4 1015.50   39.50
  -3  31   4 1002.30   49.90
  -3  31   4  980.00   33.50
   3  31  -4 1052.59   42.00
  -2 -31   4  133.89   13.60
   2 -31  -4  147.69   20.80
   2 -31  -4  147.29   13.00
   2  31  -4  136.09   14.80
  -2  31   4  145.79   21.10
  -2  31   4  141.39   13.40
  -1 -31   4   60.39    9.10
   1 -31  -4   72.09   16.10
   1 -31  -4   73.19   10.80
   1  31  -4   60.59    9.50
  -1  31   4   63.39   10.60
   1  31  -4   58.49    8.00
   1  31  -4   68.89    8.10
  -1  31   4   75.99   16.40
   0 -31   4  690.63   26.50
   0 -31  -4  764.02   32.20
   0 -31  -4  716.33   36.50
   0  31   4  735.03   37.80
   0  31  -4  743.53   29.50
   0  31  -4  726.33   24.90
   0  31   4  704.13   32.20
   1 -31   4  481.05   20.00
  -1 -31  -4  515.65   30.20
   1  31   4  440.46   27.20
   1  31   4  467.95   29.80
  -1  31  -4  459.35   16.90
  -1  31  -4  413.86   26.50
   2 -31   4  305.17   16.10
  -2 -31  -4  259.87   25.00
  -2 -31  -4  350.76   27.80
  -2  31  -4  328.87   26.10
  -2  31  -4  327.67   13.10
   2  31   4  344.57   25.40
  -3 -31  -4  943.81   47.10
  -3 -31  -4  901.61   42.50
   3  31   4  929.41   43.60
  -3  31  -4  942.71   27.10
  -3  31  -4 1019.30   28.90
  -4 -31  -4  381.36   29.50
  -4 -31  -4  355.96   32.30
   4  31   4  319.37   27.40
  -4  31  -4  391.76   17.00
  -4  31  -4  360.26   17.70
  -5 -31  -4   56.69   20.60
  -5  31  -4   54.49    9.90
  -5  31  -4   35.50    9.00
  -6 -31  -4  420.96   40.40
  -6  31  -4  384.56   23.50
  -6  31  -4  423.06   23.50
  -8 -32   4   -3.90   17.80
  -8  32   4   10.30   20.40
  -8  32   4   11.90   10.20
  -7 -32   4   19.00   14.80
  -7  32   4   10.00   10.20
  -7  32   4    4.70   16.80
  -7  32   4   20.40    8.80
   7  32  -4    3.50   25.30
  -6 -32   4   -5.10   11.70
  -6  32   4    7.60    7.10
  -6  32   4    4.00   14.70
   6  32  -4   -3.20   18.80
   5 -32  -4   41.90   10.60
  -5 -32   4   30.70   11.80
  -5  32   4   40.40   16.60
  -5  32   4   34.80    7.80
   5  32  -4   44.10   16.30
  -4 -32   4   65.89   13.80
   4 -32  -4   78.89   10.90
  -4  32   4   83.79   18.00
   4  32  -4   50.29   15.30
  -4  32   4   73.79    9.40
  -3 -32   4   -6.30    7.00
   3 -32  -4   13.30    6.70
  -3  32   4    2.80    5.80
  -3  32   4   -7.70   11.10
   3  32  -4    2.00    9.10
  -2 -32   4   69.69   10.70
   2 -32  -4   66.49    9.80
  -2  32   4   65.79    9.60
  -2  32   4   71.69   16.30
   2  32  -4   78.39   12.10
   1 -32  -4   37.80   13.80
   1 -32  -4   34.20    9.00
  -1  32   4   49.30    9.80
   1  32  -4   29.10    6.10
   1  32  -4   51.39    7.30
   1  32  -4   52.29    8.50
  -1  32   4   39.30   13.10
   0 -32  -4   -8.30   10.70
   0 -32   4    9.10    6.00
   0  32   4    9.30   10.10
   0  32  -4    2.10    6.00
   0  32  -4   14.30    7.80
   0  32  -4   12.70    5.50
   0  32   4    5.20    7.40
   1 -32   4   64.69    9.00
  -1 -32  -4   78.09   16.10
   1  32   4   91.29   16.00
  -1  32  -4   75.59    7.10
   1  32   4   78.09   14.00
  -1  32  -4   63.39   13.80
  -2 -32  -4   16.20   12.70
  -2 -32  -4   -3.40   10.40
   2 -32   4    4.40    5.70
  -2  32  -4  -15.40   13.00
   2  32   4   -0.90   10.70
  -3 -32  -4   -6.30   11.60
  -3 -32  -4   21.90   14.00
  -3  32  -4    5.10    4.10
   3  32   4   14.40   11.40
  -3  32  -4    3.50    3.80
  -4 -32  -4   16.40   15.90
  -4 -32  -4   18.00   17.00
  -4  32  -4   17.40    5.50
   4  32   4   26.50   13.40
  -4  32  -4   14.50    5.80
  -5 -32  -4   35.90   18.30
  -5  32  -4    0.80    6.70
  -5  32  -4   11.90    7.20
  -6 -32  -4  -11.30   18.40
  -6  32  -4    2.10    8.70
  -8 -33   4   -8.70   18.10
  -8  33   4    7.50   10.20
  -8  33   4   10.70   18.80
  -7 -33   4  263.67   30.20
  -7  33   4  249.48   19.80
  -7  33   4  254.97   34.30
   7  33  -4  216.98   36.80
  -7  33   4  264.87   18.30
  -6 -33   4  509.35   35.30
  -6  33   4  519.75   22.10
  -6  33   4  461.95   37.70
   6  33  -4  531.65   42.40
  -5 -33   4  139.69   19.90
   5 -33  -4  126.79   14.20
  -5  33   4  121.39   21.80
  -5  33   4  141.69   11.60
   5  33  -4  130.19   22.40
   4 -33  -4  410.36   19.80
  -4 -33   4  407.56   26.40
   4  33  -4  389.76   29.40
  -4  33   4  366.96   17.10
  -4  33   4  399.26   32.60
   3 -33  -4  867.81   29.80
  -3 -33   4  887.91   36.50
   3  33  -4  864.11   38.60
  -3  33   4  907.41   29.80
  -3  33   4  948.41   48.00
  -2 -33   4  268.37   17.90
   2 -33  -4  249.88   15.80
  -2  33   4  245.48   16.10
  -2  33   4  273.77   26.40
   2  33  -4  221.58   18.10
   1 -33  -4  153.08   14.50
   1 -33  -4  151.68   20.80
   1  33  -4  173.88   11.00
  -1  33   4  218.88   16.60
   1  33  -4  187.58   11.50
  -1  33   4  170.18   22.30
   1  33  -4  179.18   13.90
   0 -33   4  807.22   28.20
   0 -33  -4  849.41   40.20
   0  33  -4  804.02   31.50
   0  33  -4  837.82   26.20
   0  33   4  781.22   34.30
   0  33  -4  806.02   30.70
   0  33   4  891.41   42.40
  -1 -33  -4  116.19   17.90
   1 -33   4  104.09   10.40
  -1  33  -4  128.99   17.50
   1  33   4  109.09   18.10
  -2 -33  -4   95.59   17.70
   2 -33   4   93.09    9.50
  -2 -33  -4   96.59   18.30
   2  33   4   86.69   17.00
  -2  33  -4   94.09   18.50
  -3 -33  -4  684.63   38.00
  -3 -33  -4  687.73   40.30
   3  33   4  715.53   38.00
  -4 -33  -4  327.07   31.90
  -4 -33  -4  311.67   30.80
   4  33   4  301.97   27.20
  -5 -33  -4   -4.70   17.20
  -5  33  -4   17.40    6.50
  -5  33  -4   20.00    6.70
  -6 -33  -4  211.88   33.20
  -6  33  -4  234.28   16.70
  -7 -34   4  177.68   26.40
  -7  34   4  240.98   16.70
  -7  34   4  237.48   17.80
  -7  34   4  200.48   30.50
   7  34  -4  238.88   38.40
  -6 -34   4   10.00   13.50
  -6  34   4    1.50    7.30
  -6  34   4  -10.30   16.30
  -6  34   4    2.70    6.90
   6  34  -4   50.69   22.20
  -5 -34   4  451.05   30.20
   5 -34  -4  451.25   22.40
  -5  34   4  457.85   17.70
   5  34  -4  476.05   35.10
  -5  34   4  406.86   35.90
  -4 -34   4  327.27   24.20
   4 -34  -4  323.47   17.50
  -4  34   4  299.27   14.30
  -4  34   4  339.87   32.50
   4  34  -4  326.27   27.10
  -3 -34   4   88.89   13.60
   3 -34  -4   76.69    9.90
   3  34  -4   92.19   15.10
  -3  34   4  106.69   19.60
  -3  34   4   84.09    9.50
   2 -34  -4  214.88   14.70
  -2 -34   4  150.48   14.40
   2  34  -4  169.28   16.50
  -2  34   4  152.78   22.70
  -2  34   4  164.18   13.50
   1 -34  -4  302.27   27.50
  -1 -34   4  345.87   19.50
   1 -34  -4  341.47   19.70
   1  34  -4  340.17   14.30
  -1  34   4  303.57   19.60
   1  34  -4  318.67   18.30
   1  34  -4  332.97   14.30
  -1  34   4  334.87   27.70
   0 -34   4   42.00    7.70
   0 -34  -4   21.20   12.80
   0  34  -4   46.30    9.40
   0  34   4   28.70    9.90
   0  34  -4   41.40    6.60
   0  34   4   19.00   11.70
   0  34  -4   38.60   10.10
  -1 -34  -4  257.07   23.20
   1 -34   4  239.98   12.50
  -1 -34  -4  230.28   24.90
  -1  34  -4  239.28   19.20
  -1  34  -4  243.18   21.90
   1  34   4  237.68   23.70
  -2 -34  -4  419.36   31.10
  -2 -34  -4  482.55   32.10
   2  34   4  430.46   30.20
  -2  34  -4  408.76   31.60
  -3 -34  -4   16.90   15.40
  -3 -34  -4   18.80   14.70
   3  34   4   33.60   13.10
  -4 -34  -4  245.18   31.00
  -4 -34  -4  192.08   28.10
   4  34   4  166.38   23.10
  -5 -34  -4  381.26   38.30
  -7 -35   4   76.99   21.20
  -7  35   4   87.99   10.90
  -7  35   4   54.79   23.60
  -7  35   4   81.29   10.20
  -6 -35   4   40.90   16.50
  -6  35   4   37.20    6.20
   6  35  -4  -15.20   22.20
  -6  35   4   26.40    6.30
  -6  35   4   28.10   16.90
   5 -35  -4   -6.60    8.80
  -5 -35   4    1.30   11.50
   5  35  -4    6.50   16.80
  -5  35   4    3.30   13.60
   4 -35  -4   28.40    8.40
  -4 -35   4   43.40   12.20
   4  35  -4   50.19   15.90
  -4  35   4   30.70   16.10
  -3 -35   4   73.69   12.50
   3 -35  -4   92.69   10.10
   3  35  -4   86.09   14.80
  -3  35   4   69.49   18.40
  -3  35   4   85.19    9.10
   2 -35  -4    9.20    7.30
  -2 -35   4   12.20    7.90
  -2  35   4   13.00   13.40
  -2  35   4   10.90    6.60
   2  35  -4   14.60    8.50
   1 -35  -4   26.50    9.40
  -1 -35   4   52.09    8.70
  -1  35   4   38.80   13.00
   1  35  -4   44.50    8.70
   1  35  -4   36.70    6.20
   1  35  -4   39.50    5.90
  -1  35   4   30.60    8.80
   0 -35  -4  119.09   20.50
   0 -35   4   96.99   10.80
   0  35   4  109.19   18.30
   0  35  -4  102.69    8.20
   0  35  -4  114.19   13.50
   0  35  -4  105.19   13.30
   1 -35   4    7.80    4.70
  -1 -35  -4   16.80   14.10
  -1 -35  -4   -3.70   10.20
   1  35   4   26.30   12.80
  -1  35  -4   -4.20   11.70
  -1  35  -4   16.50    9.00
  -2 -35  -4   -0.80   11.80
  -2 -35  -4    5.90   14.10
  -2  35  -4    7.90   14.90
  -2  35  -4    0.30    8.60
   2  35   4    3.90   11.80
  -3 -35  -4   42.60   16.70
  -3 -35  -4   52.19   18.00
   3  35   4   67.19   16.10
  -4 -35  -4  100.39   22.00
   4  35   4  115.69   20.00
  -5 -35  -4   15.10   19.30
  -7 -36   4  403.46   36.50
  -7  36   4  330.37   35.60
  -6 -36   4   35.40   16.10
  -6  36   4   39.20   20.20
  -5 -36   4  668.53   37.10
   5 -36  -4  660.23   24.10
   5  36  -4  682.93   43.50
  -5  36   4  721.03   47.60
  -4 -36   4  442.76   28.50
   4 -36  -4  457.05   18.60
  -4  36   4  487.85   38.40
   4  36  -4  405.16   31.90
  -3 -36   4   12.60    8.80
   3 -36  -4    3.60    6.50
   3  36  -4    9.80   10.80
  -3  36   4  -18.40   13.10
  -2 -36   4  553.64   26.30
   2 -36  -4  601.74   24.20
  -2  36   4  649.64   40.70
   2  36  -4  600.84   28.30
  -1 -36   4  537.15   23.50
  -1  36   4  589.34   37.20
   1  36  -4  595.74   23.60
   1  36  -4  554.24   17.20
   1  36  -4  561.34   17.30
   0 -36  -4  -12.00    9.30
   0 -36   4    6.50    6.00
   0 -36  -4   -0.10   13.50
   0  36  -4   24.70    8.30
   0  36   4   -3.10   10.60
   0  36  -4   12.70    9.40
  -1 -36  -4  336.47   26.10
  -1 -36  -4  294.87   27.80
  -1  36  -4  319.37   25.00
   1  36   4  278.27   25.50
  -1  36  -4  274.57   21.00
  -2 -36  -4  452.15   32.40
  -2 -36  -4  447.06   32.60
   2  36   4  489.25   32.10
  -2  36  -4  466.15   29.40
  -2  36  -4  501.45   34.60
  -3 -36  -4   54.09   17.70
  -3 -36  -4   69.69   19.20
   3  36   4   47.40   15.50
  -3  36  -4   48.30   15.00
  -4 -36  -4  264.87   30.50
   4  36   4  193.68   23.90
  -5 -36  -4  492.95   42.60
  -7 -37   4   19.60   18.40
  -7  37   4   24.60   21.70
  -6 -37   4  246.28   28.10
  -6  37   4  298.37   33.50
  -5 -37   4   46.20   14.60
   5  37  -4   39.30   20.20
  -5  37   4   27.90   15.80
  -4 -37   4   36.30   12.60
  -4  37   4   35.60   16.20
   4  37  -4   58.49   16.90
   3 -37  -4  139.49   11.90
  -3 -37   4  164.88   17.40
  -3  37   4  156.98   25.30
   3  37  -4  148.39   19.00
   2 -37  -4   91.99   11.20
  -2  37   4   88.29   18.80
   2  37  -4   98.49   13.80
  -1 -37   4    5.70    7.10
  -1  37   4   15.00   13.40
   0 -37   4  118.29   10.40
   0 -37  -4  119.59   16.60
   0  37  -4  123.49   14.40
   0  37   4  138.79   20.80
   0  37  -4  117.29   13.60
  -1 -37  -4   43.80   16.90
  -1 -37  -4   52.99   14.30
  -1  37  -4   15.10   13.60
   1  37   4   52.19   14.70
  -1  37  -4   36.80   11.50
  -2 -37  -4   29.00   16.50
  -2 -37  -4   22.10   14.50
   2  37   4   31.10   14.20
  -2  37  -4   22.30   11.40
  -2  37  -4   13.40   16.90
  -3 -37  -4  157.68   24.40
  -3 -37  -4  164.98   24.60
   3  37   4  158.08   21.90
  -3  37  -4  185.98   23.60
  -4 -37  -4   55.29   20.10
  -4  37  -4   76.79   18.40
   4  37   4   58.59   17.40
  -5 -37  -4   19.60   20.30
  -5  37  -4   16.90   17.60
  -6 -38   4   56.39   17.60
  -6  38   4    9.90   21.40
  -5 -38   4  172.58   22.20
  -5  38   4  125.49   25.80
  -4 -38   4   89.09   15.60
  -4  38   4   91.59   22.90
  -3 -38   4   27.90   10.70
   3 -38  -4   36.10    7.00
  -3  38   4   21.30   15.30
   2 -38  -4  218.58   16.50
   2 -38  -4  215.98   15.00
  -2  38   4  204.98   27.30
  -1 -38   4  118.59   12.60
   1 -38  -4  114.89   14.60
  -1  38   4  114.29   20.70
   0 -38  -4   -1.60    9.90
   0  38  -4   13.00    9.60
   0  38  -4    4.30    8.10
   0  38   4    7.90   12.40
  -1 -38  -4   74.09   21.00
  -1 -38  -4   82.79   16.80
  -1  38  -4   56.29   15.80
   1  38   4   97.39   18.10
  -1  38  -4   66.69   13.50
  -2 -38  -4   87.19   19.70
  -2 -38  -4  108.69   20.60
  -2  38  -4  107.59   21.60
   2  38   4   75.99   18.00
  -2  38  -4  135.19   18.60
  -3 -38  -4   16.50   16.80
  -3 -38  -4   20.80   21.40
   3  38   4   45.00   15.90
  -3  38  -4   25.30   13.60
  -4 -38  -4   38.30   19.10
   4  38   4   15.30   16.50
  -4  38  -4   22.70   16.20
  -6 -39   4  384.56   35.10
  -6  39   4  432.26   40.00
  -5 -39   4  126.59   20.20
  -5  39   4  105.79   23.60
  -4 -39   4  157.18   19.80
  -4  39   4   94.29   21.80
  -3 -39   4  589.24   29.20
  -3  39   4  580.84   41.20
   2 -39  -4  316.67   16.80
  -2 -39   4  329.37   20.10
   2 -39  -4  255.77   17.50
  -2  39   4  360.06   32.00
   1 -39  -4   31.70   10.70
  -1 -39   4   19.20    8.00
  -1  39   4    8.40   14.50
   0 -39  -4  395.36   26.30
   0  39   4  412.86   32.40
   0  39  -4  419.56   21.30
   0  39  -4  362.56   21.60
  -1 -39  -4  215.68   23.10
  -1  39  -4  188.48   22.50
  -1  39  -4  187.48   19.70
   1  39   4  214.18   24.90
  -2 -39  -4   39.50   16.10
  -2 -39  -4    5.80   19.70
  -2  39  -4   42.80   14.00
  -2  39  -4   21.70   18.70
   2  39   4   42.60   15.90
  -3 -39  -4  269.17   32.00
   3  39   4  372.06   30.10
  -3  39  -4  311.17   29.30
  -4 -39  -4  362.06   35.70
  -4  39  -4  291.87   30.50
   4  39   4  302.27   30.50
  -5 -40   4   15.80   14.50
  -5  40   4   10.00   20.00
  -4 -40   4   -7.70   11.50
  -4  40   4   44.20   20.80
  -3 -40   4    2.80    9.50
  -3  40   4   -5.60   14.80
   2 -40  -4   26.40    7.70
   2 -40  -4   25.70    8.50
  -2  40   4   32.10   16.50
  -1 -40   4   12.50    7.40
  -1 -40   4   29.80    9.20
   1 -40  -4    5.80    9.80
  -1  40   4   26.10   15.00
   0  40   4   -5.90   12.80
   0  40  -4   -4.70    9.80
   0  40  -4   10.60    8.70
  -1 -40  -4   13.10   13.00
  -1  40  -4   28.10   11.70
  -1  40  -4   34.40   16.10
   1  40   4   43.90   16.30
  -2 -40  -4   58.79   16.90
  -2  40  -4   47.70   15.00
   2  40   4   49.30   16.60
  -2  40  -4   54.69   20.90
  -3 -40  -4   27.10   17.20
   3  40   4   27.60   16.60
  -3  40  -4   12.80   14.40
  -5 -41   4   34.90   15.40
  -5  41   4   33.60   20.50
  -4  41   4  126.39   25.50
  -3  41   4  226.48   31.20
  -2 -41   4   -6.40    8.50
   2 -41  -4   10.20    7.20
  -2  41   4   31.50   16.70
   1 -41  -4   -4.30    9.60
  -1 -41   4    4.00    7.20
  -1  41   4   10.80   16.70
   0  41  -4  243.68   17.40
   0  41   4  243.78   28.50
   0  41  -4  224.18   18.20
  -1 -41  -4   -2.50   13.50
   1  41   4   31.50   16.70
  -1  41  -4   50.89   17.40
  -1  41  -4   43.10   13.60
  -2 -41  -4    3.00   15.10
  -2  41  -4    3.90   24.10
  -2  41  -4   40.40   14.40
   2  41   4   24.30   15.80
   3  41   4  182.98   24.70
  -3  41  -4  199.28   25.80
  -5  42   4  205.88   32.00
  -3  42   4   37.20   19.20
   0 -42  -4   -9.90   13.40
   0  42  -4   -9.90    9.90
   0  42   4  -11.30   15.00
   0  42  -4   -3.00    8.40
   1  42   4  237.78   27.40
  -1  42  -4  223.48   22.00
   2  42   4  364.56   30.70
  -2  42  -4  289.97   27.10
  -4  43   4   20.00   19.50
  -3  43   4   33.80   21.20
  -2 -43   4   13.00   11.30
  -2  43   4   33.10   18.40
   1 -43  -4   -3.50   10.10
  -1  43   4   30.20   18.30
   0 -43  -4    4.50   12.20
   0  43  -4   -9.20    8.60
   0  43   4  -14.40   15.90
  -1 -43  -4  -14.00   13.60
   1  43   4   33.80   17.00
  -1  43  -4   26.50   12.50
  -2 -43  -4   -5.60   16.90
   2  43   4    2.60   16.00
  -2  43  -4    0.80   14.30
  -3  44   4   -9.40   19.50
  -2  44   4  198.68   30.20
  -1  44   4  218.38   29.90
   0  44  -4   32.50    9.00
   0  44   4   -2.30   15.70
   1  44   4  148.79   23.90
  -1  44  -4  139.29   18.60
  -2  45   4  160.98   28.80
  -1  45   4   79.99   22.50
   0  45   4  287.37   31.70
 -11   0   5  -19.30   16.00
 -11   0   5   -9.50   15.50
 -10   0   5    3.50   14.00
 -10   0   5   21.50   14.00
  -9   0   5   15.50   11.20
  -9   0   5    9.00   10.40
  -8   0   5   27.10   11.90
  -8   0   5   15.20   10.80
  -7   0   5   10.70    7.40
  -7   0   5    6.40    7.30
  -6   0   5   29.60    8.40
  -6   0   5   11.70    7.50
   6   0  -5   37.60   12.20
   5   0  -5    6.20    8.30
   5   0  -5   11.10    6.80
  -5   0   5   19.20    6.80
  -5   0   5   14.10    6.40
  -4   0   5   10.80    5.70
  -4   0   5   11.60    5.40
   4   0  -5   11.50    6.20
   4   0  -5    6.70    5.30
   3   0  -5   11.00    5.40
  -3   0   5   16.20    6.00
   3   0  -5    1.00    4.80
  -3   0   5    6.20    4.90
   2   0  -5   20.60    6.00
  -2   0   5   11.80    5.30
   2   0  -5   13.00    5.50
  -2   0   5   23.70    6.40
  -1   0   5    4.00    3.80
  -1   0   5   -0.70    3.60
   1   0  -5    3.50    4.00
   1   0  -5    4.10    4.20
   0   0   5   -2.10    4.30
   0   0  -5    4.70    5.40
   0   0   5    2.20    4.00
   0   0  -5    2.20    4.40
   1   0   5    0.30    5.00
  -1   0  -5    4.50    5.90
  -1   0  -5    5.30    5.20
   1   0   5    0.10    4.80
  -2   0  -5    1.00    6.10
  -2   0  -5    2.90    6.20
   2   0   5    6.20    6.40
   2   0   5    9.60    6.90
   3   0   5    2.10    7.00
  -3   0  -5    7.00    7.90
   3   0   5    2.70    6.70
  -3   0  -5    8.20    8.30
   4   0   5   -4.10    7.90
  -4   0  -5   -7.80   10.40
  -4   0  -5    8.50   10.10
  -5   0  -5   -7.60   12.20
   5   0   5   -5.90    9.30
   6   0   5   -6.10   10.60
  -7   0  -5   12.40   14.50
  -8   0  -5  -38.50   15.80
 -11  -1   5   40.70   20.10
 -11  -1   5   71.19   20.00
 -11   1   5   36.60   18.20
 -11   1   5   40.00   20.00
 -10  -1   5  239.88   28.10
 -10  -1   5  237.88   26.90
 -10   1   5  243.88   27.40
 -10   1   5  258.57   28.30
  -9  -1   5  677.63   38.90
  -9  -1   5  657.43   39.50
  -9   1   5  694.53   40.80
  -9   1   5  630.04   39.20
  -8  -1   5  832.32   41.10
  -8  -1   5  749.42   41.10
  -8   1   5  803.82   42.10
  -8   1   5  837.42   41.70
  -7  -1   5  274.97   22.60
  -7  -1   5  296.27   23.50
  -7   1   5  294.77   24.10
  -7   1   5  299.17   23.70
  -6  -1   5 1969.00   64.29
  -6  -1   5 2060.19   67.39
   6  -1  -5 1978.60   67.49
  -6   1   5 1976.50   65.29
   6   1  -5 2011.70   68.29
  -6   1   5 1986.20   65.79
   5  -1  -5 1483.25   52.89
  -5  -1   5 1425.56   50.19
  -5  -1   5 1555.64   53.39
   5  -1  -5 1458.95   50.69
  -5   1   5 1394.96   50.59
   5   1  -5 1483.25   50.39
  -5   1   5 1496.45   52.39
   5   1  -5 1505.95   53.59
  -4  -1   5  162.68   15.20
   4  -1  -5  148.69   13.70
  -4  -1   5  159.38   14.30
   4  -1  -5  142.69   14.00
  -4   1   5  158.68   14.30
   4   1  -5  109.99   14.50
  -4   1   5  132.09   13.60
   4   1  -5  121.09   13.10
   3  -1  -5 2255.27   64.89
  -3  -1   5 2258.07   66.49
   3  -1  -5 2237.28   64.19
  -3  -1   5 2230.18   64.69
  -3   1   5 2175.48   65.99
   3   1  -5 2324.37   63.99
   3   1  -5 2326.87   65.59
   2  -1  -5 1885.81   55.69
  -2  -1   5 1894.71   58.59
  -2  -1   5 1922.41   57.39
   2  -1  -5 1918.41   56.59
  -2   1   5 2051.39   59.59
   2   1  -5 1913.81   56.09
  -2   1   5 1902.71   57.99
   2   1  -5 1947.71   55.89
   1  -1  -5    6.20    5.30
   1  -1  -5   13.90    5.30
  -1  -1   5   12.20    5.60
  -1  -1   5    6.30    4.20
   1   1  -5   16.40    5.60
   1   1  -5   13.80    5.40
  -1   1   5   14.50    5.50
  -1   1   5   11.90    5.10
   0  -1  -5  601.94   27.70
   0  -1   5  565.24   27.80
   0  -1  -5  644.54   27.90
   0  -1   5  612.14   28.90
   0   1  -5  602.94   26.90
   0   1   5  648.54   29.60
   0   1  -5  643.14   28.20
   0   1   5  677.73   30.10
   1  -1   5 2071.09   64.19
   1  -1   5 2074.49   64.29
  -1  -1  -5 2057.89   61.99
  -1  -1  -5 1952.10   61.79
   1   1   5 1987.70   63.49
  -1   1  -5 2030.40   62.39
   1   1   5 1981.00   63.59
  -1   1  -5 2114.39   61.79
   2  -1   5  105.59   15.60
  -2  -1  -5   86.59   13.90
  -2  -1  -5   65.29   12.40
   2  -1   5   67.29   12.60
  -2   1  -5   82.79   13.80
   2   1   5   71.99   12.80
  -2   1  -5   65.29   11.80
   2   1   5   72.89   12.80
  -3  -1  -5  772.12   38.20
   3  -1   5  828.42   39.10
   3  -1   5  891.01   40.50
  -3  -1  -5  877.21   39.80
   3   1   5  787.92   38.90
   3   1   5  825.22   39.50
  -3   1  -5  820.82   38.10
  -3   1  -5  803.52   38.60
  -4  -1  -5 1332.57   57.49
   4  -1   5 1433.56   57.19
  -4  -1  -5 1555.04   58.79
   4   1   5 1448.26   57.79
  -4   1  -5 1350.16   57.89
  -4   1  -5 1489.55   57.39
   5  -1   5   76.79   16.00
  -5  -1  -5   89.99   18.90
   5   1   5   67.99   15.60
  -5   1  -5   70.59   16.90
   6  -1   5  363.26   32.10
   6   1   5  400.16   31.60
  -7  -1  -5  828.02   52.19
  -7   1  -5  819.42   51.59
  -8  -1  -5  196.08   31.70
  -8   1  -5  127.29   25.00
 -11  -2   5  185.18   29.10
 -11  -2   5  152.28   25.50
 -11   2   5  238.68   31.80
 -11   2   5  189.78   28.70
 -10  -2   5  284.27   29.40
 -10  -2   5  277.77   29.30
 -10   2   5  347.77   32.20
 -10   2   5  310.97   31.80
  -9  -2   5    2.30    9.80
  -9  -2   5   -3.80    9.50
  -9   2   5   14.90   10.70
  -9   2   5    3.10   11.70
  -8  -2   5  506.85   31.90
  -8  -2   5  425.66   31.20
  -8   2   5  466.35   32.30
  -8   2   5  455.55   31.90
  -7  -2   5  540.05   30.90
  -7  -2   5  530.45   31.90
  -7   2   5  587.24   33.70
  -7   2   5  555.74   32.60
   6  -2  -5   15.10    9.30
  -6  -2   5    3.10    7.00
  -6  -2   5    8.70    7.80
  -6   2   5   22.20    8.40
  -6   2   5   22.50    9.30
   6   2  -5   12.20    9.00
  -5  -2   5  733.63   32.70
   5  -2  -5  796.72   36.00
  -5  -2   5  766.82   35.30
   5  -2  -5  784.12   35.10
  -5   2   5  785.82   35.20
   5   2  -5  768.52   33.00
   5   2  -5  779.82   35.90
  -5   2   5  788.92   35.20
  -4  -2   5 2992.00   82.29
  -4  -2   5 3044.10   85.59
   4  -2  -5 3252.07   85.59
   4  -2  -5 3101.09   83.49
   4   2  -5 3089.19   81.79
  -4   2   5 3074.89   85.29
   4   2  -5 3039.80   84.79
  -4   2   5 3155.08   85.69
  -3  -2   5  721.53   30.50
   3  -2  -5  781.82   31.70
  -3  -2   5  771.92   32.80
   3  -2  -5  781.52   31.50
   3   2  -5  740.93   29.80
  -3   2   5  749.13   32.30
   3   2  -5  762.42   31.50
  -3   2   5  747.33   32.00
   2  -2  -5  127.89   12.60
  -2  -2   5  101.79   11.80
  -2  -2   5   92.09   10.30
   2  -2  -5  135.49   11.90
  -2   2   5  123.79   11.80
   2   2  -5  107.49   10.90
  -2   2   5  110.39   11.40
   2   2  -5  108.69   11.20
  -1  -2   5 2088.19   61.59
  -1  -2   5 2061.49   60.79
   1  -2  -5 2063.09   58.69
   1  -2  -5 2094.69   60.19
   1   2  -5 2126.59   58.89
  -1   2   5 2063.39   61.99
   1   2  -5 2098.29   59.29
  -1   2   5 1834.32   59.69
   0  -2   5 1811.92   55.59
   0  -2  -5 1726.53   52.69
   0  -2  -5 1637.34   52.79
   0  -2   5 1637.64   53.59
   0   2   5 1676.73   54.69
   0   2   5 1546.35   53.69
   0   2  -5 1779.32   52.69
   0   2  -5 1770.42   53.49
   1  -2   5 1020.80   40.30
  -1  -2  -5  975.30   38.90
  -1  -2  -5 1017.10   38.80
   1  -2   5 1024.60   40.50
   1   2   5  999.30   40.20
   1   2   5 1021.00   40.80
  -1   2  -5  987.80   38.90
  -1   2  -5 1050.19   39.10
   2  -2   5 1593.04   56.09
  -2  -2  -5 1542.15   54.49
  -2  -2  -5 1692.43   55.79
   2  -2   5 1570.54   55.49
   2   2   5 1566.04   56.79
  -2   2  -5 1589.24   54.99
   2   2   5 1535.85   55.49
  -2   2  -5 1597.14   53.69
   3  -2   5  672.43   35.40
  -3  -2  -5  716.53   35.90
  -3  -2  -5  729.03   36.30
  -3   2  -5  666.53   33.90
   3   2   5  670.83   35.20
  -3   2  -5  725.83   36.70
   3   2   5  673.33   35.70
  -4  -2  -5   60.59   15.70
  -4  -2  -5   64.99   15.60
   4  -2   5   54.49   13.20
  -4   2  -5   61.39   18.30
   4   2   5   71.49   15.80
  -4   2  -5   35.40   12.10
  -5  -2  -5  923.81   49.70
   5  -2   5  966.60   47.40
   5   2   5  981.00   48.50
  -5   2  -5  966.20   47.30
   6  -2   5  289.47   29.50
   6   2   5  318.57   30.00
  -7  -2  -5  -18.70   14.30
  -7   2  -5    1.20   14.30
  -8  -2  -5  282.87   37.60
  -8   2  -5  227.28   32.70
 -11  -3   5  -14.20   16.60
 -11  -3   5   27.70   18.50
 -11   3   5    6.40   18.20
 -11   3   5   39.00   17.40
 -10  -3   5   16.60   13.90
 -10  -3   5   46.90   17.80
 -10   3   5   26.90   16.60
 -10   3   5   38.50   15.50
  -9  -3   5   20.40   12.50
  -9  -3   5    9.10   11.50
  -9   3   5    3.30   11.40
  -9   3   5   -3.40    9.00
  -8  -3   5   20.90   10.50
  -8  -3   5   18.30   10.40
  -8   3   5    8.90    9.00
  -8   3   5   -3.70    9.40
  -7  -3   5   18.50    9.40
  -7  -3   5   22.00    9.30
  -7   3   5   19.10    9.10
  -7   3   5   19.90   10.40
  -6  -3   5  334.47   22.10
   6  -3  -5  354.16   25.90
  -6  -3   5  371.06   25.60
  -6   3   5  326.07   23.40
  -6   3   5  308.27   22.30
   6   3  -5  359.56   25.90
   5  -3  -5  126.69   14.20
  -5  -3   5   66.39   12.20
  -5  -3   5   79.39   12.70
   5  -3  -5   98.69   14.90
  -5   3   5   97.69   14.10
  -5   3   5   75.79   12.50
   5   3  -5   65.09   11.30
   5   3  -5   61.49   12.10
   4  -3  -5  356.66   22.00
  -4  -3   5  384.86   21.20
   4  -3  -5  357.16   21.40
  -4  -3   5  325.07   21.40
  -4   3   5  354.26   21.90
   4   3  -5  370.36   20.60
  -4   3   5  365.66   22.50
   4   3  -5  357.56   22.30
   3  -3  -5  186.68   15.00
  -3  -3   5  177.38   15.00
   3  -3  -5  181.38   14.30
  -3  -3   5  186.08   14.30
   3   3  -5  195.18   14.90
  -3   3   5  163.18   14.80
   3   3  -5  197.98   14.10
  -3   3   5  190.78   15.60
  -2  -3   5  340.47   19.50
   2  -3  -5  367.06   20.30
  -2  -3   5  345.07   20.40
   2  -3  -5  363.16   19.40
   2   3  -5  349.67   19.30
   2   3  -5  330.57   18.60
  -2   3   5  350.86   20.50
  -2   3   5  358.16   20.70
   1  -3  -5   39.00    7.70
  -1  -3   5   33.80    7.40
  -1  -3   5   24.40    6.30
   1  -3  -5   45.50    8.50
  -1   3   5   43.00    8.90
  -1   3   5   32.10    7.30
   1   3  -5   51.79    8.40
   0  -3  -5   56.79    9.90
   0  -3   5   67.69   10.60
   0  -3  -5   62.99   10.80
   0  -3   5   64.09   10.70
   0   3   5   51.89   10.00
   0   3   5   69.29   11.30
   0   3  -5   60.89    9.60
   0   3  -5   62.19   10.10
   1  -3   5   41.40    9.80
   1  -3   5   45.70    9.90
  -1  -3  -5   61.09   10.80
  -1  -3  -5   64.99   12.20
  -1   3  -5   60.59   11.00
   1   3   5   61.89   11.10
   1   3   5   62.09   12.10
  -1   3  -5   42.70    9.90
   2  -3   5   18.30    8.20
   2  -3   5   25.80    8.20
  -2  -3  -5   30.80    9.70
  -2  -3  -5   42.60   10.20
  -2   3  -5   46.10   11.50
   2   3   5   30.30    9.40
  -2   3  -5   44.40   10.40
   2   3   5   49.10   11.30
  -3  -3  -5   82.09   14.60
  -3  -3  -5   90.59   16.30
   3  -3   5   73.19   13.40
   3   3   5  124.79   18.20
  -3   3  -5  117.29   17.90
   3   3   5   81.39   14.70
  -3   3  -5   92.89   15.40
  -4  -3  -5  133.19   19.70
  -4  -3  -5  145.29   20.40
   4  -3   5  104.99   17.80
  -4   3  -5  158.48   20.30
  -4   3  -5  164.28   33.70
   4   3   5  168.58   19.10
   5  -3   5   63.79   14.40
  -5  -3  -5   75.89   20.50
  -5   3  -5   47.10   14.60
   5   3   5   65.79   16.50
   6  -3   5   28.40   15.80
   6   3   5   89.19   19.50
  -6   3  -5   61.49   20.80
  -7  -3  -5  103.49   24.40
  -7   3  -5   71.19   19.00
  -8  -3  -5    6.40   18.60
  -8   3  -5   33.80   19.80
 -11  -4   5  508.55   40.30
 -11  -4   5  466.75   38.50
 -11   4   5  508.65   40.80
 -11   4   5  480.55   42.70
 -10  -4   5  548.15   39.20
 -10  -4   5  529.75   36.70
 -10   4   5  596.44   42.00
 -10   4   5  562.64   39.40
  -9  -4   5   44.20   14.20
  -9  -4   5   60.79   15.10
  -9   4   5   33.40   12.90
  -9   4   5   49.40   14.80
  -8  -4   5  699.53   36.90
  -8  -4   5  672.93   38.50
  -8   4   5  680.03   38.40
  -8   4   5  667.13   37.10
  -7  -4   5  961.20   41.30
  -7  -4   5 1012.90   45.50
  -7   4   5  990.40   45.30
  -7   4   5  972.80   43.70
   6  -4  -5   40.50   10.50
  -6  -4   5   44.00    9.90
  -6  -4   5   40.50   10.20
  -6   4   5   32.90   10.80
  -6   4   5   45.80   11.10
   6   4  -5   32.70   11.90
  -5  -4   5 1776.62   59.09
   5  -4  -5 1725.53   57.99
   5  -4  -5 1775.42   58.09
  -5  -4   5 1715.83   55.09
   5   4  -5 1749.62   54.49
   5   4  -5 1749.03   59.39
  -5   4   5 1748.82   57.99
  -5   4   5 1637.84   57.79
   4  -4  -5 3832.82   99.99
   4  -4  -5 3848.81   99.69
  -4  -4   5 3838.62   97.29
  -4  -4   5 3751.22  101.39
   4   4  -5 3940.91  101.49
  -4   4   5 3829.92  100.69
   4   4  -5 3888.11   96.49
  -4   4   5 3789.82  101.79
  -3  -4   5  178.68   14.90
  -3  -4   5  184.88   14.10
   3  -4  -5  201.28   15.40
   3  -4  -5  192.18   16.10
  -3   4   5  183.68   15.30
   3   4  -5  204.18   14.20
   3   4  -5  218.18   16.00
  -3   4   5  152.88   14.20
  -2  -4   5  321.57   19.40
   2  -4  -5  269.77   16.80
   2  -4  -5  293.27   18.30
  -2  -4   5  268.97   17.10
  -2   4   5  318.77   19.20
  -2   4   5  286.27   18.70
   2   4  -5  303.37   17.80
   2   4  -5  274.57   16.20
   1  -4  -5 2992.50   80.69
  -1  -4   5 3080.59   80.49
   1  -4  -5 2996.70   78.69
  -1  -4   5 3018.20   81.49
  -1   4   5 3080.79   82.39
   1   4  -5 2909.21   77.69
  -1   4   5 2922.01   81.99
   1   4  -5 3053.19   78.59
   0  -4   5 1300.17   45.10
   0  -4  -5 1319.07   44.90
   0  -4   5 1301.27   45.10
   0  -4  -5 1323.77   44.10
   0   4   5 1318.57   46.50
   0   4  -5 1290.37   43.90
   0   4  -5 1293.97   42.80
   0   4   5 1256.57   45.80
  -1  -4  -5  615.34   29.30
   1  -4   5  564.44   28.80
   1  -4   5  561.94   28.50
  -1  -4  -5  569.04   28.00
   1   4   5  587.04   29.90
   1   4   5  604.94   29.80
  -1   4  -5  602.34   27.80
  -1   4  -5  582.44   28.40
   2  -4   5 1989.10   64.89
  -2  -4  -5 1977.10   63.49
  -2  -4  -5 2022.20   64.19
   2  -4   5 1940.61   63.89
   2   4   5 1966.70   65.69
  -2   4  -5 1958.40   63.59
   2   4   5 1955.10   64.89
  -2   4  -5 1935.51   61.39
   3  -4   5 1056.59   46.20
  -3  -4  -5 1112.39   47.10
  -3  -4  -5 1159.58   47.50
   3   4   5 1163.28   49.00
   3   4   5 1176.18   48.30
  -3   4  -5 1212.48   48.80
  -3   4  -5 1163.38   45.60
  -4  -4  -5   20.80   11.50
   4  -4   5   -3.90    6.80
  -4  -4  -5   10.10   10.70
   4   4   5   15.70    9.20
  -4   4  -5   19.00   11.40
   5  -4   5 1150.88   51.59
  -5   4  -5 1062.39   51.19
   5   4   5 1166.98   53.89
   6  -4   5  683.33   41.70
  -6   4  -5  576.14   42.50
   6   4   5  669.63   42.00
  -7  -4  -5    1.60   15.50
  -7   4  -5   11.20   13.90
  -8  -4  -5  505.45   46.10
  -8   4  -5  477.45   42.50
 -11  -5   5   45.30   20.20
 -11  -5   5   37.40   18.10
 -11   5   5   52.69   21.50
 -11   5   5   76.29   21.10
 -10  -5   5   90.49   22.30
 -10  -5   5  115.79   20.90
 -10   5   5  106.49   23.20
 -10   5   5  101.09   20.60
  -9  -5   5  291.97   27.60
  -9  -5   5  306.47   27.10
  -9   5   5  343.47   29.80
  -9   5   5  294.37   27.20
  -8  -5   5  166.88   19.30
  -8  -5   5  183.38   24.40
  -8   5   5  139.49   20.80
  -8   5   5  144.79   21.10
  -7  -5   5   30.20    9.90
  -7  -5   5   52.99   13.10
  -7   5   5   35.50   11.50
  -7   5   5   48.10   12.80
  -6  -5   5  520.45   27.00
   6  -5  -5  512.95   30.80
  -6  -5   5  535.85   30.70
   6   5  -5  500.35   31.00
  -6   5   5  495.85   29.70
  -6   5   5  530.75   29.30
  -5  -5   5  182.08   16.60
   5  -5  -5  164.98   16.60
  -5  -5   5  162.18   14.30
   5  -5  -5  175.58   16.70
   5   5  -5  151.98   17.50
   5   5  -5  176.08   15.20
  -5   5   5  145.69   16.40
  -5   5   5  130.69   14.10
  -4  -5   5   38.80    8.10
  -4  -5   5   45.10    9.80
   4  -5  -5   50.99    9.90
   4  -5  -5   39.50    9.00
  -4   5   5   42.30    9.20
   4   5  -5   36.30    7.80
   4   5  -5   40.70    9.70
  -3  -5   5  487.05   25.60
   3  -5  -5  501.65   24.10
   3  -5  -5  509.65   25.70
  -3  -5   5  514.95   23.60
  -3   5   5  483.75   26.00
  -3   5   5  532.85   26.00
   3   5  -5  481.55   24.70
   3   5  -5  483.85   22.40
  -2  -5   5 1350.96   46.00
   2  -5  -5 1312.47   44.60
   2  -5  -5 1330.87   43.10
  -2  -5   5 1316.07   43.10
  -2   5   5 1347.47   45.90
  -2   5   5 1260.97   45.60
   2   5  -5 1322.17   41.60
   2   5  -5 1380.96   44.00
  -1  -5   5  148.59   13.10
  -1  -5   5  165.28   14.30
   1  -5  -5  147.69   13.20
   1  -5  -5  149.29   12.80
   1   5  -5  149.49   12.40
  -1   5   5  154.98   14.00
  -1   5   5  156.58   14.00
   1   5  -5  150.08   12.80
   0  -5   5 2566.84   74.59
   0  -5  -5 2703.13   75.29
   0  -5  -5 2727.73   74.19
   0   5  -5 2654.63   72.59
   0   5  -5 2782.82   74.39
   0   5   5 2723.53   77.39
   0   5   5 2703.83   77.09
  -1  -5  -5 1657.73   54.99
  -1  -5  -5 1700.23   55.19
   1  -5   5 1630.54   55.49
   1  -5   5 1770.82   56.79
  -1   5  -5 1744.53   53.79
  -1   5  -5 1669.53   54.69
   1   5   5 1699.33   56.89
   1   5   5 1730.93   57.69
  -2  -5  -5   28.80   10.00
   2  -5   5   35.20    9.40
  -2  -5  -5   30.90    9.00
   2  -5   5   32.80    8.60
   2   5   5   34.90    9.50
  -2   5  -5   18.10    8.40
   2   5   5   26.50    9.00
  -2   5  -5   19.40    8.50
  -3  -5  -5  538.55   31.40
   3  -5   5  549.05   30.80
  -3  -5  -5  566.64   31.30
  -3   5  -5  560.44   32.00
   3   5   5  543.35   32.00
   3   5   5  583.74   32.50
  -3   5  -5  535.05   29.60
  -4  -5  -5  392.36   29.00
  -4  -5  -5  445.46   31.40
   4  -5   5  398.36   27.80
   4   5   5  476.15   32.00
  -4   5  -5  367.06   26.50
   5  -5   5   10.90    8.80
   5   5   5   10.40   10.50
  -5   5  -5   24.70   13.50
  -6  -5  -5  248.08   29.00
   6  -5   5  262.97   26.10
  -6   5  -5  287.67   31.10
   6   5   5  317.37   31.20
  -7  -5  -5  342.27   36.30
  -7   5  -5  323.07   34.50
  -8  -5  -5   19.90   19.40
  -8   5  -5   55.59   20.90
 -11  -6   5   47.20   18.90
 -11  -6   5   44.70   19.40
 -11   6   5   25.00   20.90
 -11   6   5   75.39   20.70
 -10  -6   5  230.18   26.30
 -10  -6   5  201.78   28.20
 -10   6   5  207.18   24.70
 -10   6   5  282.37   32.00
  -9  -6   5   51.99   15.60
  -9  -6   5   40.20   13.70
  -9   6   5   51.79   16.00
  -9   6   5   56.69   15.40
  -8  -6   5  341.17   27.40
  -8  -6   5  296.17   24.20
  -8   6   5  291.67   26.00
  -8   6   5  272.87   24.10
  -7  -6   5  690.53   32.80
  -7  -6   5  638.94   35.80
  -7   6   5  627.84   36.80
  -7   6   5  618.24   33.70
   6  -6  -5   83.79   14.30
  -6  -6   5   68.09   13.30
  -6  -6   5   69.49   11.90
   6   6  -5   76.69   16.20
  -6   6   5   56.49   12.40
  -6   6   5   66.69   12.10
   5  -6  -5   79.89   13.10
   5  -6  -5   71.39   13.00
  -5  -6   5  116.99   12.50
  -5  -6   5  104.59   15.00
   5   6  -5  107.29   13.60
   5   6  -5  124.19   16.60
  -5   6   5   76.49   13.10
  -5   6   5   75.39   12.10
  -4  -6   5  747.73   30.00
  -4  -6   5  763.82   34.00
   4  -6  -5  713.93   32.60
   4  -6  -5  718.13   31.70
   4   6  -5  750.52   33.50
  -4   6   5  740.63   34.40
  -4   6   5  746.43   32.80
   4   6  -5  785.62   30.00
   3  -6  -5   51.39    9.00
  -3  -6   5   61.29   10.70
   3  -6  -5   48.30    9.50
  -3  -6   5   69.69    9.90
  -3   6   5   62.59   10.70
   3   6  -5   61.09   10.20
   3   6  -5   62.69    9.20
  -3   6   5   60.99   10.10
   2  -6  -5  779.52   30.40
   2  -6  -5  728.93   31.30
  -2  -6   5  779.12   32.60
  -2  -6   5  810.32   30.70
   2   6  -5  779.02   29.00
   2   6  -5  806.02   31.40
  -2   6   5  786.22   32.80
  -2   6   5  747.83   33.10
   1  -6  -5  590.84   26.00
   1  -6  -5  583.54   27.30
  -1  -6   5  606.24   26.70
  -1  -6   5  554.74   26.90
   1   6  -5  611.14   25.80
  -1   6   5  587.54   28.60
   1   6  -5  584.54   25.10
  -1   6   5  610.64   28.30
   0  -6   5  312.97   19.50
   0  -6  -5  309.77   19.90
   0  -6  -5  325.27   19.40
   0  -6   5  229.08   17.00
   0   6   5  306.77   20.10
   0   6   5  310.67   20.50
   0   6  -5  313.37   18.10
   0   6  -5  289.07   18.80
   1  -6   5  326.37   21.50
  -1  -6  -5  328.17   21.30
  -1  -6  -5  319.77   21.00
   1  -6   5  375.96   22.60
   1   6   5  332.07   22.00
  -1   6  -5  354.46   21.60
  -1   6  -5  353.56   20.40
   1   6   5  355.16   22.90
  -2  -6  -5  279.67   21.20
   2  -6   5  265.27   20.00
  -2  -6  -5  262.77   20.00
   2  -6   5  232.98   18.90
   2   6   5  256.27   20.60
  -2   6  -5  227.58   19.20
   2   6   5  245.98   20.30
  -2   6  -5  230.18   18.40
  -3  -6  -5  447.36   28.60
   3  -6   5  421.26   26.60
  -3  -6  -5  437.46   28.00
  -3   6  -5  402.26   27.10
  -3   6  -5  447.66   27.30
   3   6   5  440.46   27.90
   3   6   5  464.95   29.30
  -4  -6  -5   10.70   10.70
  -4  -6  -5    6.30   10.70
   4  -6   5    3.70    7.70
   4   6   5   17.90   10.40
   4   6   5   -2.60    7.10
  -4   6  -5    4.20    9.80
   5  -6   5  472.95   31.70
  -5   6  -5  397.46   29.90
   5   6   5  409.26   31.80
   6  -6   5  147.19   22.60
  -6  -6  -5  150.58   24.90
  -6   6  -5  136.79   23.30
   6   6   5  162.18   24.10
  -6   6  -5  140.39   22.80
  -7  -6  -5   -8.00   13.80
  -7   6  -5  -19.10   11.30
  -8  -6  -5  157.08   29.20
  -8   6  -5  123.09   25.40
 -11  -7   5   85.49   23.80
 -11  -7   5   97.29   22.60
 -11   7   5   89.19   21.40
 -11   7   5   94.19   24.70
 -10  -7   5  207.68   24.20
 -10  -7   5  147.29   26.30
 -10   7   5  163.38   24.20
 -10   7   5  211.48   30.80
  -9  -7   5  745.73   39.60
  -9  -7   5  746.83   43.40
  -9   7   5  685.23   39.60
  -9   7   5  753.92   44.00
  -8  -7   5  559.14   31.50
  -8  -7   5  561.54   35.90
  -8   7   5  521.45   33.10
  -8   7   5  538.25   35.30
  -7  -7   5  432.26   26.00
  -7  -7   5  425.46   30.00
  -7   7   5  414.56   30.50
  -7   7   5  407.56   26.70
   6  -7  -5 1715.43   60.39
  -6  -7   5 1735.63   61.79
  -6  -7   5 1690.83   54.69
   6   7  -5 1671.03   62.39
  -6   7   5 1761.42   62.99
  -6   7   5 1708.43   58.79
   5  -7  -5 1608.74   53.99
  -5  -7   5 1520.85   49.40
   5  -7  -5 1687.13   56.69
  -5  -7   5 1553.84   55.29
   5   7  -5 1571.04   49.70
   5   7  -5 1533.25   55.99
  -5   7   5 1615.94   57.19
  -5   7   5 1520.95   53.09
   4  -7  -5   74.79   12.30
  -4  -7   5   82.29   12.80
   4  -7  -5   74.09   11.20
  -4  -7   5   90.69   10.30
  -4   7   5   79.39   13.50
  -4   7   5   62.89   10.20
   4   7  -5   80.59   10.80
   4   7  -5   83.39   12.80
   3  -7  -5 2846.02   76.39
  -3  -7   5 2893.51   74.99
   3  -7  -5 2819.82   79.59
  -3  -7   5 2782.02   79.29
  -3   7   5 2858.91   79.09
  -3   7   5 2896.11   82.19
   3   7  -5 2952.10   79.09
   3   7  -5 2892.51   73.79
   2  -7  -5 3364.46   88.49
   2  -7  -5 3308.67   84.89
  -2  -7   5 3289.27   88.29
  -2  -7   5 3309.27   84.69
   2   7  -5 3268.77   85.59
   2   7  -5 3474.65   83.79
  -2   7   5 3311.47   90.39
  -2   7   5 3372.56   88.89
  -1  -7   5    4.10    4.60
  -1  -7   5   -2.00    4.00
   1  -7  -5    4.30    4.20
   1  -7  -5   -0.60    4.80
  -1   7   5    5.80    5.30
   1   7  -5    1.20    3.90
  -1   7   5   -4.50    4.40
   1   7  -5    3.00    4.40
   0  -7  -5 1791.32   54.99
   0  -7  -5 1801.62   56.09
   0  -7   5 1838.62   55.99
   0  -7   5 1731.93   55.09
   0   7  -5 1775.32   53.99
   0   7  -5 1721.63   52.59
   0   7   5 1697.93   56.79
   0   7   5 1746.63   57.09
  -1  -7  -5 2196.18   66.09
  -1  -7  -5 2038.10   65.09
   1  -7   5 2173.58   66.19
   1  -7   5 2267.17   67.19
   1   7   5 2162.28   67.89
   1   7   5 2200.18   68.69
  -1   7  -5 2236.98   66.09
  -1   7  -5 2201.38   63.49
   2  -7   5    7.10    5.60
  -2  -7  -5   -3.30    6.10
   2  -7   5    9.30    6.20
  -2  -7  -5   -5.90    6.40
   2   7   5    8.70    7.10
  -2   7  -5    4.70    6.50
  -2   7  -5  -11.40    6.70
   2   7   5   13.30    6.90
  -3  -7  -5 1219.98   48.80
   3  -7   5 1293.77   49.40
  -3  -7  -5 1184.58   49.20
  -3   7  -5 1210.28   49.20
   3   7   5 1155.78   48.50
  -3   7  -5 1196.18   46.60
   3   7   5 1183.48   50.19
  -4  -7  -5 1505.25   60.49
  -4  -7  -5 1463.55   59.29
   4  -7   5 1492.35   57.69
   4   7   5 1488.85   60.39
  -4   7  -5 1568.94   57.19
   4   7   5 1470.85   58.19
   5  -7   5  146.49   20.60
   5   7   5  146.49   22.00
  -5   7  -5  156.08   22.80
   6  -7   5  359.26   31.00
  -6  -7  -5  378.36   36.00
  -6   7  -5  374.76   34.00
  -6   7  -5  433.76   34.50
   6   7   5  350.46   32.40
  -7  -7  -5  948.31   56.49
  -7   7  -5  943.21   54.29
  -8  -7  -5  129.49   27.20
  -8   7  -5   78.09   23.50
 -11  -8   5   48.70   18.80
 -11  -8   5   33.20   19.10
 -11   8   5   39.90   16.30
 -11   8   5   46.10   22.00
 -10  -8   5  109.49   20.20
 -10  -8   5   76.79   19.00
 -10   8   5   87.69   22.50
 -10   8   5   73.69   18.30
  -9  -8   5   10.60   11.50
  -9  -8   5   14.30   12.30
  -9   8   5   -8.30   11.10
  -9   8   5  -16.00    9.70
  -8  -8   5   71.69   15.00
  -8  -8   5   74.89   14.00
  -8   8   5   64.29   15.70
  -8   8   5   63.69   13.40
  -7  -8   5  376.66   27.90
  -7  -8   5  412.46   24.80
  -7   8   5  417.46   30.90
   7   8  -5  366.36   36.70
  -7   8   5  419.16   27.30
  -6  -8   5   51.49   11.80
  -6  -8   5   61.69   11.00
   6  -8  -5   59.79   13.40
  -6   8   5   85.59   13.30
  -6   8   5   93.19   16.30
   6   8  -5   49.70   13.00
  -5  -8   5  610.44   31.20
   5  -8  -5  611.74   30.50
   5  -8  -5  577.74   31.20
  -5  -8   5  612.24   27.10
  -5   8   5  644.54   32.90
   5   8  -5  587.54   31.80
  -5   8   5  647.74   31.10
   5   8  -5  618.94   27.20
  -4  -8   5  562.14   24.90
   4  -8  -5  590.44   28.00
  -4  -8   5  625.84   30.20
   4  -8  -5  590.74   29.40
   4   8  -5  597.44   25.10
   4   8  -5  530.45   28.00
  -4   8   5  570.34   28.20
  -4   8   5  544.45   29.60
  -3  -8   5  144.59   12.10
   3  -8  -5  159.68   13.70
  -3  -8   5  169.08   15.10
   3  -8  -5  154.68   14.70
  -3   8   5  146.49   14.80
   3   8  -5  189.58   15.60
   3   8  -5  164.38   12.30
  -3   8   5  161.58   14.50
   2  -8  -5  294.17   17.50
  -2  -8   5  251.77   17.30
  -2  -8   5  225.78   15.30
   2  -8  -5  269.17   18.00
  -2   8   5  247.98   17.40
   2   8  -5  237.98   16.50
  -2   8   5  265.37   19.00
   2   8  -5  262.17   15.60
  -1  -8   5  257.77   16.50
   1  -8  -5  283.47   18.40
  -1  -8   5  264.57   18.00
   1  -8  -5  277.87   17.20
   1   8  -5  263.97   16.70
   1   8  -5  255.67   15.70
  -1   8   5  254.37   17.90
  -1   8   5  283.77   19.20
   0  -8  -5   45.60    9.10
   0  -8   5   30.90    8.00
   0  -8   5   39.90    8.30
   0  -8  -5   46.00    9.60
   0   8  -5   39.60    8.90
   0   8  -5   40.20    8.30
   0   8   5   31.70    8.70
   0   8   5   42.10    9.40
  -1  -8  -5  116.79   13.30
   1  -8   5  131.79   14.00
   1  -8   5  130.99   14.00
  -1  -8  -5  129.19   13.90
  -1   8  -5  133.19   13.70
   1   8   5  120.49   13.50
   1   8   5  143.49   14.80
  -1   8  -5  124.19   12.30
   2  -8   5  268.67   20.40
  -2  -8  -5  239.38   20.10
  -2  -8  -5  256.37   20.20
  -2   8  -5  267.47   18.80
   2   8   5  229.68   19.90
   2   8   5  256.37   20.30
  -2   8  -5  257.87   20.20
  -3  -8  -5   16.60    9.50
  -3  -8  -5   16.10    9.80
   3  -8   5    3.00    6.60
  -3   8  -5   15.90    9.70
   3   8   5    8.80    8.50
  -3   8  -5   31.20    9.50
   3   8   5    5.20    7.30
  -4  -8  -5   33.50   13.00
   4  -8   5   45.00   12.60
  -4  -8  -5   -3.70   10.20
   4   8   5   27.70   10.90
  -4   8  -5   29.30   11.00
   4   8   5   24.60   11.60
   5  -8   5  176.58   23.70
  -5   8  -5  157.68   22.40
   5   8   5  162.48   23.80
  -6  -8  -5  126.29   23.20
   6  -8   5  142.69   22.90
  -6   8  -5   81.79   17.50
   6   8   5  161.48   25.00
  -6   8  -5  173.88   24.20
  -7  -8  -5   36.50   20.30
  -7   8  -5    2.40   14.20
  -8  -8  -5  201.98   34.00
  -8   8  -5  140.49   25.90
 -11  -9   5   63.99   21.00
 -11  -9   5   67.19   20.50
 -11   9   5   74.49   23.50
 -11   9   5   62.59   20.30
 -10  -9   5   99.79   20.50
 -10  -9   5  133.19   23.80
 -10   9   5  101.79   22.10
 -10   9   5  100.89   19.10
  -9  -9   5  449.66   31.10
  -9  -9   5  409.46   34.10
  -9   9   5  461.55   35.30
  -9   9   5  433.26   31.30
  -8  -9   5  290.87   25.60
  -8  -9   5  296.67   23.00
  -8   9   5  210.38   23.80
  -8   9   5  254.47   23.00
  -7  -9   5  430.76   25.00
  -7  -9   5  365.36   28.20
  -7   9   5  388.76   29.20
  -7   9   5  356.46   25.70
   7   9  -5  358.66   36.20
   6  -9  -5  982.90   43.10
  -6  -9   5 1065.29   39.20
  -6  -9   5 1106.19   46.50
  -6   9   5 1071.39   43.10
   6   9  -5 1025.60   47.00
  -6   9   5 1001.00   46.40
   5  -9  -5  501.95   29.10
   5  -9  -5  557.94   28.60
  -5  -9   5  488.65   27.90
  -5  -9   5  520.55   24.10
   5   9  -5  464.55   29.20
  -5   9   5  516.55   29.70
   5   9  -5  496.35   23.70
  -5   9   5  500.95   27.00
  -4  -9   5   27.20    6.60
   4  -9  -5   36.60    8.80
  -4  -9   5   41.90    9.70
   4  -9  -5   29.00    8.80
   4   9  -5   25.30    8.50
  -4   9   5   24.20    7.30
   4   9  -5   39.10    7.40
  -4   9   5   33.60    9.90
   3  -9  -5 1174.88   40.80
   3  -9  -5 1246.78   45.10
  -3  -9   5 1234.08   39.50
  -3  -9   5 1208.68   44.00
   3   9  -5 1288.57   44.30
  -3   9   5 1192.58   43.20
  -3   9   5 1190.28   46.10
   3   9  -5 1211.38   38.40
   2  -9  -5  835.32   34.60
  -2  -9   5  899.61   35.30
   2  -9  -5  833.22   32.00
  -2  -9   5  859.11   31.60
   2   9  -5  872.21   30.70
   2   9  -5  870.91   33.40
  -2   9   5  833.52   36.00
  -2   9   5  852.81   34.60
   1  -9  -5   17.60    5.80
  -1  -9   5   19.50    6.10
   1  -9  -5   17.60    6.80
  -1  -9   5   17.80    6.20
  -1   9   5   16.80    6.50
   1   9  -5   19.90    6.20
  -1   9   5   10.10    6.00
   1   9  -5   16.60    5.50
   0  -9  -5  425.66   23.80
   0  -9   5  446.96   23.60
   0  -9  -5  441.26   23.20
   0  -9   5  425.06   22.90
   0   9   5  379.66   23.40
   0   9  -5  463.95   23.40
   0   9   5  421.96   24.70
   0   9  -5  387.46   20.80
  -1  -9  -5 1114.99   42.40
   1  -9   5 1094.29   41.20
   1  -9   5 1000.30   40.40
  -1  -9  -5 1102.49   41.90
   1   9   5 1071.69   43.00
  -1   9  -5 1055.59   40.40
   1   9   5 1030.30   42.80
  -1   9  -5 1075.59   38.60
  -2  -9  -5   18.40    8.50
  -2  -9  -5   12.40    8.80
   2  -9   5   22.00    8.20
   2   9   5   23.20    8.60
  -2   9  -5   19.20    8.50
   2   9   5   21.70    8.20
  -2   9  -5   23.20    7.70
  -3  -9  -5  610.04   34.00
  -3  -9  -5  699.33   35.80
   3  -9   5  608.04   32.50
   3   9   5  607.24   35.20
  -3   9  -5  645.74   31.80
   3   9   5  596.54   33.40
  -3   9  -5  623.24   34.10
  -4  -9  -5  766.22   42.20
  -4  -9  -5  777.42   42.00
   4  -9   5  764.12   39.30
   4   9   5  765.72   39.70
  -4   9  -5  713.83   36.50
   4   9   5  841.52   43.00
   5  -9   5   27.00   11.80
  -5   9  -5   27.60   12.90
   5   9   5   28.70   13.80
  -6  -9  -5  106.09   23.20
   6  -9   5  136.49   21.80
  -6   9  -5  165.18   25.50
  -6   9  -5  147.79   23.90
   6   9   5  148.29   24.10
  -7  -9  -5  414.56   38.90
  -7   9  -5  402.36   41.00
  -7   9  -5  470.45   38.00
  -8  -9  -5  110.09   28.70
  -8   9  -5   92.09   23.70
 -11 -10   5  407.46   38.70
 -11 -10   5  380.46   35.60
 -11  10   5  415.56   36.60
 -11  10   5  352.66   38.20
 -10 -10   5  507.05   41.10
 -10 -10   5  599.14   37.70
 -10  10   5  550.34   38.80
 -10  10   5  561.84   41.90
  -9 -10   5    7.90   12.80
  -9 -10   5    5.00   10.40
  -9  10   5   12.30   11.50
  -9  10   5    5.50   14.10
  -8 -10   5  734.13   41.80
  -8 -10   5  737.73   35.30
  -8  10   5  721.53   38.10
  -8  10   5  734.53   42.50
  -7 -10   5 1179.78   43.20
  -7 -10   5 1135.99   49.90
  -7  10   5 1106.49   46.70
   7  10  -5 1180.58   62.49
  -7  10   5 1089.99   51.09
   6 -10  -5  178.88   18.80
  -6 -10   5  130.89   17.90
  -6 -10   5  130.49   13.30
  -6  10   5  155.68   20.70
   6  10  -5  165.38   21.60
  -6  10   5  146.49   16.20
   5 -10  -5  680.73   33.90
  -5 -10   5  657.13   32.70
  -5 -10   5  610.14   26.30
   5 -10  -5  633.14   30.90
   5  10  -5  606.64   26.30
   5  10  -5  628.84   33.70
  -5  10   5  588.94   32.80
  -5  10   5  593.44   29.70
   4 -10  -5 3504.65   91.29
   4 -10  -5 3548.45   95.89
  -4 -10   5 3525.25   95.29
  -4 -10   5 3475.05   86.29
   4  10  -5 3352.56   93.79
  -4  10   5 3491.35   92.79
   4  10  -5 3582.64   86.19
  -4  10   5 3298.57   97.29
   3 -10  -5 1218.38   43.10
  -3 -10   5 1081.39   35.70
   3 -10  -5  990.10   36.70
  -3 -10   5 1093.19   40.80
  -3  10   5 1081.59   43.30
  -3  10   5 1097.39   40.00
   3  10  -5  923.91   33.30
   3  10  -5 1055.89   39.70
  -2 -10   5  798.12   33.10
   2 -10  -5  812.42   33.90
  -2 -10   5  793.82   29.70
   2 -10  -5  787.22   30.60
  -2  10   5  707.93   33.60
   2  10  -5  810.32   29.00
   2  10  -5  761.52   31.30
  -2  10   5  789.42   33.10
  -1 -10   5 2311.37   66.69
   1 -10  -5 2371.86   68.29
  -1 -10   5 2401.06   65.19
   1 -10  -5 2255.47   64.79
   1  10  -5 2216.58   63.49
   1  10  -5 2294.37   62.89
  -1  10   5 2306.37   68.29
  -1  10   5 2398.96   70.79
   0 -10   5  427.86   23.10
   0 -10  -5  447.76   24.60
   0 -10  -5  500.25   24.90
   0 -10   5  408.36   23.00
   0  10   5  455.25   26.10
   0  10  -5  452.65   22.10
   0  10   5  463.75   25.70
   0  10  -5  458.95   23.30
   1 -10   5 1087.59   40.80
   1 -10   5 1078.89   41.00
  -1 -10  -5 1051.19   40.70
  -1 -10  -5 1002.60   40.50
  -1  10  -5  969.10   39.00
  -1  10  -5  967.50   36.80
   1  10   5 1063.19   43.20
   1  10   5 1034.80   42.30
  -2 -10  -5 2344.77   72.59
  -2 -10  -5 2289.97   71.49
   2 -10   5 2235.38   70.19
   2  10   5 2322.07   73.29
   2  10   5 2250.87   73.89
  -2  10  -5 2289.47   71.49
  -2  10  -5 2370.76   68.09
   3 -10   5  477.15   27.90
  -3 -10  -5  504.75   30.70
  -3 -10  -5  512.05   31.80
   3  10   5  481.35   30.70
  -3  10  -5  496.15   30.60
   3  10   5  498.95   30.60
  -3  10  -5  501.95   27.90
   4 -10   5  211.58   21.30
  -4 -10  -5  254.87   27.10
   4  10   5  243.78   23.90
  -4  10  -5  224.68   20.50
   4  10   5  204.78   21.10
   5 -10   5 1300.47   55.29
  -5  10  -5 1265.37   54.09
   5  10   5 1333.67   59.99
  -6 -10  -5  491.85   39.60
   6 -10   5  492.55   35.50
   6  10   5  592.14   41.30
  -6  10  -5  538.55   38.60
  -6  10  -5  546.75   38.60
  -7 -10  -5   30.40   19.90
  -7  10  -5   29.40   15.40
  -7  10  -5   20.10   22.30
  -8 -10  -5  538.15   47.50
  -8  10  -5  619.54   47.00
 -11 -11   5   10.90   17.10
 -11 -11   5   15.30   16.70
 -11  11   5   15.40   16.30
 -11  11   5   17.40   21.80
 -10 -11   5   28.70   14.50
 -10 -11   5   29.20   17.00
 -10  11   5   22.40   13.70
 -10  11   5   44.60   19.30
  -9 -11   5   -7.70   10.30
  -9 -11   5   20.10   11.50
  -9  11   5    4.00   12.10
  -9  11   5   22.20   12.10
  -8 -11   5   16.80    9.20
  -8 -11   5    7.90   10.70
  -8  11   5   27.30   13.50
  -8  11   5    6.10    9.60
  -7 -11   5   12.30    7.40
  -7 -11   5    5.90    8.30
   7  11  -5   15.50   15.10
  -7  11   5   14.40    8.10
  -7  11   5   15.60    9.80
  -6 -11   5   27.10    7.60
   6 -11  -5   17.30   10.60
  -6 -11   5   33.10   10.20
   6  11  -5   12.90   10.50
  -6  11   5   37.50    9.80
  -6  11   5   24.00   10.50
  -5 -11   5    9.60    5.50
   5 -11  -5    5.60    6.30
   5 -11  -5    7.30    8.20
  -5 -11   5   19.40    8.30
  -5  11   5   12.40    6.50
  -5  11   5   18.50    8.40
   5  11  -5   12.90    8.80
   5  11  -5   24.50    6.70
  -4 -11   5  314.07   21.90
   4 -11  -5  310.07   21.90
  -4 -11   5  272.67   16.10
   4 -11  -5  296.07   19.00
  -4  11   5  325.57   23.30
   4  11  -5  287.97   20.80
   4  11  -5  271.97   16.00
  -4  11   5  338.37   20.90
  -3 -11   5  239.48   18.10
  -3 -11   5  244.28   15.00
   3 -11  -5  276.67   17.50
   3 -11  -5  250.07   19.80
   3  11  -5  275.47   19.20
  -3  11   5  269.67   18.30
   3  11  -5  262.77   15.10
  -3  11   5  293.37   21.30
  -2 -11   5   10.10    4.60
  -2 -11   5    7.90    4.70
   2 -11  -5    5.60    4.30
   2 -11  -5    9.50    6.80
  -2  11   5   11.40    6.40
  -2  11   5   14.30    5.50
   2  11  -5   10.80    5.50
   2  11  -5   13.40    5.30
  -1 -11   5   15.00    6.40
  -1 -11   5    6.10    4.50
   1 -11  -5    7.50    5.80
   1 -11  -5    5.10    5.40
  -1  11   5   17.10    6.50
   1  11  -5    8.40    5.40
  -1  11   5   14.60    6.10
   1  11  -5    6.30    4.60
   0 -11   5  159.38   14.20
   0 -11  -5  167.88   15.80
   0 -11   5  155.78   14.10
   0 -11  -5  170.58   14.40
   0  11   5  174.28   16.00
   0  11   5  175.58   15.80
   0  11  -5  171.98   13.60
   0  11  -5  167.18   14.20
   1 -11   5   62.89   11.30
  -1 -11  -5   56.69   12.10
  -1 -11  -5   65.39   12.00
   1 -11   5   60.99   10.90
   1  11   5   74.79   12.70
  -1  11  -5   71.29   10.80
   1  11   5   62.39   12.90
  -1  11  -5   64.99   12.20
  -2 -11  -5   65.99   12.70
  -2 -11  -5   84.29   14.90
   2 -11   5   89.69   13.50
  -2  11  -5   80.59   12.40
   2  11   5   74.99   13.30
  -2  11  -5   86.69   14.30
   2  11   5   69.19   13.40
  -3 -11  -5   21.30   10.90
   3 -11   5   51.09   11.50
  -3 -11  -5   17.80   10.10
  -3  11  -5   12.10   10.10
   3  11   5    5.80    7.50
   3  11   5   23.70    8.90
  -3  11  -5   30.70    9.80
   4 -11   5   15.80    9.60
  -4 -11  -5   18.10   13.00
   4  11   5   30.10   12.10
   4  11   5   11.30    9.60
  -4  11  -5   13.90   10.10
   5 -11   5   37.80   13.10
   5  11   5   24.80   12.60
  -5  11  -5   52.49   15.20
   6 -11   5    7.00   12.60
  -6 -11  -5   21.50   14.90
  -6  11  -5   32.30   14.90
   6  11   5    7.70   13.30
  -6  11  -5    9.10   15.20
  -7 -11  -5   10.10   15.60
  -7  11  -5   16.50   20.70
  -7  11  -5   12.60   14.30
  -8 -11  -5  -21.50   20.50
  -8  11  -5   38.20   19.00
 -11 -12   5  323.97   32.70
 -11 -12   5  357.86   39.30
 -11  12   5  350.36   41.40
 -11  12   5  350.06   34.00
 -10 -12   5  379.96   30.70
 -10 -12   5  398.76   37.00
 -10  12   5  317.27   34.40
 -10  12   5  373.76   31.90
  -9 -12   5   -0.40   11.00
  -9 -12   5   -0.30   10.50
  -9  12   5    8.60   10.60
  -9  12   5  -21.00   11.50
  -8 -12   5  703.53   33.90
  -8 -12   5  707.93   40.70
  -8  12   5  727.23   43.10
  -8  12   5  722.03   38.00
  -7 -12   5  751.62   32.20
  -7 -12   5  674.23   38.00
  -7  12   5  727.33   41.30
  -7  12   5  686.33   35.00
   7  12  -5  749.82   44.20
  -6 -12   5  100.89   16.20
  -6 -12   5   92.29   12.30
   6 -12  -5   95.19   16.40
  -6  12   5   73.59   14.90
  -6  12   5   50.29   11.10
   6  12  -5   71.29   16.90
  -5 -12   5  218.48   18.90
  -5 -12   5  265.87   16.00
   5 -12  -5  270.87   22.20
   5 -12  -5  229.58   18.20
  -5  12   5  252.57   18.80
   5  12  -5  255.97   21.70
  -5  12   5  246.28   21.30
  -4 -12   5 1736.13   58.39
   4 -12  -5 1844.72   55.99
  -4 -12   5 1789.12   50.39
   4 -12  -5 1782.92   60.29
   4  12  -5 1724.73   58.39
  -4  12   5 1804.42   63.09
   4  12  -5 1807.72   50.19
  -4  12   5 1764.62   56.69
   3 -12  -5   25.10    7.10
   3 -12  -5   20.70    7.80
  -3 -12   5   37.90    8.30
  -3 -12   5   22.90    6.00
  -3  12   5   25.50    7.10
   3  12  -5   18.60    6.90
   3  12  -5   18.90    6.00
  -3  12   5   24.50    8.40
   2 -12  -5  541.55   24.90
  -2 -12   5  608.54   24.60
  -2 -12   5  555.94   27.20
   2 -12  -5  595.54   28.80
   2  12  -5  624.44   27.40
  -2  12   5  585.44   28.00
   2  12  -5  555.64   23.10
  -2  12   5  599.04   31.00
   1 -12  -5 1838.92   57.99
  -1 -12   5 1693.03   52.39
  -1 -12   5 1898.71   56.29
   1 -12  -5 1669.13   52.89
  -1  12   5 1751.02   59.19
  -1  12   5 1777.92   57.19
   1  12  -5 1858.81   53.79
   1  12  -5 1829.42   52.09
   0 -12   5  667.33   29.70
   0 -12   5  701.93   29.90
   0 -12  -5  722.43   31.00
   0 -12  -5  659.43   31.40
   0  12  -5  664.73   27.80
   0  12   5  705.23   32.80
   0  12   5  671.83   32.40
   0  12  -5  670.03   28.90
  -1 -12  -5  532.45   28.30
  -1 -12  -5  594.74   29.70
   1 -12   5  546.75   27.50
  -1  12  -5  553.24   27.80
  -1  12  -5  598.74   26.50
   1  12   5  559.54   30.10
   1  12   5  522.65   29.10
  -2 -12  -5 1612.34   56.89
  -2 -12  -5 1657.43   56.99
   2 -12   5 1639.74   55.29
   2  12   5 1569.74   58.69
  -2  12  -5 1488.85   50.79
   2  12   5 1670.73   58.29
  -2  12  -5 1575.34   56.09
  -3 -12  -5 1051.19   46.60
   3 -12   5 1032.20   43.60
  -3 -12  -5 1083.49   45.80
  -3  12  -5 1069.39   46.50
  -3  12  -5 1030.30   41.30
   3  12   5 1081.59   48.20
   3  12   5 1041.70   45.70
   4 -12   5  207.08   20.40
   4  12   5  177.18   23.30
  -4  12  -5  170.98   20.60
   4  12   5  175.38   24.10
   5 -12   5 1222.68   52.49
  -5  12  -5 1164.98   50.29
   5  12   5 1150.78   55.69
   6 -12   5  315.07   27.40
  -6 -12  -5  284.27   33.60
  -6  12  -5  238.18   28.80
   6  12   5  275.67   29.20
  -6  12  -5  325.07   30.60
  -7 -12  -5    7.50   17.60
  -7  12  -5   17.10   20.90
  -7  12  -5   14.30   14.30
  -8 -12  -5  265.57   36.80
  -8  12  -5  201.28   29.90
 -10 -13   5   36.90   14.90
 -10 -13   5   30.20   15.70
 -10  13   5   28.10   14.10
 -10  13   5   -0.80   16.10
  -9 -13   5  458.85   28.60
  -9 -13   5  379.46   32.30
  -9  13   5  373.96   35.30
  -9  13   5  453.15   31.40
  -8 -13   5  431.96   32.10
  -8 -13   5  478.95   27.10
  -8  13   5  466.35   34.60
  -8  13   5  426.26   29.30
  -7 -13   5  309.27   26.60
  -7 -13   5  296.77   20.00
  -7  13   5  285.07   26.40
  -7  13   5  305.77   23.50
   7  13  -5  331.07   30.90
  -6 -13   5 1135.89   48.10
   6 -13  -5 1018.10   50.39
  -6 -13   5 1083.99   38.00
  -6  13   5 1216.18   45.60
  -6  13   5 1159.38   50.99
   6  13  -5 1144.29   50.79
   5 -13  -5 1131.19   42.30
  -5 -13   5 1121.89   45.00
  -5 -13   5 1097.69   35.90
   5 -13  -5 1014.00   44.70
  -5  13   5 1076.59   41.80
   5  13  -5  992.10   44.20
  -5  13   5 1040.80   46.50
   4 -13  -5  324.07   20.50
  -4 -13   5  307.67   21.80
  -4 -13   5  342.27   17.20
   4 -13  -5  353.56   24.20
  -4  13   5  355.26   25.40
   4  13  -5  354.86   17.70
  -4  13   5  384.66   22.50
   4  13  -5  352.06   23.20
  -3 -13   5 1762.02   49.80
   3 -13  -5 1780.72   53.59
  -3 -13   5 1831.92   57.59
   3 -13  -5 1832.32   59.49
  -3  13   5 1765.22   55.99
   3  13  -5 1795.02   49.00
  -3  13   5 1721.73   60.89
   3  13  -5 1816.42   57.09
  -2 -13   5 1492.25   50.09
   2 -13  -5 1599.04   53.49
  -2 -13   5 1579.84   46.50
   2 -13  -5 1546.75   48.20
   2  13  -5 1638.54   45.50
  -2  13   5 1553.34   51.29
  -2  13   5 1465.75   54.29
   2  13  -5 1649.23   50.79
  -1 -13   5   14.10    6.00
   1 -13  -5   20.90    7.40
   1 -13  -5   18.80    6.40
  -1 -13   5   12.50    5.40
   1  13  -5    9.90    5.10
   1  13  -5   16.10    6.20
  -1  13   5   14.40    6.50
  -1  13   5    9.40    6.30
   0 -13   5 1456.45   48.00
   0 -13  -5 1477.75   49.00
   0 -13  -5 1491.05   50.89
   0 -13   5 1460.85   48.00
   0  13   5 1453.65   51.19
   0  13  -5 1419.56   45.20
   0  13  -5 1429.56   46.70
   0  13   5 1400.56   51.69
  -1 -13  -5 1006.90   40.90
  -1 -13  -5 1063.59   42.00
   1 -13   5 1063.29   40.50
   1  13   5 1078.89   44.00
   1  13   5 1087.39   44.30
  -1  13  -5 1096.39   38.20
  -1  13  -5 1060.59   40.90
  -2 -13  -5   18.80   10.00
   2 -13   5    7.90    6.90
  -2 -13  -5   12.90    8.30
   2  13   5    6.30    7.60
   2  13   5   10.80    7.90
  -2  13  -5   26.50    7.70
  -2  13  -5   12.70    8.00
   3 -13   5  116.69   16.10
  -3 -13  -5  109.89   16.80
  -3 -13  -5   74.09   15.30
   3  13   5  134.29   19.10
  -3  13  -5  106.49   17.40
  -3  13  -5   98.79   14.00
   3  13   5  108.19   17.40
   4 -13   5 2197.78   72.19
   4  13   5 2143.99   75.09
   4  13   5 2113.09   76.99
  -4  13  -5 2153.98   69.39
   5 -13   5   55.59   13.80
  -5  13  -5   55.89   15.10
   5  13   5   72.59   17.30
  -6 -13  -5  412.76   37.10
   6 -13   5  357.36   30.50
  -6  13  -5  431.56   33.80
  -6  13  -5  332.07   32.20
  -7 -13  -5  617.64   45.80
  -7  13  -5  576.04   44.40
  -7  13  -5  534.65   40.40
  -8 -13  -5   65.69   26.20
  -8  13  -5   78.69   21.90
 -10 -14   5   16.30   15.40
 -10 -14   5   -0.10   12.80
 -10  14   5   15.30   17.80
 -10  14   5   24.30   13.30
  -9 -14   5   41.10   12.50
  -9 -14   5   35.10   15.00
  -9  14   5   43.70   16.40
  -9  14   5   23.50   12.70
  -8 -14   5   95.49   14.70
  -8 -14   5   69.69   16.00
  -8  14   5   70.79   14.30
  -8  14   5   62.49   16.70
  -7 -14   5    3.60    6.80
  -7 -14   5   17.00   10.70
   7  14  -5   10.70   15.80
  -7  14   5   -0.50    8.70
  -7  14   5   12.10    8.70
  -6 -14   5   41.70    8.50
  -6 -14   5   33.40   11.80
   6  14  -5   33.60   13.00
  -6  14   5   55.39   14.10
  -6  14   5   47.40   10.70
  -5 -14   5   81.29   10.00
  -5 -14   5   89.59   14.60
   5 -14  -5   94.79   13.70
   5 -14  -5  117.79   17.80
  -5  14   5  102.89   14.10
  -5  14   5   76.39   15.20
   5  14  -5  105.39   16.90
   4 -14  -5   49.99   11.60
  -4 -14   5   61.39   12.00
  -4 -14   5   52.29    7.70
   4 -14  -5   70.59   11.70
   4  14  -5   32.20    7.20
  -4  14   5   50.79    9.50
  -4  14   5   51.89   12.30
   4  14  -5   51.69   11.50
  -3 -14   5   28.80    7.90
   3 -14  -5    4.50    5.90
   3 -14  -5   20.60    8.50
  -3 -14   5   17.80    5.30
   3  14  -5   20.60    5.50
  -3  14   5   30.10    8.10
  -3  14   5   25.50    8.60
   3  14  -5   24.10    8.30
  -2 -14   5  251.87   17.50
   2 -14  -5  209.08   18.80
   2 -14  -5  221.68   15.20
  -2 -14   5  197.38   13.50
  -2  14   5  226.48   18.80
   2  14  -5  201.78   13.20
   2  14  -5  202.98   15.90
  -2  14   5  200.08   16.30
  -1 -14   5   35.60    7.70
   1 -14  -5   24.50    8.80
  -1 -14   5   14.60    5.90
   1 -14  -5   18.60    7.30
  -1  14   5   31.90    8.80
  -1  14   5   29.80    8.40
   1  14  -5   16.50    6.00
   1  14  -5   25.90    6.50
   0 -14  -5   68.89   11.10
   0 -14   5   63.69   10.60
   0 -14  -5   67.09   12.00
   0 -14   5   67.09   10.70
   0  14   5   48.80   10.70
   0  14  -5   68.19   11.10
   0  14  -5   68.09   10.40
   0  14   5   65.99   12.60
  -1 -14  -5   54.29   11.60
  -1 -14  -5   77.89   12.70
   1 -14   5   87.09   12.60
   1  14   5   55.49   11.80
  -1  14  -5   83.69   11.40
  -1  14  -5   72.59   11.90
   1  14   5   50.99   11.20
   2 -14   5  147.39   15.30
  -2 -14  -5  154.48   16.90
  -2 -14  -5  152.68   18.80
  -2  14  -5  156.28   16.70
   2  14   5  147.89   16.20
  -2  14  -5  152.58   14.30
   2  14   5  137.59   16.60
   3 -14   5   69.59   13.60
  -3 -14  -5   38.80   15.00
  -3 -14  -5   45.40   12.80
   3  14   5   52.79   13.00
   3  14   5   51.09   13.70
  -3  14  -5   63.59   15.30
  -3  14  -5   62.79   11.90
   4 -14   5   36.90   11.50
  -4  14  -5   45.00   12.50
   4  14   5   42.20   13.60
   4  14   5   16.00   10.30
   5 -14   5    2.90   10.10
  -5  14  -5   -2.00   11.20
   5  14   5   -2.20   10.60
   6 -14   5    5.70   12.60
  -6 -14  -5    1.30   15.30
  -6  14  -5   17.50   13.10
  -6  14  -5    2.70   14.50
  -7 -14  -5   15.40   17.90
  -7  14  -5    4.30   15.10
  -7  14  -5   27.10   21.90
  -8 -14  -5   12.70   20.00
  -8  14  -5   39.20   19.10
 -10 -15   5  138.79   24.90
 -10 -15   5  151.98   20.90
 -10  15   5  151.68   26.80
 -10  15   5  150.88   22.80
  -9 -15   5  619.74   40.90
  -9 -15   5  666.33   34.00
  -9  15   5  680.93   46.20
  -9  15   5  634.64   37.60
  -8 -15   5  254.47   19.60
  -8 -15   5  226.98   24.50
  -8  15   5  253.77   23.30
  -8  15   5  229.88   25.70
  -7 -15   5   60.39   15.60
  -7 -15   5   67.99   11.20
  -7  15   5   95.69   19.30
  -7  15   5   77.69   13.90
   7  15  -5   77.09   19.50
  -6 -15   5  997.10   34.80
  -6 -15   5 1074.29   46.60
  -6  15   5 1052.79   42.00
   6  15  -5 1032.80   49.20
  -6  15   5  981.40   47.80
   5 -15  -5 1270.37   50.79
  -5 -15   5 1251.37   37.80
  -5 -15   5 1211.98   48.40
   5 -15  -5 1248.68   45.40
   5  15  -5 1141.69   49.00
  -5  15   5 1212.88   52.09
  -5  15   5 1233.48   45.20
   4 -15  -5    6.40    6.70
  -4 -15   5   -7.00    5.70
  -4 -15   5    2.30    4.00
   4 -15  -5    1.40    7.90
   4  15  -5    3.60    6.30
  -4  15   5    2.70    6.00
   4  15  -5   10.50    4.70
  -4  15   5   -0.40    6.30
   3 -15  -5 3097.59   88.39
  -3 -15   5 3164.48   76.39
  -3 -15   5 3124.69   85.69
   3 -15  -5 3044.50   81.09
  -3  15   5 3130.99   84.79
  -3  15   5 2906.81   89.99
   3  15  -5 3197.68   85.59
   3  15  -5 3182.48   75.19
   2 -15  -5 1326.77   43.80
  -2 -15   5 1353.66   46.30
   2 -15  -5 1400.86   50.29
  -2 -15   5 1398.96   41.80
  -2  15   5 1339.97   51.39
   2  15  -5 1341.97   40.00
   2  15  -5 1380.76   45.90
  -2  15   5 1392.56   47.50
  -1 -15   5   52.09    9.10
  -1 -15   5   66.59    9.90
   1 -15  -5   55.69    9.80
   1 -15  -5   46.70   10.00
   1  15  -5   57.99    9.60
   1  15  -5   53.99    8.60
  -1  15   5   32.00    8.90
  -1  15   5   52.29   10.50
   0 -15  -5 1898.31   58.39
   0 -15  -5 1889.71   60.39
   0 -15   5 1903.11   57.59
   0  15   5 1907.91   62.89
   0  15  -5 1809.92   54.09
   0  15  -5 1890.11   56.49
   0  15   5 1842.72   60.99
  -1 -15  -5 2004.30   64.89
  -1 -15  -5 2043.40   64.39
   1 -15   5 2092.39   62.69
  -1  15  -5 2049.79   58.89
   1  15   5 2061.89   67.19
  -1  15  -5 1965.10   62.39
   1  15   5 2098.69   67.99
  -2 -15  -5   22.20    9.70
  -2 -15  -5   24.10   10.00
   2 -15   5   31.40    8.80
   2  15   5   20.40    8.40
   2  15   5   35.90   10.00
  -2  15  -5   23.60   10.60
  -2  15  -5   20.30    7.40
   3 -15   5 3143.19   89.39
  -3 -15  -5 3148.68   92.69
  -3  15  -5 3171.48   94.29
  -3  15  -5 3067.49   85.79
   3  15   5 3160.48   94.09
   3  15   5 2977.10   94.99
   4 -15   5 1153.68   47.20
   4  15   5 1099.69   49.90
  -4  15  -5 1070.79   44.50
   4  15   5 1074.69   51.69
   5 -15   5   29.80   12.30
  -5  15  -5   22.60   12.90
   5  15   5   10.30   13.50
   6 -15   5  312.37   29.30
  -6 -15  -5  405.66   36.40
  -6  15  -5  334.17   32.30
  -6  15  -5  426.86   33.20
  -7 -15  -5  533.35   46.30
  -7  15  -5  495.75   42.30
  -7  15  -5  485.15   38.50
  -8 -15  -5   17.10   23.60
  -8  15  -5   69.99   20.70
 -10 -16   5  279.77   33.60
 -10 -16   5  262.17   25.20
 -10  16   5  256.87   36.10
 -10  16   5  290.17   29.00
  -9 -16   5   15.50   12.80
  -9 -16   5   -8.00   10.10
  -9  16   5   -1.20   12.50
  -9  16   5    9.70   10.70
  -8 -16   5  210.38   23.80
  -8 -16   5  201.78   18.00
  -8  16   5  211.18   21.50
  -8  16   5  210.88   28.20
  -7 -16   5  481.25   24.10
  -7 -16   5  514.45   33.20
  -7  16   5  499.05   29.20
  -7  16   5  496.05   34.80
   7  16  -5  475.95   39.30
  -6 -16   5   11.30    9.00
  -6 -16   5    7.90    5.60
   6  16  -5    5.60   11.80
  -6  16   5   10.80    8.00
  -6  16   5    6.00    8.90
   5 -16  -5  303.97   24.50
  -5 -16   5  283.77   22.30
   5 -16  -5  279.07   20.70
  -5 -16   5  283.97   15.50
  -5  16   5  320.67   25.60
   5  16  -5  274.07   24.10
  -5  16   5  292.47   20.20
   4 -16  -5  869.61   35.70
  -4 -16   5  985.50   30.80
   4 -16  -5 1100.09   45.20
  -4 -16   5  946.01   40.10
  -4  16   5  980.60   38.10
   4  16  -5  996.90   30.60
   4  16  -5  936.11   40.60
  -4  16   5  925.81   44.00
   3 -16  -5  467.35   27.70
  -3 -16   5  419.46   24.20
   3 -16  -5  463.95   23.10
  -3 -16   5  464.65   19.40
  -3  16   5  405.16   23.30
   3  16  -5  418.76   23.80
  -3  16   5  464.65   28.50
   3  16  -5  448.26   18.80
   2 -16  -5 1140.49   44.40
   2 -16  -5 1134.89   38.70
  -2 -16   5 1073.49   35.30
  -2 -16   5 1114.79   40.70
   2  16  -5 1103.89   40.20
  -2  16   5 1142.09   46.70
  -2  16   5 1132.39   41.60
   2  16  -5 1094.29   34.30
   1 -16  -5  715.53   30.30
  -1 -16   5  721.23   30.80
  -1 -16   5  790.12   29.80
   1 -16  -5  789.22   34.80
   1  16  -5  716.63   29.80
   1  16  -5  742.43   28.40
  -1  16   5  765.92   35.90
  -1  16   5  689.93   32.50
   0 -16  -5  469.15   26.20
   0 -16   5  439.96   23.70
   0 -16  -5  482.25   25.00
   0  16   5  465.55   27.70
   0  16   5  443.36   25.90
   0  16  -5  446.56   23.40
   0  16  -5  433.66   21.60
  -1 -16  -5   12.00    7.60
   1 -16   5    3.40    6.00
  -1 -16  -5   10.90    7.80
   1  16   5   17.30    8.10
  -1  16  -5    3.90    5.00
   1  16   5    4.30    6.70
  -1  16  -5   -7.70    7.20
  -2 -16  -5 1435.86   54.89
  -2 -16  -5 1509.25   54.69
   2 -16   5 1585.74   53.29
  -2  16  -5 1609.14   56.39
   2  16   5 1484.05   55.99
  -2  16  -5 1546.15   49.50
   2  16   5 1525.95   57.69
  -3 -16  -5  216.48   22.20
   3 -16   5  220.48   19.90
   3  16   5  217.68   23.50
  -3  16  -5  213.28   22.30
  -3  16  -5  216.48   19.10
   3  16   5  243.38   23.00
   4 -16   5   58.79   13.10
   4  16   5   75.39   15.70
  -4  16  -5   62.49   13.30
   4  16   5   74.39   16.50
   5 -16   5   96.39   17.50
   5  16   5  167.58   25.20
  -5  16  -5  167.08   22.00
  -6 -16  -5  223.18   32.30
  -6  16  -5  227.98   25.40
  -6  16  -5  222.08   27.60
  -7 -16  -5   -6.50   15.80
  -7  16  -5    0.50   14.30
  -7  16  -5   -1.40   20.20
  -8 -16  -5  297.27   39.80
  -8  16  -5  254.97   33.20
 -10 -17   5   59.69   21.00
 -10 -17   5   34.20   14.70
 -10  17   5   33.50   19.80
 -10  17   5   33.80   15.50
  -9 -17   5  131.89   16.90
  -9 -17   5  147.79   23.80
  -9  17   5  146.29   20.10
  -9  17   5  150.18   26.60
  -8 -17   5  286.97   27.70
  -8 -17   5  258.87   19.30
  -8  17   5  243.78   27.80
  -8  17   5  284.27   24.20
  -7 -17   5   74.09   15.90
  -7 -17   5   68.69   10.70
  -7  17   5   69.09   12.80
   7  17  -5   52.69   18.90
  -7  17   5   24.00   12.60
  -6 -17   5  107.39   17.60
  -6 -17   5   90.39   10.20
  -6  17   5  111.89   15.60
  -6  17   5   77.09   16.30
   6  17  -5   60.59   15.30
   5 -17  -5   77.79   12.60
  -5 -17   5   42.80   10.40
  -5 -17   5   54.79    8.00
  -5  17   5   46.70   12.90
   5  17  -5   67.09   14.70
  -5  17   5   52.69   10.80
  -4 -17   5   48.30    7.00
   4 -17  -5   29.10    8.90
  -4 -17   5   41.00   10.20
   4 -17  -5   40.00   11.20
  -4  17   5   37.20    8.90
   4  17  -5   47.50    7.00
   4  17  -5   43.70   10.40
  -4  17   5   31.20   10.60
   3 -17  -5   32.40    9.70
  -3 -17   5   10.10    4.70
  -3 -17   5   31.30    8.20
   3 -17  -5   15.70    6.80
   3  17  -5   35.00    5.80
  -3  17   5   16.90    8.10
  -3  17   5   18.80    6.60
   3  17  -5   16.60    7.30
   2 -17  -5  150.68   13.40
   2 -17  -5  126.99   16.60
  -2 -17   5  133.39   13.60
  -2 -17   5  146.19   11.20
   2  17  -5  145.39   10.80
  -2  17   5  128.49   13.60
  -2  17   5  152.58   16.60
   2  17  -5  150.78   14.20
  -1 -17   5  136.09   13.50
   1 -17  -5  114.09   12.70
   1 -17  -5  167.68   16.20
   1  17  -5  134.39   13.20
  -1  17   5  124.79   14.20
   1  17  -5  152.58   12.50
  -1  17   5  117.59   16.40
   0 -17   5  551.04   26.20
   0 -17  -5  485.25   27.50
   0 -17  -5  527.05   26.70
   0  17  -5  520.45   24.10
   0  17   5  520.75   29.30
   0  17  -5  555.14   25.80
   0  17   5  500.55   27.90
  -1 -17  -5   88.59   14.10
   1 -17   5  105.89   14.30
  -1 -17  -5   79.19   13.20
   1  17   5   81.89   13.40
   1  17   5   86.29   14.20
  -1  17  -5  111.79   15.00
  -1  17  -5   94.79   11.10
   2 -17   5   20.30    7.60
  -2 -17  -5   25.40   10.60
  -2 -17  -5   22.60   10.30
   2  17   5   17.50    8.20
  -2  17  -5   15.80   10.70
  -2  17  -5   24.50    8.20
   2  17   5    3.00    7.50
  -3 -17  -5   69.89   14.70
   3 -17   5   45.80   11.40
  -3  17  -5   65.89   12.20
  -3  17  -5   47.40   14.00
   3  17   5   71.49   14.60
   3  17   5   63.79   15.00
   4 -17   5  411.46   27.20
   4  17   5  399.06   28.70
  -4  17  -5  409.86   26.40
   4  17   5  429.56   31.90
   5 -17   5   14.60   11.00
   5  17   5   23.60   12.30
  -5  17  -5   16.80   12.00
  -6 -17  -5   33.80   18.30
  -6  17  -5   35.80   17.40
  -6  17  -5   62.49   16.40
  -7 -17  -5  147.39   28.40
  -7  17  -5  153.88   25.40
  -7  17  -5  154.48   28.00
 -10 -18   5  255.27   33.30
 -10 -18   5  298.97   25.70
 -10  18   5  280.67   36.20
 -10  18   5  287.67   28.40
  -9 -18   5    0.40    9.90
  -9 -18   5   13.20   14.90
  -9  18   5   12.70   13.60
  -9  18   5    4.90   11.00
  -8 -18   5  561.54   38.40
  -8 -18   5  509.35   26.20
  -8  18   5  608.74   41.80
  -8  18   5  630.34   33.90
  -7 -18   5 1329.17   56.69
  -7 -18   5 1453.35   43.20
   7  18  -5 1340.77   63.59
  -7  18   5 1357.86   50.99
  -7  18   5 1287.37   59.79
  -6 -18   5  112.69   16.80
  -6 -18   5  108.49   10.50
   6  18  -5  114.79   19.20
  -6  18   5   83.89   13.20
  -6  18   5  120.69   20.50
   5 -18  -5  972.80   39.30
  -5 -18   5 1034.00   43.40
  -5 -18   5 1010.70   30.50
   5  18  -5 1035.20   45.80
  -5  18   5  953.70   39.10
  -5  18   5  943.01   46.60
  -4 -18   5 2567.54   75.39
   4 -18  -5 2420.76   69.09
   4 -18  -5 2513.35   78.29
  -4 -18   5 2444.26   59.89
   4  18  -5 2442.96   75.19
  -4  18   5 2377.36   81.09
  -4  18   5 2427.86   70.79
   4  18  -5 2445.46   59.09
  -3 -18   5  135.39   10.10
  -3 -18   5  121.79   14.00
   3 -18  -5  132.99   17.20
   3 -18  -5  127.89   13.20
  -3  18   5  119.09   17.50
  -3  18   5  141.09   14.20
   3  18  -5  106.89    9.10
   3  18  -5  120.39   15.20
  -2 -18   5  519.95   25.90
   2 -18  -5  522.75   28.80
  -2 -18   5  542.15   22.10
   2 -18  -5  517.95   24.70
  -2  18   5  515.15   26.40
   2  18  -5  520.25   20.90
  -2  18   5  500.05   30.10
   2  18  -5  528.15   25.80
   1 -18  -5 1542.65   49.80
   1 -18  -5 1605.34   54.99
  -1 -18   5 1605.74   50.99
  -1  18   5 1542.35   56.99
   1  18  -5 1545.55   49.00
   1  18  -5 1640.14   47.50
  -1  18   5 1614.34   53.99
   0 -18  -5  547.55   29.10
   0 -18  -5  543.05   27.50
   0 -18   5  517.95   25.70
   0  18   5  557.24   30.70
   0  18   5  561.64   29.80
   0  18  -5  551.64   25.90
   0  18  -5  555.84   24.60
   1 -18   5  424.16   23.80
  -1 -18  -5  471.05   27.00
  -1 -18  -5  441.86   26.40
  -1  18  -5  397.16   21.20
  -1  18  -5  418.86   25.30
   1  18   5  444.56   28.00
   1  18   5  430.66   26.90
  -2 -18  -5 2271.47   72.09
  -2 -18  -5 2176.78   73.29
   2 -18   5 2239.58   67.59
  -2  18  -5 2187.08   70.99
   2  18   5 2256.47   74.59
   2  18   5 2211.08   72.89
  -2  18  -5 2240.98   63.69
   3 -18   5  987.30   41.50
  -3 -18  -5  928.01   42.70
   3  18   5  936.01   45.60
  -3  18  -5  988.80   45.70
  -3  18  -5  974.10   38.20
   3  18   5  951.40   44.10
   4 -18   5  228.58   21.90
   4  18   5  219.08   24.70
   4  18   5  194.28   21.20
  -4  18  -5  183.18   18.60
   5 -18   5 1347.97   54.79
  -5  18  -5 1262.67   52.19
   5  18   5 1367.86   61.69
  -6 -18  -5  495.35   42.40
  -6  18  -5  531.55   36.20
  -6  18  -5  537.05   36.30
  -7 -18  -5  -14.40   16.90
  -7  18  -5    6.30   20.30
  -7  18  -5   -2.90   14.60
 -10 -19   5   18.70   17.20
 -10 -19   5   33.90   14.70
 -10  19   5   28.80   20.80
 -10  19   5   35.30   15.60
  -9 -19   5  153.28   25.70
  -9 -19   5  162.08   18.80
  -9  19   5  190.68   23.70
  -9  19   5  201.58   29.80
  -8 -19   5    3.90    8.20
  -8 -19   5   20.20   12.40
  -8  19   5    6.30   12.10
  -8  19   5   16.90   10.40
  -7 -19   5   84.49   10.40
  -7 -19   5   58.79   16.40
  -7  19   5   56.99   12.20
   7  19  -5   32.20   19.30
  -7  19   5   76.49   17.40
  -6 -19   5  123.89   17.90
  -6 -19   5  143.59   10.90
  -6  19   5  127.19   15.10
   6  19  -5  131.99   21.30
  -6  19   5  142.89   21.80
  -5 -19   5  388.96   15.90
  -5 -19   5  393.76   26.10
   5 -19  -5  359.06   22.90
  -5  19   5  366.26   28.60
   5  19  -5  383.46   27.50
  -5  19   5  345.67   22.20
   4 -19  -5    3.60    6.90
  -4 -19   5   16.40    4.20
   4 -19  -5   32.50   11.90
  -4 -19   5    2.80    5.90
  -4  19   5   13.70    8.60
   4  19  -5    3.00    7.20
  -4  19   5   18.20    6.80
   4  19  -5   10.00    4.10
  -3 -19   5  580.64   28.40
   3 -19  -5  547.05   25.10
  -3 -19   5  504.25   19.60
   3 -19  -5  577.74   31.10
  -3  19   5  540.95   27.10
   3  19  -5  515.95   19.40
  -3  19   5  485.95   30.70
   3  19  -5  533.65   27.40
   2 -19  -5  605.54   31.40
   2 -19  -5  561.04   25.60
  -2 -19   5  568.84   27.40
  -2  19   5  558.14   27.80
   2  19  -5  531.15   21.10
   2  19  -5  582.34   27.30
  -2  19   5  588.14   32.90
  -1 -19   5   68.19   10.70
   1 -19  -5   67.49   10.80
   1 -19  -5   48.10   12.10
   1  19  -5   56.49    9.20
  -1  19   5   55.09   11.00
  -1  19   5   52.09   11.70
   1  19  -5   65.59   10.00
   0 -19  -5  272.97   19.80
   0 -19   5  281.37   18.60
   0 -19  -5  263.37   20.90
   0  19  -5  281.97   17.20
   0  19   5  310.67   22.10
   0  19   5  283.07   22.30
   0  19  -5  286.27   19.00
  -1 -19  -5  558.34   31.30
   1 -19   5  613.34   29.00
  -1 -19  -5  572.14   30.60
  -1  19  -5  623.64   30.80
   1  19   5  615.44   32.90
  -1  19  -5  609.94   26.30
   1  19   5  637.34   33.30
  -2 -19  -5   12.80   11.00
   2 -19   5   17.40    8.60
  -2  19  -5   28.80   10.80
   2  19   5   19.20    9.70
  -2  19  -5   22.80    7.40
   2  19   5   -6.90    7.70
   3 -19   5   63.79   12.50
  -3 -19  -5   65.49   14.60
  -3  19  -5   69.99   11.90
   3  19   5   72.79   15.20
  -3  19  -5   69.29   17.80
   3  19   5   68.19   14.30
   4 -19   5  226.48   22.00
   4  19   5  251.27   24.80
   4  19   5  261.97   25.70
  -4  19  -5  270.77   22.10
  -5 -19  -5  -16.00   12.40
   5 -19   5  -17.00   10.10
   5  19   5    5.70   12.10
  -5  19  -5    9.90   11.90
  -6 -19  -5   31.60   19.20
  -6  19  -5   32.20   12.90
  -6  19  -5   44.50   17.10
  -7 -19  -5   94.59   27.20
  -7  19  -5   54.99   23.60
  -7  19  -5   51.39   17.90
 -10 -20   5   87.69   17.00
 -10 -20   5   78.69   23.50
 -10  20   5   75.99   17.90
 -10  20   5   86.09   22.90
  -9 -20   5    4.80    9.90
  -9 -20   5    5.10   14.40
  -9  20   5   -3.40   10.10
  -9  20   5   28.90   18.50
  -8 -20   5  312.57   19.50
  -8 -20   5  348.57   29.70
  -8  20   5  309.47   33.10
  -8  20   5  307.47   25.10
  -7 -20   5  559.04   22.80
  -7 -20   5  528.55   34.90
  -7  20   5  564.74   30.60
  -7  20   5  616.94   40.70
   7  20  -5  636.94   42.90
  -6 -20   5   85.09    8.70
  -6 -20   5   79.69   16.30
   6  20  -5   93.79   19.30
  -6  20   5   95.59   13.90
  -6  20   5   61.49   14.90
  -5 -20   5  216.78   19.80
  -5 -20   5  203.08   10.60
   5 -20  -5  211.78   18.00
   5  20  -5  230.08   23.30
  -5  20   5  198.08   17.00
  -5  20   5  161.28   22.50
   4 -20  -5  632.54   28.80
  -4 -20   5  622.14   20.10
  -4 -20   5  690.03   33.30
   4 -20  -5  609.84   34.20
  -4  20   5  602.14   36.10
  -4  20   5  661.33   30.50
   4  20  -5  638.04   32.90
  -3 -20   5   76.99   12.10
   3 -20  -5   59.79   10.00
  -3 -20   5   81.09    7.90
   3 -20  -5   84.49   16.00
  -3  20   5   91.19   13.00
  -3  20   5   99.39   16.50
   3  20  -5   68.49   11.80
   3  20  -5   83.79    8.00
  -2 -20   5  223.38   16.80
   2 -20  -5  166.48   18.60
   2 -20  -5  190.78   14.90
   2  20  -5  188.38   15.90
   2  20  -5  193.38   12.20
  -2  20   5  175.68   15.60
  -2  20   5  214.48   20.00
   1 -20  -5  473.75   27.40
   1 -20  -5  472.85   24.10
  -1 -20   5  472.75   24.30
  -1  20   5  453.85   28.30
   1  20  -5  422.26   22.60
  -1  20   5  472.75   26.10
   1  20  -5  476.35   21.70
   0 -20   5  112.69   12.80
   0 -20  -5  156.78   16.80
   0 -20  -5  147.69   15.50
   0  20   5  140.79   16.00
   0  20  -5  142.39   13.30
   0  20  -5  176.38   15.30
   0  20   5  152.38   16.30
  -1 -20  -5  252.47   21.50
   1 -20   5  254.37   18.50
  -1 -20  -5  216.98   20.00
  -1  20  -5  273.27   17.30
   1  20   5  204.28   19.70
  -1  20  -5  295.87   21.50
   1  20   5  296.77   23.30
  -2 -20  -5  391.96   26.20
   2 -20   5  394.16   24.10
  -2  20  -5  394.86   27.20
   2  20   5  451.95   29.60
   2  20   5  372.26   26.30
  -2  20  -5  411.76   21.90
  -3 -20  -5   44.00   14.20
   3 -20   5   41.70   10.90
  -3  20  -5   23.40    9.20
   3  20   5   43.70   13.40
   3  20   5   53.79   14.00
  -3  20  -5   75.69   16.80
   4 -20   5   56.39   13.00
  -4  20  -5   38.60   11.10
   4  20   5   19.80   12.70
   4  20   5   36.20   12.30
  -5 -20  -5  530.05   39.70
   5 -20   5  514.95   32.80
   5  20   5  507.65   37.30
  -5  20  -5  524.85   31.20
  -5  20  -5  459.45   31.90
  -6 -20  -5  299.07   37.60
  -6  20  -5  282.57   27.60
  -6  20  -5  262.07   29.40
  -7 -20  -5   32.40   22.30
  -7  20  -5   31.20   15.20
 -10 -21   5  112.99   17.70
 -10 -21   5  132.29   27.80
 -10  21   5  110.99   20.20
 -10  21   5  103.69   25.50
  -9 -21   5  716.73   33.70
  -9 -21   5  700.93   31.30
  -9 -21   5  683.43   46.10
  -9  21   5  751.82   51.99
  -9  21   5  794.12   40.70
  -8 -21   5  340.17   19.00
  -8 -21   5  353.06   32.20
  -8  21   5  342.17   25.20
  -8  21   5  304.17   32.10
  -7 -21   5  164.48   22.50
  -7 -21   5  196.88   12.80
   7  21  -5  146.99   27.40
  -7  21   5  225.88   20.20
  -7  21   5  220.48   25.40
  -6 -21   5  875.71   43.10
  -6 -21   5  931.91   26.40
   6  21  -5  898.41   48.40
  -6  21   5  979.20   39.50
  -6  21   5  892.21   47.80
  -5 -21   5  769.52   37.10
   5 -21  -5  702.03   32.10
  -5 -21   5  739.63   20.10
  -5  21   5  723.13   41.20
   5  21  -5  677.03   38.10
  -5  21   5  680.53   31.80
   4 -21  -5  157.58   23.10
  -4 -21   5  151.48   16.70
  -4 -21   5  149.88    8.20
   4 -21  -5  148.49   14.50
   4  21  -5  188.28   19.30
  -4  21   5  181.08   15.90
  -4  21   5  155.98   21.50
  -3 -21   5 1320.37   47.30
   3 -21  -5 1347.17   51.69
   3 -21  -5 1334.47   43.50
  -3  21   5 1285.17   53.89
   3  21  -5 1325.57   34.80
   3  21  -5 1293.97   47.50
  -3  21   5 1331.87   46.40
  -2 -21   5  769.92   32.50
   2 -21  -5  653.13   35.00
   2 -21  -5  722.33   29.70
  -2  21   5  693.03   37.10
  -2  21   5  741.63   32.70
   2  21  -5  724.43   31.40
   2  21  -5  741.53   24.90
  -1 -21   5    9.40    5.70
   1 -21  -5    2.50    6.40
   1 -21  -5    8.60    8.70
   1  21  -5    2.70    5.30
  -1  21   5    3.00    5.70
   1  21  -5   -1.70    5.40
  -1  21   5   -1.70    6.10
   0 -21  -5 1268.77   45.80
   0 -21  -5 1244.78   48.50
   0 -21   5 1218.08   43.10
   0  21   5 1313.77   49.10
   0  21  -5 1302.27   43.60
   0  21  -5 1296.27   42.00
   0  21   5 1301.47   51.09
   1 -21   5 1873.81   58.59
  -1 -21  -5 1809.22   61.89
  -1 -21  -5 1904.31   63.99
  -1  21  -5 1989.40   62.09
   1  21   5 2012.50   66.79
  -1  21  -5 1964.60   55.79
   1  21   5 1911.81   66.39
  -2 -21  -5   32.70   12.50
   2 -21   5   43.40   10.70
   2  21   5   50.29   13.50
   2  21   5   42.90   12.80
  -2  21  -5   58.19   14.50
  -2  21  -5   48.50    9.10
  -3 -21  -5  584.64   35.10
   3 -21   5  646.14   32.10
  -3  21  -5  717.63   30.70
   3  21   5  655.93   38.10
  -3  21  -5  673.23   47.00
   3  21   5  663.63   36.30
   4 -21   5 1421.96   52.99
   4  21   5 1430.16   58.39
   4  21   5 1357.76   60.89
  -4  21  -5 1436.66   50.19
  -5 -21  -5  154.28   25.90
   5 -21   5  159.18   20.80
   5  21   5   97.89   19.70
  -5  21  -5  116.69   17.80
  -5  21  -5  132.99   19.70
  -6 -21  -5  127.79   25.00
  -6  21  -5  182.38   23.80
  -6  21  -5  138.59   21.80
  -7 -21  -5  347.47   41.70
  -7  21  -5  349.37   33.10
 -10 -22   5   14.50   12.80
 -10 -22   5   24.30   18.40
 -10  22   5    5.40   21.50
 -10  22   5   20.90   14.70
  -9 -22   5   12.80   14.10
  -9 -22   5   24.60   10.20
  -9 -22   5    5.90   12.30
  -9  22   5    6.50   11.70
  -9  22   5  -23.70   15.00
  -8 -22   5   26.80    9.40
  -8 -22   5   18.50    7.80
  -8 -22   5   32.30   14.30
  -8  22   5   16.90   10.10
  -8  22   5   24.70   14.80
  -7 -22   5   -0.20   10.70
  -7 -22   5   -9.90    4.80
  -7  22   5    0.60    8.30
   7  22  -5  -28.30   18.00
  -7  22   5   16.30   12.30
  -6 -22   5   25.60   11.70
  -6  22   5    8.30   10.60
   6  22  -5   -8.80   13.60
  -6  22   5   22.80    8.70
  -5 -22   5   14.20    8.90
   5 -22  -5   10.60    8.60
  -5  22   5   12.50   10.00
  -5  22   5   25.20    8.40
   5  22  -5   -3.40   10.80
  -4 -22   5  117.79   16.30
   4 -22  -5  131.59   13.50
   4  22  -5  106.19   15.80
  -4  22   5  113.89   13.50
  -4  22   5   93.29   17.60
   3 -22  -5  181.88   19.50
   3 -22  -5  177.48   14.60
  -3 -22   5  194.48   17.00
   3  22  -5  166.88   16.70
  -3  22   5  179.98   15.80
   3  22  -5  174.58    9.50
  -3  22   5  138.99   19.90
   2 -22  -5   53.39   12.50
   2 -22  -5   45.40    9.40
  -2 -22   5   41.70    9.40
   2  22  -5   59.49   10.60
  -2  22   5   45.00   10.30
   2  22  -5   38.80    6.80
  -2  22   5   42.40   11.60
   1 -22  -5  422.76   26.80
  -1 -22   5  456.65   23.80
   1 -22  -5  424.36   23.30
  -1  22   5  442.36   29.20
   1  22  -5  452.55   22.90
   1  22  -5  482.35   21.60
  -1  22   5  459.15   26.50
   0 -22  -5   81.49   13.20
   0 -22   5   78.09   11.40
   0 -22  -5  104.79   16.00
   0  22  -5   79.69   12.10
   0  22   5   69.59   12.40
   0  22  -5   75.89   11.20
   0  22   5   53.59   12.80
  -1 -22  -5   13.60    9.10
   1 -22   5    6.20    6.70
  -1 -22  -5    4.40   13.40
   1  22   5   -3.40    7.00
   1  22   5   12.50    8.70
  -1  22  -5    1.00    5.30
  -1  22  -5    5.80    8.10
  -2 -22  -5  132.29   18.60
   2 -22   5  107.69   14.50
   2  22   5  120.29   18.10
   2  22   5   98.69   16.40
  -2  22  -5  132.19   19.10
  -2  22  -5  117.99   12.90
   3 -22   5  212.98   19.10
  -3 -22  -5  237.88   24.40
   3  22   5  200.98   22.40
  -3  22  -5  210.88   17.60
   3  22   5  263.57   23.70
   4 -22   5    9.40    9.80
  -4  22  -5    0.90    8.50
   4  22   5  -21.80    8.50
   4  22   5   -0.70    9.30
  -5 -22  -5  -20.30   13.90
   5 -22   5   15.90   10.90
  -5  22  -5  -11.10   10.20
  -5  22  -5   11.70   11.70
  -6 -22  -5   -6.60   15.40
  -6  22  -5    4.00   13.00
  -6  22  -5  -25.80   14.50
  -7 -22  -5  -27.20   20.10
  -7  22  -5    8.20   15.10
  -9 -23   5  393.16   21.80
  -9 -23   5  451.35   39.00
  -9  23   5  440.46   30.70
  -9  23   5  440.76   39.60
  -8 -23   5  328.07   17.40
  -8 -23   5  353.56   16.50
  -8 -23   5  380.46   33.80
  -8  23   5  291.27   31.70
  -8  23   5  381.46   26.70
  -7 -23   5   69.89   17.00
   7  23  -5   34.30   20.30
  -7  23   5   49.10   16.80
  -7  23   5   64.99   13.10
  -6 -23   5  564.54   33.60
   6  23  -5  592.14   38.70
  -6  23   5  538.55   37.30
  -6  23   5  518.95   28.30
  -5 -23   5  605.64   33.30
  -5  23   5  616.04   38.50
  -5  23   5  581.74   29.00
   5  23  -5  531.85   34.70
  -4 -23   5   73.89   13.50
   4 -23  -5  101.29   13.30
  -4  23   5   87.99   16.70
  -4  23   5   84.89   12.20
   4  23  -5   60.59   13.20
  -3 -23   5  745.53   33.70
   3 -23  -5  723.63   30.10
   3 -23  -5  692.23   37.00
   3  23  -5  826.72   35.50
  -3  23   5  690.33   31.90
   3  23  -5  763.02   20.80
  -3  23   5  764.62   40.90
   2 -23  -5  447.56   22.70
   2 -23  -5  504.05   29.40
  -2 -23   5  402.06   23.60
   2  23  -5  431.06   17.70
  -2  23   5  446.16   24.80
  -2  23   5  412.76   29.70
   2  23  -5  446.96   24.20
  -1 -23   5   13.60    6.90
   1 -23  -5   11.60    7.80
   1 -23  -5   18.80    9.80
   1  23  -5   12.20    6.70
  -1  23   5   27.80    9.30
   1  23  -5   16.70    6.50
  -1  23   5   25.70   10.20
   0 -23  -5 1024.10   44.00
   0 -23   5 1102.99   39.40
   0 -23  -5 1046.10   41.20
   0  23   5 1022.20   46.10
   0  23   5 1073.79   44.10
   0  23  -5 1169.98   40.10
   0  23  -5 1064.79   37.10
   1 -23   5  969.20   37.10
  -1 -23  -5  937.61   41.40
  -1  23  -5  931.51   33.90
   1  23   5  944.01   43.10
   1  23   5  946.61   42.50
  -1  23  -5  959.30   40.10
   2 -23   5   12.90    8.00
  -2 -23  -5   16.40   10.00
  -2  23  -5    6.20    6.30
   2  23   5    4.80    8.00
   2  23   5    4.20    9.10
  -2  23  -5    0.70   10.70
   3 -23   5  358.56   24.10
  -3 -23  -5  319.47   28.00
   3  23   5  390.66   29.80
  -3  23  -5  381.36   21.60
   3  23   5  322.47   26.90
   4 -23   5  660.53   33.80
   4  23   5  697.93   41.70
  -4  23  -5  630.24   31.40
   4  23   5  632.34   38.20
   5 -23   5   72.29   15.70
  -5 -23  -5  106.69   22.50
  -5  23  -5  103.29   16.90
  -5  23  -5   72.59   15.50
  -6 -23  -5  126.79   26.30
  -6  23  -5  111.89   19.20
  -6  23  -5  120.59   20.50
  -7 -23  -5  303.57   42.50
  -7  23  -5  341.17   31.40
  -9 -24   5    5.40   10.20
  -9 -24   5    7.40   15.20
  -9 -24   5   -4.60    7.80
  -9  24   5   30.80   17.50
  -9  24   5    6.00   11.40
  -8 -24   5  335.37   13.80
  -8 -24   5  381.26   32.40
  -8  24   5  430.16   27.80
  -8  24   5  419.06   36.70
  -7 -24   5  875.21   44.70
   7  24  -5  735.43   47.80
  -7  24   5  829.92   37.20
  -7  24   5  799.12   48.30
  -6 -24   5  -15.10    9.30
  -6  24   5    2.10    7.40
  -6  24   5    8.00   11.10
   6  24  -5   15.90   13.40
  -5 -24   5  490.65   29.90
  -5  24   5  474.95   26.30
   5  24  -5  528.15   34.40
  -5  24   5  555.04   37.70
  -4 -24   5  944.01   40.80
   4 -24  -5  928.91   36.00
  -4  24   5  890.41   46.30
  -4  24   5  925.91   37.20
   4  24  -5 1007.20   43.00
  -3 -24   5  360.96   22.90
   3 -24  -5  361.56   26.90
   3 -24  -5  335.67   20.10
  -3  24   5  328.77   26.90
   3  24  -5  359.96   23.50
  -3  24   5  350.86   21.90
   2 -24  -5  679.13   35.30
  -2 -24   5  626.64   29.70
   2 -24  -5  610.34   27.20
   2  24  -5  637.44   22.00
   2  24  -5  646.14   29.60
  -2  24   5  629.14   30.30
  -2  24   5  675.03   37.40
   1 -24  -5 1661.03   53.09
   1 -24  -5 1760.12   61.59
  -1 -24   5 1675.23   53.29
   1  24  -5 1746.33   52.49
  -1  24   5 1731.63   57.49
  -1  24   5 1698.23   62.99
   1  24  -5 1704.83   49.00
   0 -24  -5  362.66   23.50
   0 -24   5  394.86   21.70
   0 -24  -5  350.76   26.30
   0  24  -5  370.86   20.50
   0  24   5  408.86   25.90
   0  24  -5  364.36   21.60
   0  24   5  359.06   26.70
   1 -24   5  251.97   18.70
  -1 -24  -5  307.47   24.40
  -1  24  -5  291.37   22.20
   1  24   5  284.07   23.00
   1  24   5  274.97   22.90
  -1  24  -5  309.67   18.00
   2 -24   5  983.50   38.70
  -2 -24  -5  944.01   43.10
   2  24   5  990.00   45.50
  -2  24  -5  951.30   43.90
   2  24   5 1020.00   46.50
  -2  24  -5  994.40   35.40
   3 -24   5  498.45   27.50
  -3  24  -5  423.16   22.90
   3  24   5  437.16   29.50
   3  24   5  427.46   31.80
   4 -24   5    0.20    9.70
   4  24   5   -7.40   10.70
  -4  24  -5   20.60    9.50
   4  24   5   20.20   12.40
  -5 -24  -5  487.25   41.10
  -5  24  -5  441.26   28.50
  -5  24  -5  475.75   31.20
  -6 -24  -5  316.97   38.00
  -6  24  -5  359.56   30.20
  -6  24  -5  330.97   28.30
  -7 -24  -5    1.90   19.90
  -7  24  -5   16.50   15.00
  -9 -25   5   18.70   17.40
  -9 -25   5   -3.30    7.80
  -9  25   5  -16.50   15.40
  -9  25   5    3.40   11.30
  -8 -25   5   10.90   14.70
  -8  25   5    0.90   16.10
  -8  25   5   -5.10    9.70
  -7 -25   5   26.70   13.80
  -7  25   5   -9.80   12.50
   7  25  -5    4.90   17.70
  -7  25   5   12.20    9.20
  -6 -25   5   11.40   10.20
  -6  25   5    5.40   11.00
   6  25  -5   -6.80   14.80
  -6  25   5    9.60    8.00
  -5 -25   5   52.29   13.10
   5  25  -5   86.59   17.90
  -5  25   5   45.50   10.30
  -5  25   5   39.20   15.10
  -4 -25   5    6.10    8.20
   4 -25  -5   -5.50    7.20
  -4  25   5    6.30    7.00
  -4  25   5   -9.40    9.70
   4  25  -5    8.40    9.90
  -3 -25   5    9.50    6.70
   3 -25  -5   12.60    7.30
   3  25  -5    6.20    8.00
  -3  25   5    2.30    9.30
  -3  25   5   11.00    6.30
  -2 -25   5    6.50    6.70
   2 -25  -5   21.40   11.90
   2 -25  -5   10.50    6.50
   2  25  -5    9.20    4.70
   2  25  -5   15.20    7.80
  -2  25   5   12.80   10.40
  -2  25   5    5.50    6.80
   1 -25  -5    1.30    7.30
   1 -25  -5    6.30    9.10
  -1 -25   5    6.40    6.40
  -1  25   5    8.30    8.90
   1  25  -5    2.90    5.90
   1  25  -5    6.20    6.40
  -1  25   5    8.20    7.10
   0 -25  -5   72.99   14.90
   0 -25   5   49.10   10.40
   0 -25  -5   51.79   14.00
   0  25  -5   65.89   10.10
   0  25  -5   52.59   10.80
   0  25   5   47.70   13.30
   0  25   5   55.79   11.90
   1 -25   5   -2.20    6.40
  -1 -25  -5   -0.50   10.60
  -1  25  -5   -4.20    9.20
   1  25   5    5.50    8.00
  -1  25  -5    1.60    5.70
   1  25   5    4.70    8.80
   2 -25   5    9.20    7.80
  -2 -25  -5   10.60   11.80
  -2  25  -5    2.00    6.20
  -2  25  -5   24.00   12.80
   2  25   5    4.40    8.30
   2  25   5  -12.30    7.60
   3 -25   5   -6.70    7.90
   3  25   5    5.10   10.40
  -3  25  -5    8.40    7.30
   3  25   5  -17.60    8.80
   4 -25   5   -0.70    9.10
  -4  25  -5    3.90    8.50
   4  25   5  -19.70   10.60
   4  25   5   -9.70   11.00
  -5 -25  -5   -2.40   14.30
  -5  25  -5   10.70   11.80
  -5  25  -5   20.10   11.30
  -6 -25  -5   -3.00   19.40
  -6  25  -5   25.20   15.90
  -6  25  -5    0.40   12.70
  -9 -26   5  -23.70   15.60
  -9  26   5    9.40   18.00
  -9  26   5  -10.80   11.40
  -8 -26   5  375.16   35.10
  -8  26   5  386.56   38.50
  -8  26   5  374.86   26.80
  -7 -26   5  802.62   44.70
   7  26  -5  846.62   51.99
  -7  26   5  763.52   36.20
  -7  26   5  782.72   48.00
  -6 -26   5   51.89   14.30
  -6  26   5   32.10   10.10
  -6  26   5   31.90   15.50
   6  26  -5   34.20   18.00
  -5 -26   5  397.96   27.70
   5  26  -5  426.36   32.10
  -5  26   5  373.36   23.10
  -5  26   5  429.56   33.60
   4 -26  -5  770.02   32.10
  -4 -26   5  734.43   35.70
   4  26  -5  735.63   37.80
  -4  26   5  755.22   43.10
  -4  26   5  794.12   33.30
  -3 -26   5  274.57   20.40
   3 -26  -5  302.17   19.40
   3  26  -5  320.47   22.50
  -3  26   5  292.57   27.40
  -3  26   5  306.37   20.70
   2 -26  -5  197.68   16.10
  -2 -26   5  198.98   17.10
   2 -26  -5  185.58   21.10
  -2  26   5  185.18   24.00
   2  26  -5  186.88   16.90
  -2  26   5  200.28   17.50
   2  26  -5  199.58   11.10
   1 -26  -5 1419.26   54.99
  -1 -26   5 1487.25   48.10
   1 -26  -5 1392.36   47.60
   1  26  -5 1452.15   46.60
   1  26  -5 1499.65   43.50
  -1  26   5 1382.86   57.09
  -1  26   5 1436.16   51.49
   0 -26  -5  207.58   22.00
   0 -26   5  241.58   17.60
   0  26  -5  222.98   16.20
   0  26   5  270.67   22.40
   0  26   5  251.27   23.30
   0  26  -5  208.08   17.90
  -1 -26  -5  177.08   20.90
   1 -26   5  186.98   16.30
   1  26   5  164.48   21.40
   1  26   5  167.98   19.70
  -1  26  -5  168.98   13.90
  -1  26  -5  184.08   19.40
   2 -26   5  724.33   32.20
  -2 -26  -5  740.83   39.20
  -2  26  -5  775.92   29.80
   2  26   5  785.92   40.70
  -2  26  -5  800.42   39.80
   2  26   5  731.33   38.50
   3 -26   5  311.97   22.00
   3  26   5  310.17   27.30
  -3  26  -5  354.16   20.60
   3  26   5  353.66   29.20
   4 -26   5    8.90   10.00
  -4 -26  -5   22.10   16.00
   4  26   5   21.60   13.10
   4  26   5   12.90   13.00
  -4  26  -5   13.20    8.70
  -5 -26  -5  474.75   41.00
  -5  26  -5  444.06   29.40
  -5  26  -5  477.05   28.50
  -6 -26  -5  355.26   39.20
  -6  26  -5  371.36   29.50
  -9 -27   5  280.77   32.40
  -9  27   5  272.57   25.60
  -9  27   5  235.08   36.00
  -8 -27   5  144.19   24.90
  -8  27   5  180.18   20.90
  -8  27   5  203.88   32.10
  -7 -27   5    4.50   11.30
  -7  27   5   12.20   10.00
  -7  27   5   51.99   17.50
   7  27  -5   -4.80   21.30
  -6 -27   5  741.33   39.50
  -6  27   5  642.04   43.60
  -6  27   5  702.83   32.90
   6  27  -5  707.83   45.20
  -5 -27   5  251.77   23.00
  -5  27   5  261.27   27.70
  -5  27   5  235.68   18.80
   5  27  -5  229.88   25.80
   4 -27  -5   -6.00    8.10
  -4 -27   5    3.50    7.90
  -4  27   5   11.60   10.90
  -4  27   5   -2.40    6.30
   4  27  -5   -8.30   10.00
   3 -27  -5  620.74   27.90
  -3 -27   5  646.74   31.40
   3  27  -5  644.14   32.80
  -3  27   5  596.74   37.80
  -3  27   5  648.04   30.00
   2 -27  -5  560.34   26.60
  -2 -27   5  664.53   30.30
  -2  27   5  601.54   29.90
   2  27  -5  635.94   19.90
   2  27  -5  571.94   28.60
  -2  27   5  607.64   37.40
   1 -27  -5   -9.20    9.30
   1 -27  -5    2.30    8.00
  -1 -27   5    1.40    6.50
   1  27  -5   -7.00    6.30
  -1  27   5    0.90    7.30
   1  27  -5   -2.50    5.70
  -1  27   5   -5.80    8.60
   0 -27   5 1004.60   37.30
   0 -27  -5  982.80   44.90
   0  27  -5 1033.10   38.20
   0  27   5  991.20   42.10
   0  27   5  963.40   45.70
   0  27  -5  959.10   34.60
  -1 -27  -5  718.23   37.00
   1 -27   5  720.83   31.10
   1  27   5  716.03   38.20
  -1  27  -5  745.73   28.80
   1  27   5  724.93   37.90
  -1  27  -5  769.52   35.80
   2 -27   5   15.20    8.10
  -2 -27  -5   17.60   13.10
  -2  27  -5   16.00   14.30
   2  27   5    5.20   10.50
   2  27   5   -1.80    8.80
  -2  27  -5   12.30    6.70
   3 -27   5  187.68   18.30
  -3  27  -5  183.48   15.60
   3  27   5  166.88   22.70
   3  27   5  202.58   23.30
   4 -27   5  437.86   27.10
  -4 -27  -5  400.06   35.90
   4  27   5  486.15   34.00
  -4  27  -5  446.66   24.30
  -4  27  -5  419.86   26.70
  -5 -27  -5  130.99   25.20
  -5  27  -5  175.68   20.70
  -5  27  -5  183.38   19.90
  -6 -27  -5  184.18   32.20
  -6  27  -5  162.58   21.30
  -9 -28   5   29.30   20.70
  -9  28   5  -16.80   20.90
  -9  28   5   16.50   12.90
  -8 -28   5   80.89   18.80
  -8  28   5   46.60   20.90
  -8  28   5   80.69   15.20
  -7 -28   5   43.50   15.10
  -7  28   5   64.59   18.80
   7  28  -5   63.39   24.30
  -7  28   5   47.90   12.30
  -6 -28   5    6.80   10.00
   6  28  -5   17.50   17.30
  -6  28   5   17.40   15.20
  -6  28   5   11.80    8.40
  -5 -28   5   -2.40    9.50
  -5  28   5   13.80   12.90
  -5  28   5   18.40    8.40
   5  28  -5   20.00   13.60
  -4 -28   5   16.30    9.80
   4 -28  -5   24.70   10.80
  -4  28   5   23.00   12.80
  -4  28   5   19.10    8.30
   4  28  -5   37.40   12.70
   3 -28  -5   21.10    8.40
  -3 -28   5   34.80   10.60
  -3  28   5   25.70    8.60
   3  28  -5   30.60   11.20
  -3  28   5   32.60   12.70
   2 -28  -5   47.50   10.30
  -2 -28   5   34.90    9.40
  -2  28   5   38.80   12.90
  -2  28   5   20.70    8.90
   2  28  -5   46.20   10.50
   2  28  -5   43.20    5.90
   1 -28  -5   93.39   17.40
  -1 -28   5  116.29   13.80
  -1  28   5  112.59   18.80
  -1  28   5  101.29   14.70
   1  28  -5  116.89   13.20
   1  28  -5  137.99   12.30
   0 -28  -5   42.10   14.40
   0 -28   5   48.00   10.10
   0  28   5   47.10   12.60
   0  28  -5   65.69   10.40
   0  28  -5   33.90   10.60
   0  28   5   55.69   12.50
  -1 -28  -5   29.90   14.10
   1 -28   5   33.00    9.50
   1  28   5   18.40   10.60
  -1  28  -5   23.90    7.70
   1  28   5   27.90   11.40
  -1  28  -5   55.39   13.90
   2 -28   5   56.39   10.80
  -2 -28  -5   58.69   16.80
   2  28   5   44.80   15.10
  -2  28  -5   43.00   15.90
   2  28   5   62.69   14.80
  -2  28  -5   49.99    8.70
   3 -28   5   16.80    9.00
   3  28   5    7.60   12.20
  -3  28  -5    7.40    7.30
   3  28   5    4.10   10.60
   4 -28   5   -0.20   10.10
  -4  28  -5   17.30    9.10
   4  28   5   11.10   13.70
  -4  28  -5   14.60    9.90
  -5 -28  -5  131.59   25.90
  -5  28  -5   59.29   13.20
  -5  28  -5   81.59   14.90
  -6 -28  -5    3.20   19.00
  -6  28  -5   13.00   13.30
  -8 -29   5  131.79   24.80
  -8  29   5  171.58   31.80
  -8  29   5  204.58   21.80
  -7 -29   5   69.59   18.40
  -7  29   5   85.09   21.20
  -7  29   5   68.79   13.80
   7  29  -5   33.90   25.70
  -6 -29   5  589.54   36.00
  -6  29   5  557.54   42.30
   6  29  -5  562.04   42.10
  -6  29   5  527.45   27.90
  -5 -29   5  698.33   37.30
   5  29  -5  759.52   42.60
  -5  29   5  697.03   44.50
  -5  29   5  717.23   31.90
  -4 -29   5   54.39   13.10
  -4  29   5   60.19   16.40
   4  29  -5   58.19   15.30
  -4  29   5   63.89   11.30
  -3 -29   5  974.30   39.70
   3 -29  -5  900.51   35.10
   3  29  -5  923.31   39.70
  -3  29   5  937.41   49.20
  -3  29   5  991.50   38.00
   2 -29  -5  704.03   30.40
  -2 -29   5  730.33   32.20
  -2  29   5  776.22   42.60
   2  29  -5  670.93   31.50
   2  29  -5  737.83   20.50
  -2  29   5  709.73   32.40
  -1 -29   5    3.70    6.90
  -1  29   5   -4.90    9.90
  -1  29   5   -4.60    6.90
   1  29  -5   -6.70    6.20
   1  29  -5    0.40    6.70
   0 -29  -5  824.52   42.40
   0 -29   5  930.41   35.00
   0  29   5  843.62   43.50
   0  29  -5  894.51   35.20
   0  29   5  897.11   40.30
   0  29  -5  951.80   33.10
  -1 -29  -5 1083.49   48.20
   1 -29   5 1138.29   40.00
  -1  29  -5 1161.18   45.30
   1  29   5 1115.19   47.90
   1  29   5 1100.79   49.80
  -1  29  -5 1091.69   36.40
   2 -29   5    1.50    7.60
   2  29   5   -0.10    9.50
   2  29   5    0.50    9.90
  -2  29  -5   -2.70    5.80
  -2  29  -5  -11.70   13.10
   3 -29   5  370.16   23.10
  -3  29  -5  373.86   20.10
   3  29   5  391.66   31.20
   3  29   5  359.46   29.30
  -4 -29  -5  731.43   46.70
   4 -29   5  693.63   32.60
  -4  29  -5  710.33   29.50
   4  29   5  662.13   40.50
  -4  29  -5  676.53   32.30
  -5 -29  -5   79.59   23.10
  -5  29  -5   71.59   14.30
  -5  29  -5   58.69   12.40
  -6 -29  -5   87.09   27.60
  -6  29  -5  147.89   19.30
  -8 -30   5   23.70   17.50
  -8  30   5   33.50   22.70
  -8  30   5   68.79   14.40
  -7 -30   5  174.28   24.70
   7  30  -5  121.09   31.20
  -7  30   5  181.58   19.40
  -7  30   5  206.18   30.30
  -6 -30   5   37.30   14.10
  -6  30   5   43.90   10.90
   6  30  -5   71.39   21.40
  -6  30   5   38.00   16.30
  -5 -30   5  225.18   22.40
  -5  30   5  232.28   18.90
   5  30  -5  206.28   25.60
  -5  30   5  186.88   28.20
  -4 -30   5  360.36   25.90
  -4  30   5  361.06   22.90
  -4  30   5  415.06   33.30
   4  30  -5  416.86   30.10
  -3 -30   5   50.79   11.80
   3 -30  -5   31.20   11.40
   3  30  -5   54.59   13.30
  -3  30   5   48.80   14.70
  -3  30   5   45.30   11.00
  -2 -30   5  115.39   14.70
  -2  30   5  128.49   15.10
   2  30  -5  117.29   15.30
  -2  30   5  120.69   21.50
  -1 -30   5  425.36   23.30
   1  30  -5  449.86   23.10
  -1  30   5  406.06   31.30
  -1  30   5  466.15   26.70
   1  30  -5  429.76   20.30
   0 -30   5  181.88   16.20
   0  30  -5  183.68   17.40
   0  30  -5  178.78   14.10
   0  30   5  152.18   21.80
   0  30   5  198.88   20.00
   1 -30   5   76.19   14.20
  -1  30  -5  104.89   11.10
  -1  30  -5   89.69   16.30
   1  30   5   81.39   15.70
   1  30   5   75.49   16.90
   2  30   5  416.86   31.20
  -2  30  -5  439.56   20.70
   2  30   5  462.05   32.20
  -2  30  -5  402.96   30.90
  -3  30  -5  206.38   15.40
   3  30   5  188.28   25.00
   3  30   5  176.98   24.70
  -4 -30  -5    0.00   15.00
   4  30   5    8.00   13.90
  -4  30  -5   -2.60    8.90
  -4  30  -5    4.50    8.20
  -5 -30  -5  157.58   27.10
  -5  30  -5  147.29   17.70
  -5  30  -5  209.08   19.20
  -6 -30  -5  110.29   27.90
  -6  30  -5  120.69   18.20
  -8 -31   5   49.70   20.20
  -8  31   5   33.30   20.20
  -8  31   5   14.70   12.00
  -7 -31   5   25.90   15.70
  -7  31   5   32.70   18.50
  -7  31   5   45.10   11.90
   7  31  -5   50.49   28.00
  -6 -31   5  105.79   19.20
   6  31  -5  120.89   27.00
  -6  31   5  172.08   17.70
  -6  31   5  160.58   26.90
  -5 -31   5  198.88   22.70
  -5  31   5  232.58   30.80
   5  31  -5  196.48   25.00
  -5  31   5  196.38   17.50
  -4 -31   5   -1.00    8.70
  -4  31   5    9.00   11.80
   4  31  -5   37.90   14.60
  -4  31   5   11.80    8.10
  -3 -31   5  169.68   17.70
  -3  31   5  204.98   27.10
  -3  31   5  199.68   17.20
   3  31  -5  198.88   19.80
  -2 -31   5   98.39   14.00
  -2  31   5  127.99   16.10
  -2  31   5   81.69   18.60
   2  31  -5  115.59   15.10
  -1 -31   5    9.20    7.70
  -1  31   5    3.40    9.20
   1  31  -5   -3.70    6.90
   1  31  -5   -3.00    6.50
  -1  31   5   15.30    8.70
   0 -31   5  146.59   14.50
   0  31  -5  113.99   14.80
   0  31   5  162.38   22.90
   0  31  -5  150.78   13.40
   0  31   5  123.99   17.50
   1  31   5  139.49   19.30
  -1  31  -5  155.58   13.10
  -1  31  -5  158.68   19.60
   1  31   5  159.58   21.60
   2  31   5    0.90   11.80
  -2  31  -5   10.90    6.40
  -2  31  -5    3.70   14.00
   2  31   5  -14.30    9.80
  -3 -31  -5   71.69   19.50
  -3  31  -5   68.59   10.20
   3  31   5   62.19   16.80
  -3  31  -5   68.19   11.70
  -4 -31  -5  153.68   26.90
   4  31   5  139.59   22.30
  -4  31  -5  164.98   17.00
  -4  31  -5  128.19   15.00
  -5 -31  -5   -0.90   19.50
  -5  31  -5    0.10    9.80
  -5  31  -5    1.10   10.10
  -8 -32   5  265.57   33.80
  -8  32   5  241.78   33.90
  -8  32   5  252.57   23.20
  -7 -32   5  519.45   38.30
  -7  32   5  518.65   28.20
  -7  32   5  519.25   42.90
   7  32  -5  457.15   51.79
  -6 -32   5   68.29   16.50
   6  32  -5   66.09   23.20
  -6  32   5   38.90   17.50
  -6  32   5   42.50   11.10
  -5 -32   5  362.46   27.50
  -5  32   5  384.26   23.00
   5  32  -5  332.57   33.10
  -5  32   5  388.96   36.10
  -4 -32   5  841.82   39.60
  -4  32   5  853.21   33.90
  -4  32   5  882.71   48.70
   4  32  -5  798.02   41.50
  -3 -32   5   53.79   12.30
  -3  32   5   28.70   16.20
  -3  32   5   56.19   10.90
   3  32  -5   12.80   11.40
  -2 -32   5  525.45   26.90
  -2  32   5  466.55   26.30
   2  32  -5  470.55   26.60
  -2  32   5  489.65   34.50
  -1 -32   5 1084.09   40.10
   1  32  -5 1175.58   35.10
   1  32  -5 1105.99   39.00
  -1  32   5 1123.69   52.79
  -1  32   5 1072.59   43.30
   0  32  -5  410.16   20.40
   0  32  -5  419.26   24.40
   0  32   5  404.46   27.10
   0  32   5  426.16   31.90
   1 -32   5  137.89   15.40
   1  32   5  148.39   19.70
  -1  32  -5  147.89   12.60
   1  32   5  143.39   21.40
  -1  32  -5  154.58   19.60
   2 -32   5  831.22   32.40
  -2  32  -5  839.52   28.60
   2  32   5  912.41   44.60
   2  32   5  862.91   45.10
  -2  32  -5  854.21   44.30
  -3 -32  -5  540.55   39.00
   3 -32   5  484.25   25.30
  -3  32  -5  500.75   21.60
   3  32   5  470.55   33.90
  -3  32  -5  542.85   24.50
  -4 -32  -5   19.40   17.20
   4  32   5   21.40   15.10
  -4  32  -5   26.00    8.80
  -4  32  -5   37.50   10.40
  -5 -32  -5  433.36   42.90
  -5  32  -5  426.76   25.40
  -5  32  -5  367.66   25.90
  -7 -33   5    9.80   16.20
  -7  33   5   21.10   11.30
  -7  33   5   10.70   19.10
   7  33  -5   12.00   28.60
  -6 -33   5   82.49   19.10
   6  33  -5   94.59   24.90
  -6  33   5  120.89   14.80
  -6  33   5   77.89   21.00
  -5 -33   5   15.30   13.40
   5  33  -5   61.79   19.50
  -5  33   5   24.90    9.70
  -5  33   5   68.49   20.40
  -4 -33   5    6.40    9.80
   4  33  -5   19.80   13.80
  -4  33   5   23.20    9.40
  -4  33   5   17.30   13.60
  -3 -33   5   51.09   11.80
  -3  33   5   71.39   12.10
  -3  33   5   71.89   19.00
   3  33  -5   43.90   13.00
  -2 -33   5  111.59   14.90
   2  33  -5  109.29   15.00
  -2  33   5  108.89   14.70
  -2  33   5   91.09   18.40
  -1 -33   5    6.40    8.70
  -1  33   5   37.60   15.00
   1  33  -5   31.30    8.90
   1  33  -5   25.30    7.70
   1  33  -5    8.60    6.30
  -1  33   5   23.80   10.40
   0  33  -5  121.09   12.40
   0  33   5   78.99   14.40
   0  33  -5  101.39   14.80
   0  33   5  130.39   21.40
   1 -33   5  162.08   15.30
  -1  33  -5  161.08   20.00
   1  33   5  206.28   23.30
   1  33   5  166.58   21.40
  -1  33  -5  194.78   13.30
   2 -33   5    6.80    8.00
  -2  33  -5    9.70    5.90
   2  33   5    6.50   11.00
   2  33   5   14.50   13.20
  -2  33  -5    7.50   16.10
  -3 -33  -5   74.79   20.10
   3 -33   5   57.99   11.50
   3  33   5   70.19   18.10
  -3  33  -5   83.89    9.60
  -3  33  -5   89.89   10.90
  -4 -33  -5  104.89   23.80
   4  33   5  128.39   22.50
  -4  33  -5  148.19   14.80
  -4  33  -5  141.19   13.60
  -5 -33  -5  -16.00   21.10
  -5  33  -5   13.50    9.80
  -7 -34   5  211.08   30.00
  -7  34   5  211.18   34.30
  -7  34   5  205.08   19.50
  -6 -34   5   23.30   14.70
  -6  34   5   37.00   10.90
  -6  34   5   11.80   18.30
   6  34  -5   12.90   23.10
  -5 -34   5  118.99   19.00
  -5  34   5  112.19   23.20
   5  34  -5   96.89   21.10
  -5  34   5  105.69   12.90
  -4 -34   5  251.37   22.50
  -4  34   5  302.77   31.30
  -4  34   5  253.87   18.30
   4  34  -5  189.68   24.10
  -3 -34   5   14.80    9.30
   3  34  -5    9.10   11.00
  -3  34   5    1.60    8.00
  -3  34   5   -7.90   14.00
  -2 -34   5  241.48   19.10
  -2  34   5  227.68   18.70
  -2  34   5  181.58   25.10
   2  34  -5  212.08   19.50
  -1 -34   5  520.95   26.10
  -1  34   5  568.24   30.10
   1  34  -5  496.65   24.70
   1  34  -5  557.14   21.60
  -1  34   5  601.94   38.70
   1  34  -5  538.25   21.70
   0 -34   5  118.39   14.20
   0  34  -5  146.99   16.70
   0  34  -5  111.69   12.00
   0  34   5  125.09   21.20
   0  34   5  108.59   16.40
   1 -34   5   24.60    9.20
  -1  34  -5   20.10   13.60
   1  34   5   32.00   14.70
   1  34   5   35.60   12.10
  -1  34  -5   28.40    7.10
   2 -34   5  409.86   21.40
  -2 -34  -5  392.86   33.00
  -2  34  -5  480.05   42.10
  -2  34  -5  435.76   17.40
   2  34   5  455.65   33.50
  -3 -34  -5  136.99   24.20
  -3  34  -5  152.08   11.10
   3  34   5  124.29   21.60
  -3  34  -5  127.99   12.00
  -4 -34  -5   23.60   20.00
   4  34   5    6.80   16.40
  -4  34  -5   30.90    9.00
  -4  34  -5   30.80    7.50
  -5 -34  -5  163.68   30.30
  -5  34  -5  135.79   14.80
  -7 -35   5   24.70   17.40
  -7  35   5   10.90   19.30
  -7  35   5   35.50   11.60
  -6 -35   5  667.43   40.20
   6  35  -5  604.44   47.30
  -6  35   5  570.14   46.20
  -6  35   5  621.84   27.30
  -5 -35   5  207.98   24.80
   5  35  -5  226.78   28.90
  -5  35   5  208.18   16.60
  -5  35   5  169.68   27.70
  -4 -35   5   10.00   10.70
   4  35  -5   16.50   14.30
  -4  35   5    2.00    7.70
  -4  35   5   -8.90   14.70
  -3 -35   5  588.14   30.60
  -3  35   5  592.84   42.30
  -3  35   5  602.94   27.60
   3  35  -5  558.94   32.40
  -2 -35   5  707.13   31.20
  -2  35   5  602.34   40.20
   2  35  -5  601.44   30.30
  -2  35   5  569.84   28.90
   1  35  -5    4.30    5.90
   1  35  -5   -1.10    6.50
  -1  35   5   11.50   12.90
   1  35  -5   16.70    8.10
  -1  35   5   -1.10    8.50
   0 -35   5  595.44   26.50
   0  35  -5  555.74   26.40
   0  35   5  564.04   32.50
   0  35  -5  529.65   27.70
   0  35  -5  576.94   23.20
   0  35   5  590.54   37.90
   1 -35   5  610.84   25.60
   1  35   5  623.34   35.40
  -1  35  -5  609.84   21.50
  -1  35  -5  629.84   34.30
   1  35   5  720.03   41.40
   2 -35   5   14.00    8.60
  -2 -35  -5    4.70   15.30
  -2  35  -5   11.10    4.90
  -2  35  -5   16.70    5.60
   2  35   5   28.50   14.50
  -3 -35  -5  327.47   35.60
  -3  35  -5  393.86   13.70
   3  35   5  445.36   34.40
  -4 -35  -5  482.15   40.50
  -4  35  -5  393.96   15.40
  -4  35  -5  434.96   16.10
   4  35   5  367.56   34.60
  -7 -36   5   -8.40   16.50
  -7  36   5   12.80   10.20
  -7  36   5    1.90   18.60
  -6 -36   5    6.30   15.00
  -6  36   5   32.80   17.20
  -6  36   5   12.60    9.10
  -5 -36   5    1.20   11.40
  -5  36   5   17.70    8.50
  -5  36   5   -7.90   16.40
   5  36  -5   -4.40   18.40
  -4 -36   5    9.20   10.90
  -4  36   5    4.00    8.00
   4  36  -5   -5.20   14.30
  -4  36   5   12.20   16.10
  -3 -36   5   12.60   10.50
   3  36  -5   18.60   12.20
  -3  36   5   11.90    8.40
  -3  36   5   -4.60   14.10
  -2 -36   5    7.20    8.80
   2  36  -5    1.50    9.60
  -2  36   5    6.30   14.40
  -2  36   5    1.60    8.20
   1  36  -5   49.70    8.10
   1  36  -5   67.69    8.30
   1  36  -5   52.49   10.20
  -1  36   5   62.49   17.10
  -1  36   5   45.70   11.90
   0 -36   5   20.00    8.80
   0  36   5    2.80   10.50
   0  36   5    6.80   14.20
   0  36  -5    7.40    6.60
   0  36  -5   26.50   11.00
   0  36  -5    3.60    8.50
   1 -36   5    1.80    8.10
   1  36   5   -4.30   14.00
  -1  36  -5   12.50    5.40
  -1  36  -5   29.90   14.60
   2 -36   5   21.90    8.20
  -2 -36  -5   29.20   17.20
   2  36   5   37.40   14.90
  -3 -36  -5  -15.80   17.30
   3  36   5    0.70   15.10
  -4 -36  -5   18.40   20.20
   4  36   5   24.30   18.80
  -6 -37   5  351.36   31.10
  -6  37   5  281.27   38.90
  -6  37   5  325.37   17.90
  -5 -37   5  237.48   25.30
   5  37  -5  170.88   26.50
  -5  37   5  199.28   32.30
  -5  37   5  196.28   14.30
  -4 -37   5   52.29   14.50
  -4  37   5   34.20   16.80
  -4  37   5   35.30    9.00
   4  37  -5   20.00   17.10
  -3 -37   5  569.64   30.80
  -3  37   5  509.15   24.00
   3  37  -5  498.75   31.50
  -3  37   5  533.55   41.70
  -2 -37   5  389.66   23.90
  -2  37   5  398.76   23.20
  -2  37   5  366.06   33.90
   2  37  -5  364.06   24.00
  -1 -37   5    1.70    8.70
   1  37  -5    4.10    5.70
   1  37  -5    3.10    6.30
  -1  37   5   -0.10   14.60
   1  37  -5  -10.10    7.80
  -1  37   5   -1.50    9.30
   0 -37   5  225.98   17.20
   0  37  -5  223.58   20.50
   0  37  -5  225.98   18.10
   0  37   5  310.77   30.20
   0  37   5  212.18   21.00
   0  37  -5  235.68   14.10
  -1 -37  -5  329.77   30.40
   1 -37   5  299.87   17.00
  -1  37  -5  322.97   27.70
   1  37   5  304.97   29.80
  -1  37  -5  303.27   23.60
  -2 -37  -5   16.50   15.80
   2  37   5   -0.60   14.80
  -3 -37  -5  163.48   27.90
   3  37   5  163.28   25.70
  -4 -37  -5  336.17   38.20
   4  37   5  372.36   35.00
  -6 -38   5   42.70   18.10
  -6  38   5   54.29   24.20
  -5 -38   5  102.39   19.70
  -5  38   5  126.39   25.20
  -4 -38   5  353.56   27.70
  -4  38   5  310.57   16.30
   4  38  -5  330.87   31.80
  -4  38   5  350.66   37.40
  -3 -38   5   34.70   12.30
  -3  38   5   59.89   10.50
  -3  38   5   36.50   18.60
   3  38  -5   30.80   13.70
  -2 -38   5  152.58   17.60
   2  38  -5  213.98   19.80
  -2  38   5  265.77   30.00
  -2  38   5  244.98   18.80
   1  38  -5  627.64   19.20
  -1  38   5  640.54   31.10
   1  38  -5  582.44   25.80
  -1  38   5  589.34   40.60
   1  38  -5  626.64   19.30
   0  38  -5  157.18   17.40
   0  38  -5  176.48   10.90
   0  38  -5  169.58   16.40
   0  38   5  200.58   26.90
  -1 -38  -5  139.89   22.20
   1  38   5  181.08   26.00
  -1  38  -5  148.29   18.70
  -1  38  -5  135.29   20.70
  -2 -38  -5  487.35   37.20
  -2  38  -5  430.06   30.70
   2  38   5  412.66   34.40
  -3 -38  -5  230.08   31.50
   3  38   5  154.28   24.80
  -5 -39   5  -10.40   13.60
  -5  39   5    4.60   20.20
  -4 -39   5   -9.30   12.00
   4  39  -5   12.10   17.10
  -4  39   5    9.00   17.90
  -3 -39   5   -6.40   10.30
  -3  39   5   23.10   18.90
  -3  39   5   13.60    7.90
   3  39  -5  -14.00   13.40
   2  39  -5    2.90   10.50
  -2  39   5   -5.60   15.40
  -1 -39   5    2.00    9.20
  -1  39   5    2.40   15.30
   1  39  -5    2.20    8.10
   0 -39  -5   10.90   13.90
   0 -39   5  -13.60    8.30
   0  39   5    1.90   15.30
   0  39  -5    3.00    9.30
   0  39  -5   -9.60   11.40
  -1 -39  -5   17.60   15.00
   1  39   5    3.80   14.70
  -1  39  -5    8.50   10.90
  -1  39  -5   15.90   16.00
  -2 -39  -5   -5.50   17.20
   2  39   5   -2.90   15.90
  -2  39  -5   12.50   13.10
  -3 -39  -5  -10.50   18.70
   3  39   5  -10.10   17.40
  -3  39  -5  -18.60   13.90
  -5  40   5  155.58   27.80
  -3 -40   5    6.90   10.90
   3  40  -5   34.60   14.50
  -3  40   5   10.10   17.90
   2  40  -5  273.17   21.90
  -2  40   5  294.77   33.90
   0  40  -5  159.08   16.90
   0  40  -5  112.69   14.30
   0  40   5   77.39   20.70
   1  40   5   78.29   21.20
  -1  40  -5   79.79   15.50
  -1  40  -5  126.59   29.30
   2  40   5  411.96   35.50
  -2  40  -5  383.56   29.70
  -4 -41   5  -16.40   13.50
  -4  41   5   42.30   21.20
   3  41  -5  280.87   30.80
  -3  41   5  364.56   37.00
  -2  41   5  185.28   29.00
  -1 -41   5   -1.40   10.20
  -1  41   5  -16.80   17.10
   0  41   5  199.88   27.20
   0  41  -5  186.18   17.70
  -1  41  -5  230.58   23.50
   1  41   5  249.38   30.50
  -2 -41  -5  -23.60   17.80
  -2  41  -5   25.20   15.30
   2  41   5   40.10   18.70
  -4  42   5   70.29   21.60
  -3 -42   5   20.10   19.20
  -3  42   5  -30.50   17.60
  -2  42   5   25.90   18.60
   1 -42  -5  -10.40   16.20
  -1  42   5   87.59   23.20
   0 -42  -5    7.20   15.70
   0  42   5   21.50   17.80
   0  42  -5   24.80   10.30
  -1 -42  -5   10.80   17.50
   1  42   5    4.60   18.10
  -1  42  -5    3.70   13.10
  -3  43   5  445.16   42.60
  -2  43   5  446.16   40.80
  -1  43   5  -17.30   18.70
   0  43  -5  340.47   21.40
   0  43   5  389.16   38.00
 -11   0   6  229.38   32.30
 -11   0   6  260.67   33.10
 -10   0   6  787.72   46.90
 -10   0   6  740.43   47.00
  -9   0   6  219.98   26.10
  -9   0   6  172.58   23.70
  -8   0   6  175.08   22.90
  -8   0   6  216.58   22.70
  -7   0   6  975.70   45.70
  -7   0   6  976.80   44.80
   6   0  -6 1044.70   43.50
  -6   0   6 1080.29   46.50
  -6   0   6  983.60   43.40
   6   0  -6  989.30   46.00
   5   0  -6  234.78   19.30
   5   0  -6  246.48   20.50
  -5   0   6  240.98   20.00
  -5   0   6  241.18   19.20
  -4   0   6 1506.55   52.59
   4   0  -6 1383.46   49.50
  -4   0   6 1499.75   53.59
   4   0  -6 1465.15   51.79
   3   0  -6 1946.71   59.29
  -3   0   6 1825.42   61.39
   3   0  -6 1904.91   58.79
  -3   0   6 1809.12   59.79
  -2   0   6   77.39   12.10
   2   0  -6   79.69   11.80
  -2   0   6   87.59   13.80
   2   0  -6   60.59   10.60
   1   0  -6 1177.18   42.40
  -1   0   6 1168.88   45.80
   1   0  -6 1221.88   44.40
  -1   0   6 1203.68   45.90
   0   0   6 2936.11   85.39
   0   0  -6 2936.51   82.69
   0   0  -6 2912.41   81.29
   0   0   6 2823.02   84.59
   1   0   6   64.79   12.60
  -1   0  -6   85.79   14.40
  -1   0  -6   65.79   11.70
   1   0   6   68.79   13.00
   2   0   6 2071.39   71.29
  -2   0  -6 2103.29   68.29
   2   0   6 2067.69   71.09
  -2   0  -6 2067.79   69.09
   3   0   6 1962.90   70.39
   3   0   6 1961.70   70.79
  -3   0  -6 1886.01   67.29
  -4   0  -6   83.19   17.50
   4   0   6   35.40   12.80
   5   0   6  788.52   46.50
   6   0   6 1248.58   62.79
  -7   0  -6  137.99   26.90
  -8   0  -6   89.19   27.40
 -11  -1   6   46.30   20.70
 -11  -1   6   55.29   20.40
 -11   1   6   91.09   24.40
 -11   1   6   77.19   21.40
 -10  -1   6   10.50   14.60
 -10  -1   6   25.50   15.60
 -10   1   6   51.69   18.00
 -10   1   6   20.40   13.50
  -9  -1   6  279.27   29.10
  -9  -1   6  303.17   28.10
  -9   1   6  300.57   29.10
  -9   1   6  360.56   30.80
  -8  -1   6  241.58   24.30
  -8  -1   6  267.07   25.00
  -8   1   6  243.28   23.80
  -8   1   6  229.68   23.10
  -7  -1   6   72.49   15.60
  -7  -1   6   57.59   13.70
  -7   1   6   47.10   12.90
  -7   1   6   47.90   12.80
  -6  -1   6   66.99   13.10
  -6  -1   6   52.39   13.10
   6  -1  -6   80.49   15.80
   6  -1  -6   51.09   14.60
   6   1  -6   41.60   12.80
   6   1  -6   41.90   12.20
  -6   1   6   53.09   13.10
  -6   1   6   85.59   14.50
   5  -1  -6  595.64   31.40
  -5  -1   6  561.04   30.10
  -5  -1   6  597.34   32.00
   5  -1  -6  542.45   29.60
   5   1  -6  521.45   29.80
   5   1  -6  535.65   28.60
  -5   1   6  575.74   31.10
  -5   1   6  624.34   32.00
  -4  -1   6   18.10    7.50
   4  -1  -6   35.60    9.30
  -4  -1   6   12.60    7.30
   4  -1  -6   17.70    7.60
   4   1  -6   10.30    7.10
  -4   1   6   14.90    6.70
   4   1  -6   12.20    6.90
  -4   1   6   27.20    9.10
   3  -1  -6  126.79   14.50
  -3  -1   6  127.39   14.10
   3  -1  -6  143.79   14.60
  -3  -1   6  119.49   13.00
   3   1  -6  127.89   13.40
  -3   1   6  120.99   13.90
   3   1  -6  144.89   14.40
  -3   1   6  103.89   14.80
   2  -1  -6  385.96   22.40
  -2  -1   6  385.06   23.60
   2  -1  -6  384.86   21.80
  -2  -1   6  382.26   23.90
  -2   1   6  376.16   23.50
   2   1  -6  391.96   22.20
   2   1  -6  342.37   21.00
  -2   1   6  391.16   24.10
   1  -1  -6  675.83   31.30
  -1  -1   6  648.54   31.50
   1  -1  -6  673.23   30.00
  -1  -1   6  679.33   32.60
   1   1  -6  664.43   29.70
  -1   1   6  638.94   32.00
   1   1  -6  664.33   30.60
  -1   1   6  603.24   30.90
   0  -1   6  359.66   23.80
   0  -1  -6  369.06   23.00
   0  -1  -6  355.06   22.60
   0  -1   6  340.57   22.90
   0   1   6  360.56   23.70
   0   1   6  377.56   24.40
   0   1  -6  362.36   22.50
   0   1  -6  367.16   22.80
  -1  -1  -6  745.33   35.90
  -1  -1  -6  782.22   35.00
   1  -1   6  722.13   35.90
   1  -1   6  719.33   35.90
   1   1   6  684.93   35.10
  -1   1  -6  801.62   36.30
   1   1   6  718.83   36.20
  -1   1  -6  737.13   34.50
  -2  -1  -6  130.79   17.90
   2  -1   6  150.58   20.00
  -2  -1  -6  147.99   17.20
   2  -1   6  142.19   20.10
  -2   1  -6  152.88   17.80
   2   1   6  126.99   18.10
   2   1   6  102.49   16.50
  -2   1  -6  123.29   17.00
  -3  -1  -6  196.28   21.20
   3  -1   6  187.68   20.70
   3  -1   6  189.58   20.20
  -3   1  -6  176.08   20.50
   3   1   6  212.88   23.30
   3   1   6  190.28   20.40
  -4  -1  -6  553.44   37.60
   4  -1   6  541.25   36.70
   4   1   6  535.75   35.70
  -4   1  -6  519.15   35.80
   5  -1   6   63.89   16.20
   5   1   6   66.99   17.40
   6  -1   6    4.80   15.20
   6   1   6   -4.50   13.10
  -7  -1  -6   92.49   21.90
  -7   1  -6   96.49   23.90
  -8  -1  -6   46.80   25.80
  -8   1  -6   40.30   21.60
 -11  -2   6   66.99   20.50
 -11  -2   6   49.40   19.60
 -11   2   6   41.60   18.40
 -11   2   6   43.90   21.50
 -10  -2   6  382.46   33.40
 -10  -2   6  375.56   33.70
 -10   2   6  377.96   33.20
 -10   2   6  327.87   33.60
  -9  -2   6  364.16   30.20
  -9  -2   6  401.56   32.60
  -9   2   6  408.56   31.90
  -9   2   6  451.75   34.30
  -8  -2   6   37.20   13.40
  -8  -2   6   40.80   13.50
  -8   2   6   32.30   12.10
  -8   2   6   37.10   14.30
  -7  -2   6 2214.88   75.19
  -7  -2   6 2142.69   71.49
  -7   2   6 2095.99   73.09
  -7   2   6 2127.59   73.19
   6  -2  -6  159.28   18.10
  -6  -2   6  134.79   18.60
  -6  -2   6  165.28   17.70
   6  -2  -6  123.19   18.90
  -6   2   6  158.98   18.80
   6   2  -6  156.18   17.20
  -6   2   6  166.58   17.80
   6   2  -6  165.38   19.70
  -5  -2   6   11.70    7.80
   5  -2  -6   14.30    8.70
  -5  -2   6   18.70    8.10
   5  -2  -6   -2.00    7.40
   5   2  -6    4.70    7.80
  -5   2   6   13.50    7.80
   5   2  -6   13.90    7.60
  -5   2   6    9.40    6.80
  -4  -2   6  969.20   39.00
   4  -2  -6  941.11   38.80
   4  -2  -6  944.41   38.80
  -4  -2   6  936.81   40.70
  -4   2   6  911.21   39.60
   4   2  -6  954.70   39.40
   4   2  -6  903.71   37.00
  -4   2   6  886.21   39.40
  -3  -2   6  507.05   26.60
  -3  -2   6  485.65   27.60
   3  -2  -6  478.85   25.70
   3  -2  -6  494.15   25.70
  -3   2   6  516.05   27.80
   3   2  -6  505.05   25.70
   3   2  -6  493.95   26.30
  -3   2   6  449.26   26.60
   2  -2  -6   70.89   11.20
  -2  -2   6   46.80    9.80
   2  -2  -6   48.20   10.10
  -2  -2   6   67.59   12.00
   2   2  -6   65.29   11.20
  -2   2   6   33.10    9.00
  -2   2   6   49.90   10.40
   2   2  -6   66.99   11.40
   1  -2  -6  844.32   35.30
  -1  -2   6  868.71   37.30
   1  -2  -6  913.11   37.50
  -1  -2   6  902.91   38.80
  -1   2   6  907.71   38.60
   1   2  -6  894.21   35.80
  -1   2   6  926.61   39.70
   1   2  -6  951.30   37.00
   0  -2  -6  533.55   27.30
   0  -2  -6  569.04   29.30
   0  -2   6  555.24   29.10
   0  -2   6  498.35   28.40
   0   2  -6  496.25   26.00
   0   2   6  474.55   27.90
   0   2   6  538.75   29.70
   0   2  -6  506.35   27.10
  -1  -2  -6   33.00   10.20
   1  -2   6   27.10    9.40
  -1  -2  -6   24.50    9.60
   1  -2   6   22.90    8.40
  -1   2  -6   32.70   10.10
   1   2   6   18.80    7.90
   1   2   6   20.40    8.60
  -1   2  -6   19.00    8.00
   2  -2   6  974.10   44.10
  -2  -2  -6  964.60   42.40
  -2  -2  -6  987.70   43.60
   2  -2   6  950.10   44.30
  -2   2  -6 1022.60   43.00
   2   2   6  946.71   43.80
   2   2   6  950.40   44.50
  -2   2  -6  951.50   42.90
  -3  -2  -6  944.01   44.10
   3  -2   6  977.00   45.80
   3  -2   6  888.71   43.90
   3   2   6  926.81   45.50
  -3   2  -6  855.01   41.90
   3   2   6  910.61   44.70
   4  -2   6  177.78   23.90
  -4  -2  -6  139.49   23.80
   4   2   6  170.68   23.80
  -4   2  -6  186.38   24.90
   5  -2   6  831.62   46.20
   5   2   6  793.22   45.80
   6  -2   6  540.75   42.10
   6   2   6  622.14   42.80
  -7  -2  -6   36.80   18.30
  -7   2  -6   23.00   18.30
  -8  -2  -6   -1.50   21.20
  -8   2  -6   14.60   20.10
 -11  -3   6  247.58   33.60
 -11  -3   6  225.98   30.20
 -11   3   6  227.38   32.00
 -11   3   6  183.58   27.30
 -10  -3   6    5.40   13.80
 -10  -3   6    5.50   13.20
 -10   3   6   -2.90   13.00
 -10   3   6   12.60   12.90
  -9  -3   6  871.91   47.80
  -9  -3   6  840.92   44.60
  -9   3   6  841.02   47.30
  -9   3   6  902.71   47.50
  -8  -3   6 1860.21   66.79
  -8  -3   6 1848.92   70.99
  -8   3   6 1827.32   69.29
  -8   3   6 1852.11   69.49
  -7  -3   6   82.59   14.60
  -7  -3   6   88.69   16.00
  -7   3   6  100.59   17.50
  -7   3   6  117.49   18.00
  -6  -3   6  919.61   43.30
   6  -3  -6  882.31   40.90
   6  -3  -6  900.71   48.80
  -6  -3   6  919.81   40.20
   6   3  -6  934.91   40.30
   6   3  -6  901.41   43.40
  -6   3   6  925.81   42.80
  -6   3   6 1000.40   43.90
   5  -3  -6 1636.74   56.99
  -5  -3   6 1672.13   59.19
  -5  -3   6 1591.04   54.89
   5  -3  -6 1687.63   57.79
   5   3  -6 1557.64   53.79
  -5   3   6 1636.34   58.09
  -5   3   6 1542.75   56.79
   5   3  -6 1581.74   57.39
   4  -3  -6  353.26   22.70
   4  -3  -6  365.46   23.10
  -4  -3   6  322.37   21.60
  -4  -3   6  400.46   25.50
   4   3  -6  408.06   22.60
  -4   3   6  347.47   23.40
  -4   3   6  349.96   23.30
   4   3  -6  350.56   24.20
   3  -3  -6 1086.39   41.10
  -3  -3   6 1009.80   40.00
  -3  -3   6 1027.40   42.50
   3  -3  -6 1039.60   39.60
   3   3  -6 1023.00   40.30
  -3   3   6 1018.30   42.20
   3   3  -6 1079.19   39.20
  -3   3   6 1054.79   42.50
  -2  -3   6 2899.91   83.19
   2  -3  -6 2909.81   79.09
   2  -3  -6 2739.43   79.59
  -2  -3   6 2831.72   80.49
   2   3  -6 2904.41   79.29
   2   3  -6 2958.10   78.59
  -2   3   6 2777.12   82.19
  -2   3   6 2909.81   83.69
  -1  -3   6  408.76   25.50
   1  -3  -6  416.86   24.80
   1  -3  -6  396.26   22.60
  -1  -3   6  416.06   24.30
  -1   3   6  429.06   25.60
   1   3  -6  445.26   23.90
   1   3  -6  441.16   23.70
  -1   3   6  400.46   25.00
   0  -3   6  473.35   27.70
   0  -3  -6  520.55   26.60
   0  -3   6  452.35   26.60
   0  -3  -6  464.25   26.30
   0   3  -6  517.35   26.30
   0   3  -6  483.25   26.60
   0   3   6  510.25   28.60
   0   3   6  453.95   27.70
   1  -3   6 2054.59   68.39
  -1  -3  -6 2171.58   67.49
   1  -3   6 2052.29   68.79
  -1  -3  -6 2092.39   67.49
   1   3   6 2071.89   69.79
   1   3   6 2187.98   70.69
  -1   3  -6 2127.39   67.59
  -1   3  -6 2100.99   65.69
  -2  -3  -6  373.46   26.40
  -2  -3  -6  392.16   26.20
   2  -3   6  391.96   26.80
   2  -3   6  449.46   28.40
  -2   3  -6  396.26   25.80
   2   3   6  385.26   26.90
  -2   3  -6  407.16   27.30
   2   3   6  423.66   28.80
   3  -3   6  366.76   27.30
  -3  -3  -6  387.66   28.10
  -3   3  -6  358.06   27.50
   3   3   6  373.16   28.60
   3   3   6  316.57   25.70
   4  -3   6 2205.88   78.59
  -4  -3  -6 2154.88   89.19
  -4   3  -6 2199.88   76.79
   4   3   6 2140.29   79.69
   5  -3   6  755.22   44.60
   5   3   6  730.03   45.20
  -5   3  -6  665.73   43.50
   6  -3   6   10.50   15.50
   6   3   6   37.10   16.60
  -7  -3  -6  437.86   43.70
  -7   3  -6  519.35   44.90
  -8  -3  -6  282.67   41.70
  -8   3  -6  255.27   37.60
 -11  -4   6   22.20   18.40
 -11  -4   6    7.50   17.10
 -11   4   6   10.80   19.90
 -11   4   6    2.40   14.90
 -10  -4   6   16.60   13.70
 -10  -4   6   23.40   15.80
 -10   4   6   21.60   14.40
 -10   4   6    0.60   15.30
  -9  -4   6   55.99   16.00
  -9  -4   6   69.39   18.80
  -9   4   6   42.60   15.40
  -9   4   6   66.29   17.70
  -8  -4   6   29.80   11.90
  -8  -4   6   61.09   15.30
  -8   4   6   59.29   14.20
  -8   4   6   38.80   14.60
  -7  -4   6   15.80    9.20
  -7  -4   6    6.70    8.50
  -7   4   6    7.10    8.30
  -7   4   6    5.80    9.70
   6  -4  -6   74.39   14.40
  -6  -4   6   59.29   11.10
  -6  -4   6   57.69   14.00
   6   4  -6   74.89   15.50
   6   4  -6   69.39   13.80
  -6   4   6   81.39   15.30
  -6   4   6   82.29   14.00
   5  -4  -6   51.39   12.00
   5  -4  -6   39.70   10.80
  -5  -4   6   35.20   10.60
  -5  -4   6   41.60   10.40
  -5   4   6   46.60   11.00
  -5   4   6   43.90   10.50
   5   4  -6   88.69   15.20
   5   4  -6   42.70    9.90
   4  -4  -6  191.58   16.80
  -4  -4   6  192.68   17.70
  -4  -4   6  181.78   15.70
   4  -4  -6  196.08   17.40
  -4   4   6  183.18   17.00
  -4   4   6  178.28   17.10
   4   4  -6  175.98   17.20
   4   4  -6  172.38   14.90
  -3  -4   6  182.88   15.80
   3  -4  -6  149.29   14.60
  -3  -4   6  229.08   18.60
   3  -4  -6  188.58   16.60
   3   4  -6  215.78   17.30
  -3   4   6  165.18   16.20
  -3   4   6  195.08   17.10
   3   4  -6  158.08   14.90
   2  -4  -6   26.40    8.30
  -2  -4   6   21.80    7.50
  -2  -4   6   30.80    8.50
   2  -4  -6   42.10    8.70
  -2   4   6   15.50    6.90
   2   4  -6   33.70    8.00
   2   4  -6   20.20    6.90
  -2   4   6   11.70    6.30
   1  -4  -6  246.58   19.20
  -1  -4   6  227.98   18.00
  -1  -4   6  232.08   19.00
   1  -4  -6  263.57   18.00
  -1   4   6  279.57   20.90
   1   4  -6  213.78   16.70
   1   4  -6  262.27   18.50
  -1   4   6  243.58   19.30
   0  -4  -6   46.50   10.30
   0  -4   6   54.39   10.80
   0  -4  -6   37.30    9.00
   0  -4   6   64.69   12.70
   0   4  -6   67.59   11.60
   0   4   6   66.49   12.90
   0   4   6   57.19   11.80
   0   4  -6   64.19   12.10
   1  -4   6   26.70    9.50
  -1  -4  -6   13.30    8.80
   1  -4   6   30.20    8.90
  -1  -4  -6   31.10    9.70
  -1   4  -6   22.40    9.80
  -1   4  -6   34.90    9.90
   1   4   6   26.60   10.30
   1   4   6   23.20    9.90
   2  -4   6   44.30   11.90
   2  -4   6   31.30   11.00
  -2  -4  -6   62.49   12.80
  -2  -4  -6   51.69   12.90
   2   4   6   40.80   11.30
  -2   4  -6   55.29   12.20
  -2   4  -6   43.90   11.30
   2   4   6   50.09   12.50
   3  -4   6   -6.90    7.80
  -3  -4  -6    3.20   10.60
   3   4   6    0.00    7.80
  -3   4  -6    8.40    9.30
   3   4   6  -11.40    7.70
   4  -4   6    8.80   11.50
  -4   4  -6   -3.10   11.00
   4   4   6   26.20   12.30
   5  -4   6    5.60   13.20
   5   4   6   71.39   17.10
  -5   4  -6   40.10   16.70
   6  -4   6   21.70   17.00
   6   4   6   29.90   15.10
  -7  -4  -6   22.60   21.40
  -7   4  -6  -13.20   16.90
  -8  -4  -6  -14.60   21.20
  -8   4  -6   -8.20   21.40
 -11  -5   6  206.78   28.90
 -11  -5   6  157.48   26.90
 -11   5   6  185.18   28.20
 -11   5   6  213.08   31.90
 -10  -5   6   12.90   13.70
 -10  -5   6   18.60   14.60
 -10   5   6    8.40   16.00
 -10   5   6    3.60   13.10
  -9  -5   6  459.35   32.20
  -9  -5   6  439.36   34.50
  -9   5   6  468.45   33.10
  -9   5   6  430.96   34.10
  -8  -5   6  797.72   43.40
  -8  -5   6  747.53   38.90
  -8   5   6  805.82   43.30
  -8   5   6  728.43   40.40
  -7  -5   6   18.60   10.00
  -7  -5   6    8.40    8.20
  -7   5   6   27.50   11.00
  -7   5   6   -4.70    7.30
  -6  -5   6  415.76   28.90
   6  -5  -6  443.96   28.40
  -6  -5   6  386.66   24.90
  -6   5   6  413.76   27.70
   6   5  -6  413.36   29.10
   6   5  -6  394.16   25.60
  -6   5   6  407.46   28.10
   5  -5  -6 1336.87   50.49
  -5  -5   6 1349.47   52.29
  -5  -5   6 1335.17   47.70
   5  -5  -6 1385.56   51.59
   5   5  -6 1213.58   49.90
  -5   5   6 1326.57   52.19
  -5   5   6 1377.46   51.89
   5   5  -6 1390.56   48.10
  -4  -5   6   80.49   12.40
  -4  -5   6  110.99   15.90
   4  -5  -6  131.09   15.00
   4  -5  -6  104.19   14.30
   4   5  -6  117.59   13.10
   4   5  -6  111.79   16.70
  -4   5   6  136.89   15.40
  -4   5   6  115.99   16.80
   3  -5  -6 1037.40   39.90
  -3  -5   6 1040.80   42.80
   3  -5  -6 1100.59   42.50
  -3  -5   6 1024.50   39.80
  -3   5   6 1060.69   43.40
   3   5  -6 1098.79   41.60
   3   5  -6 1085.49   38.80
  -3   5   6 1020.90   42.20
  -2  -5   6 1935.31   63.59
   2  -5  -6 2003.20   62.89
  -2  -5   6 2026.70   61.99
   2  -5  -6 1943.61   59.99
   2   5  -6 2033.50   59.99
   2   5  -6 2056.89   61.39
  -2   5   6 1951.10   64.59
  -2   5   6 2076.49   65.29
   1  -5  -6  537.65   26.30
  -1  -5   6  507.45   27.00
  -1  -5   6  468.35   27.10
   1  -5  -6  502.15   26.80
  -1   5   6  497.75   28.30
   1   5  -6  517.55   26.20
   1   5  -6  487.05   25.00
  -1   5   6  494.65   28.10
   0  -5  -6  271.37   19.40
   0  -5  -6  275.67   20.20
   0  -5   6  287.87   21.00
   0  -5   6  292.87   20.80
   0   5  -6  292.87   20.10
   0   5   6  324.37   22.70
   0   5  -6  291.87   20.70
   0   5   6  285.47   22.10
  -1  -5  -6 1498.75   54.99
   1  -5   6 1529.35   55.89
  -1  -5  -6 1508.05   53.79
   1  -5   6 1516.15   55.69
   1   5   6 1489.35   56.19
  -1   5  -6 1528.95   54.49
   1   5   6 1494.95   56.69
  -1   5  -6 1519.05   51.99
   2  -5   6  397.06   27.30
  -2  -5  -6  420.16   27.70
  -2  -5  -6  532.55   31.50
   2  -5   6  432.16   28.20
  -2   5  -6  432.46   27.20
   2   5   6  415.96   29.00
  -2   5  -6  405.76   27.40
   2   5   6  460.35   30.30
  -3  -5  -6  224.38   26.10
   3  -5   6  268.97   23.80
  -3   5  -6  239.18   23.20
   3   5   6  206.78   22.20
   3   5   6  202.68   20.90
   4  -5   6 1483.65   60.99
   4   5   6 1433.76   60.49
   4   5   6 1364.56   60.79
  -4   5  -6 1415.06   58.39
   5  -5   6  471.15   35.60
  -5   5  -6  422.06   35.70
   5   5   6  432.46   35.50
   6  -5   6   10.00   14.50
   6   5   6   14.50   15.00
  -7  -5  -6  437.86   44.20
  -7   5  -6  440.16   40.50
 -11  -6   6  161.48   29.40
 -11  -6   6  134.09   25.60
 -11   6   6  139.19   25.10
 -11   6   6  126.49   28.00
 -10  -6   6  527.55   36.70
 -10  -6   6  535.05   41.80
 -10   6   6  545.65   42.20
 -10   6   6  543.85   38.60
  -9  -6   6  113.19   18.80
  -9  -6   6  143.09   23.00
  -9   6   6  104.39   22.80
  -9   6   6  112.69   20.20
  -8  -6   6  206.78   24.70
  -8  -6   6  228.58   22.20
  -8   6   6  259.47   25.60
  -8   6   6  245.28   24.10
  -7  -6   6 1386.26   52.99
  -7  -6   6 1423.26   58.29
  -7   6   6 1490.75   60.09
  -7   6   6 1470.85   57.09
  -6  -6   6  450.85   29.00
  -6  -6   6  443.66   25.70
   6  -6  -6  418.26   28.40
  -6   6   6  409.86   28.40
   6   6  -6  462.95   31.50
  -6   6   6  394.56   27.00
   6   6  -6  458.85   26.80
   5  -6  -6   67.69   14.20
  -5  -6   6   77.19   11.80
  -5  -6   6   55.39   12.30
   5  -6  -6   79.49   13.30
   5   6  -6   60.29   12.60
  -5   6   6   66.69   13.30
   5   6  -6   53.09   11.20
  -5   6   6   61.89   12.70
  -4  -6   6 2392.66   74.19
  -4  -6   6 2257.77   67.89
   4  -6  -6 2376.56   72.19
   4  -6  -6 2242.08   69.49
   4   6  -6 2346.17   67.19
   4   6  -6 2366.26   72.29
  -4   6   6 2396.16   73.59
  -4   6   6 2418.46   75.39
  -3  -6   6 1605.04   56.49
  -3  -6   6 1581.64   52.79
   3  -6  -6 1662.23   53.79
   3  -6  -6 1690.53   56.29
  -3   6   6 1639.44   56.59
   3   6  -6 1781.22   56.29
  -3   6   6 1601.54   57.29
   3   6  -6 1687.03   52.09
   2  -6  -6   54.89    9.70
   2  -6  -6   46.70   10.30
  -2  -6   6   40.70    9.40
  -2  -6   6   50.19    9.80
  -2   6   6   66.49   11.40
  -2   6   6   43.10   10.70
   2   6  -6   39.40    8.70
   2   6  -6   39.40    9.10
  -1  -6   6 1648.54   54.49
   1  -6  -6 1595.34   52.59
   1  -6  -6 1691.93   55.59
  -1  -6   6 1687.73   56.49
  -1   6   6 1567.44   55.89
   1   6  -6 1623.94   52.19
   1   6  -6 1617.54   52.39
  -1   6   6 1516.25   55.69
   0  -6   6  875.41   38.10
   0  -6  -6  877.51   38.40
   0  -6   6  890.81   38.70
   0  -6  -6  855.21   36.60
   0   6  -6  936.91   37.70
   0   6   6  916.11   40.20
   0   6   6  856.71   39.80
   0   6  -6  892.61   36.30
  -1  -6  -6  131.09   17.30
   1  -6   6  153.68   16.50
   1  -6   6  135.49   15.50
  -1  -6  -6  178.18   18.00
  -1   6  -6  165.88   15.60
  -1   6  -6  129.49   15.30
   1   6   6  119.89   16.90
   1   6   6  166.68   17.80
  -2  -6  -6 1340.17   52.49
   2  -6   6 1249.28   51.79
   2  -6   6 1385.86   53.99
  -2  -6  -6 1345.77   52.19
   2   6   6 1321.47   53.59
  -2   6  -6 1253.47   51.09
   2   6   6 1366.46   55.09
  -2   6  -6 1272.77   48.90
   3  -6   6  787.82   41.00
  -3  -6  -6  817.72   41.30
   3   6   6  816.42   41.90
   3   6   6  755.02   41.70
  -3   6  -6  845.32   39.70
   4  -6   6  -15.40    9.40
   4   6   6   16.70   12.00
   4   6   6   10.20   10.80
  -4   6  -6    7.40   12.00
   5  -6   6  652.03   41.20
  -5   6  -6  594.94   40.50
   5   6   6  557.44   38.90
   6  -6   6  838.32   50.59
   6   6   6  886.71   51.89
  -7  -6  -6  147.39   28.20
  -7   6  -6   79.89   25.20
 -11  -7   6    1.10   17.40
 -11  -7   6  -10.90   19.10
 -11   7   6    6.00   17.30
 -11   7   6   -8.00   18.00
 -10  -7   6   20.60   15.30
 -10  -7   6   23.20   16.00
 -10   7   6   23.80   13.60
 -10   7   6   71.09   19.00
  -9  -7   6    8.20   11.70
  -9  -7   6   18.00   11.00
  -9   7   6   10.60   12.00
  -9   7   6    4.60   13.80
  -8  -7   6  -18.50    8.90
  -8  -7   6   12.70   10.20
  -8   7   6    0.20   11.00
  -8   7   6    0.40    8.90
  -7  -7   6   23.80    9.70
  -7  -7   6   17.20    9.30
  -7   7   6   20.20   10.80
  -7   7   6   22.90   11.20
  -6  -7   6   29.50   10.00
   6  -7  -6    6.50   10.20
  -6  -7   6   22.70    9.20
  -6   7   6   21.60    8.70
  -6   7   6   29.10   10.70
   6   7  -6   15.50   11.80
   6   7  -6   18.70    9.30
   5  -7  -6  175.88   18.50
  -5  -7   6  207.28   19.20
  -5  -7   6  205.18   17.00
   5  -7  -6  197.98   19.10
   5   7  -6  218.58   17.70
  -5   7   6  219.08   20.10
   5   7  -6  181.98   20.50
  -5   7   6  198.08   18.90
   4  -7  -6   57.69   10.90
  -4  -7   6   66.29   11.60
  -4  -7   6   80.79   14.20
   4  -7  -6   76.89   13.20
  -4   7   6   90.09   14.70
  -4   7   6   68.79   12.50
   4   7  -6   62.99   12.50
   4   7  -6   50.39   10.00
  -3  -7   6   26.20    7.80
  -3  -7   6   46.60   10.50
   3  -7  -6   25.40    8.00
   3  -7  -6   14.00    8.00
  -3   7   6   22.90    7.70
  -3   7   6   24.50    8.60
   3   7  -6   19.80    8.10
   3   7  -6   27.70    7.70
  -2  -7   6    2.50    5.40
   2  -7  -6    3.40    6.10
   2  -7  -6    2.70    5.20
  -2  -7   6   -0.90    4.30
   2   7  -6    3.90    5.40
   2   7  -6   13.10    5.70
  -2   7   6   -1.50    4.80
  -2   7   6    2.60    6.20
   1  -7  -6   61.99   11.70
  -1  -7   6   31.00    8.60
  -1  -7   6   51.79   10.30
   1  -7  -6   54.49   10.30
   1   7  -6   65.89   11.30
   1   7  -6   51.69   10.70
  -1   7   6   63.29   12.00
  -1   7   6   63.89   12.10
   0  -7   6    7.50    6.50
   0  -7  -6   21.00    8.80
   0  -7   6    7.20    6.40
   0  -7  -6   20.50    7.40
   0   7  -6    4.20    6.80
   0   7  -6    9.20    6.10
   0   7   6   28.40    8.60
   0   7   6   17.00    8.30
   1  -7   6   14.50    7.90
  -1  -7  -6   -4.00    7.20
   1  -7   6    3.20    6.60
  -1  -7  -6   -5.60    6.40
  -1   7  -6   -8.20    5.70
   1   7   6    1.90    5.80
   1   7   6   -1.40    6.20
  -1   7  -6    7.90    8.00
   2  -7   6   52.69   13.00
   2  -7   6   34.20   10.50
  -2  -7  -6   55.29   14.30
  -2  -7  -6   41.50   12.20
   2   7   6   39.10   10.60
  -2   7  -6   49.20   12.70
  -2   7  -6   36.40   10.60
   2   7   6   48.40   13.60
  -3  -7  -6  -20.10    9.90
   3  -7   6   -3.10    7.70
   3   7   6    6.70    8.70
  -3   7  -6  -10.90    7.80
   3   7   6    3.50    8.20
   4  -7   6    2.90   11.00
   4   7   6   11.50   11.40
  -4   7  -6   19.50   13.10
   4   7   6   28.80   11.20
   5  -7   6    7.20   11.00
   5   7   6    1.30   11.10
  -5   7  -6   14.40   15.60
   6  -7   6    5.70   13.20
   6   7   6    0.00   14.70
  -7  -7  -6   62.49   23.70
  -7   7  -6   56.99   20.60
 -11  -8   6  241.68   32.90
 -11  -8   6  264.47   30.70
 -11   8   6  267.87   35.40
 -11   8   6  331.57   32.30
 -10  -8   6  788.12   43.50
 -10  -8   6  799.02   50.39
 -10   8   6  847.22   50.89
 -10   8   6  804.02   47.50
  -9  -8   6  163.98   25.90
  -9  -8   6  153.28   21.40
  -9   8   6  160.88   25.20
  -9   8   6  147.59   22.60
  -8  -8   6  127.19   21.70
  -8  -8   6  109.59   16.50
  -8   8   6  117.19   20.10
  -8   8   6   63.39   17.50
  -7  -8   6 1296.07   49.20
  -7  -8   6 1279.57   55.09
  -7   8   6 1270.37   52.29
  -7   8   6 1349.36   56.89
   6  -8  -6  756.92   46.60
  -6  -8   6  763.62   34.50
  -6  -8   6  822.12   40.40
  -6   8   6  784.02   37.80
   6   8  -6  800.32   41.00
  -6   8   6  769.72   40.40
   6   8  -6  766.32   34.60
  -5  -8   6   44.30    9.70
   5  -8  -6   35.60   11.60
   5  -8  -6   49.80   11.40
  -5  -8   6   43.90   11.40
  -5   8   6   70.59   13.30
  -5   8   6   60.09   13.00
   5   8  -6   69.99   11.80
   5   8  -6   75.89   14.30
   4  -8  -6 1648.83   59.09
   4  -8  -6 1678.23   56.69
  -4  -8   6 1720.93   60.39
  -4  -8   6 1856.41   56.19
   4   8  -6 1848.92   60.99
   4   8  -6 1840.72   54.79
  -4   8   6 1831.52   63.49
  -4   8   6 1770.82   60.39
   3  -8  -6  640.34   32.20
  -3  -8   6  618.34   28.80
   3  -8  -6  747.03   32.10
  -3  -8   6  675.03   33.20
  -3   8   6  658.53   33.90
  -3   8   6  637.24   32.40
   3   8  -6  677.43   28.70
   3   8  -6  698.73   32.30
  -2  -8   6  234.28   17.20
  -2  -8   6  279.07   19.90
   2  -8  -6  236.58   19.70
   2  -8  -6  240.88   17.40
  -2   8   6  198.48   18.30
   2   8  -6  254.97   17.40
   2   8  -6  228.58   18.00
  -2   8   6  278.87   20.50
   1  -8  -6 1877.71   58.59
  -1  -8   6 1901.01   61.39
  -1  -8   6 1741.33   58.19
   1  -8  -6 1964.40   61.29
  -1   8   6 1844.32   62.49
   1   8  -6 1824.42   56.99
   1   8  -6 1847.12   56.89
  -1   8   6 1886.21   63.69
   0  -8   6 1407.76   50.59
   0  -8  -6 1390.26   49.40
   0  -8   6 1341.57   50.39
   0  -8  -6 1464.55   52.09
   0   8   6 1399.76   53.19
   0   8  -6 1404.06   47.50
   0   8   6 1434.16   53.49
   0   8  -6 1314.37   48.20
   1  -8   6    2.00    6.10
  -1  -8  -6   20.80    9.40
   1  -8   6    0.20    7.00
  -1  -8  -6   -2.80    7.30
   1   8   6    5.10    7.10
   1   8   6   13.90    7.80
  -1   8  -6    9.80    8.50
  -1   8  -6   24.90    8.40
   2  -8   6 1871.11   66.39
   2  -8   6 1846.82   65.59
  -2  -8  -6 1939.41   66.39
  -2  -8  -6 1883.51   65.69
   2   8   6 1938.61   69.59
  -2   8  -6 2018.70   63.59
   2   8   6 1857.51   67.69
  -2   8  -6 1902.31   66.29
  -3  -8  -6 1367.56   78.39
   3  -8   6 1153.88   50.49
  -3   8  -6 1173.28   48.70
   3   8   6 1127.29   51.69
   3   8   6 1223.78   54.19
   4  -8   6  172.28   24.50
   4   8   6  153.28   21.90
   4   8   6  156.08   23.70
  -4   8  -6  149.59   20.20
   5  -8   6  377.96   30.60
  -5   8  -6  418.36   34.20
   5   8   6  371.16   34.40
   6  -8   6  764.92   47.50
   6   8   6  801.62   49.50
  -7  -8  -6  212.38   36.00
  -7   8  -6  223.58   32.70
 -10  -9   6   37.50   17.60
 -10  -9   6   22.30   15.30
 -10   9   6   54.49   18.80
 -10   9   6   67.79   19.50
  -9  -9   6  318.77   27.70
  -9  -9   6  346.87   31.10
  -9   9   6  321.47   33.10
  -9   9   6  409.06   31.50
  -8  -9   6  487.85   35.10
  -8  -9   6  556.54   31.40
  -8   9   6  537.95   34.40
  -8   9   6  510.45   36.70
  -7  -9   6    1.50    8.90
  -7  -9   6    1.30    7.50
  -7   9   6    5.30    7.60
  -7   9   6    5.20    9.20
  -6  -9   6  329.27   22.00
  -6  -9   6  356.86   26.50
  -6   9   6  402.06   29.50
  -6   9   6  360.56   25.00
   6   9  -6  332.07   29.20
  -5  -9   6  316.17   20.50
  -5  -9   6  374.86   25.70
   5  -9  -6  387.36   25.80
   5  -9  -6  356.46   25.70
  -5   9   6  334.67   23.80
   5   9  -6  329.27   21.30
   5   9  -6  349.27   25.50
  -5   9   6  371.76   27.20
  -4  -9   6   87.89   14.00
  -4  -9   6   65.79   10.60
   4  -9  -6   71.59   12.50
   4  -9  -6   61.59   12.80
   4   9  -6   79.69   14.20
  -4   9   6   60.99   11.30
  -4   9   6   51.19   11.60
   4   9  -6   85.19   12.10
   3  -9  -6  966.00   40.40
  -3  -9   6  843.02   38.10
   3  -9  -6  950.80   37.40
  -3  -9   6  914.51   35.40
  -3   9   6  850.71   40.30
   3   9  -6  923.91   34.40
  -3   9   6  957.40   40.00
   3   9  -6  954.20   38.80
   2  -9  -6 1590.84   53.99
  -2  -9   6 1606.84   54.39
   2  -9  -6 1528.55   50.39
  -2  -9   6 1500.75   49.99
   2   9  -6 1549.54   50.99
  -2   9   6 1442.96   54.69
   2   9  -6 1550.04   48.70
  -2   9   6 1416.86   52.89
  -1  -9   6   33.00    8.60
  -1  -9   6   39.70    9.90
   1  -9  -6   39.80    9.90
   1  -9  -6   35.90    9.60
   1   9  -6   44.50   10.10
   1   9  -6   40.20    8.80
  -1   9   6   41.10   10.10
  -1   9   6   48.10   11.00
   0  -9  -6  676.43   33.50
   0  -9   6  652.23   32.40
   0  -9   6  620.24   31.70
   0  -9  -6  737.03   33.50
   0   9   6  725.03   35.70
   0   9  -6  690.13   31.70
   0   9  -6  686.93   30.80
   0   9   6  669.73   34.50
  -1  -9  -6  516.75   29.30
  -1  -9  -6  504.85   29.50
   1  -9   6  480.35   28.80
   1  -9   6  549.65   30.40
  -1   9  -6  466.75   26.40
   1   9   6  512.55   30.40
  -1   9  -6  504.95   28.40
   1   9   6  489.45   29.80
   2  -9   6    9.10    8.00
  -2  -9  -6   17.80   10.70
  -2  -9  -6   16.80   10.30
   2   9   6    6.70    8.60
  -2   9  -6    4.60    9.50
   2   9   6   24.10   10.80
  -2   9  -6   19.00    9.10
   3  -9   6  119.29   18.30
   3   9   6  114.19   19.10
  -3   9  -6  128.39   18.40
   3   9   6  150.88   21.60
   4  -9   6  883.01   45.80
   4   9   6  910.21   47.00
  -4   9  -6  983.30   45.30
   4   9   6  929.81   49.10
   5  -9   6  585.14   38.30
   5   9   6  598.24   41.90
  -5   9  -6  583.04   39.40
   6  -9   6   20.70   15.10
  -6   9  -6    7.40   18.70
   6   9   6  -11.80   13.80
  -7  -9  -6  346.57   40.00
  -7   9  -6  359.26   36.20
 -10 -10   6  107.49   22.60
 -10 -10   6  108.19   20.10
 -10  10   6  102.59   24.30
 -10  10   6  153.08   25.30
  -9 -10   6   15.60   11.70
  -9 -10   6   21.40   13.60
  -9  10   6   13.90   12.00
  -9  10   6   22.50   16.60
  -8 -10   6   15.40   11.50
  -8 -10   6   10.60    9.70
  -8  10   6   10.80   10.10
  -8  10   6   17.20   13.60
  -7 -10   6   33.60   10.30
  -7 -10   6   26.50   10.90
  -7  10   6   28.30    9.80
  -7  10   6   32.70   12.90
  -6 -10   6  165.78   19.00
  -6 -10   6  178.18   16.60
   6  10  -6  145.09   20.90
  -6  10   6  195.58   18.80
  -6  10   6  155.98   21.30
   5 -10  -6  215.58   20.10
  -5 -10   6  236.68   17.20
   5 -10  -6  237.08   21.90
  -5 -10   6  236.88   20.90
  -5  10   6  244.28   21.90
   5  10  -6  241.78   18.00
   5  10  -6  278.97   24.10
  -5  10   6  238.68   19.80
   4 -10  -6   46.50   12.60
  -4 -10   6   56.59   12.10
   4 -10  -6   46.30   10.20
  -4 -10   6   41.40    9.10
  -4  10   6   52.99   13.10
   4  10  -6   53.39   12.30
   4  10  -6   45.80    9.50
  -4  10   6   63.39   11.70
  -3 -10   6   54.19    9.80
   3 -10  -6   37.20    9.70
   3 -10  -6   49.10   10.20
  -3 -10   6   52.59   10.80
   3  10  -6   57.19    9.90
  -3  10   6   45.20   11.00
   3  10  -6   45.10   10.30
  -3  10   6   55.99   11.20
  -2 -10   6  119.59   13.30
   2 -10  -6  182.48   15.30
   2 -10  -6  163.48   16.80
  -2 -10   6  171.08   16.00
   2  10  -6  198.48   15.80
  -2  10   6  155.98   16.30
  -2  10   6  165.08   17.10
   2  10  -6  187.38   14.90
   1 -10  -6  452.55   26.90
  -1 -10   6  459.75   26.40
   1 -10  -6  502.25   25.90
  -1 -10   6  445.46   24.70
  -1  10   6  436.86   26.80
  -1  10   6  413.46   26.80
   1  10  -6  454.05   24.10
   1  10  -6  466.25   24.50
   0 -10  -6  482.65   28.00
   0 -10   6  548.55   29.00
   0 -10   6  512.55   28.10
   0 -10  -6  530.25   28.10
   0  10  -6  499.15   25.40
   0  10   6  523.15   30.20
   0  10   6  512.25   30.20
   0  10  -6  513.35   27.50
   1 -10   6  189.08   18.60
   1 -10   6  175.68   17.50
  -1 -10  -6  179.08   18.00
  -1 -10  -6  198.68   19.20
  -1  10  -6  209.58   19.90
  -1  10  -6  199.48   16.80
   1  10   6  167.98   18.80
   1  10   6  176.08   19.40
   2 -10   6  348.47   25.30
  -2 -10  -6  321.97   24.80
  -2 -10  -6  309.97   24.80
  -2  10  -6  301.27   22.40
  -2  10  -6  332.67   25.50
   2  10   6  337.97   27.10
   2  10   6  318.77   25.40
   3 -10   6  125.09   18.70
   3  10   6  103.09   17.70
  -3  10  -6  124.69   17.80
   3  10   6  102.99   18.40
   4 -10   6   -1.10   10.50
   4  10   6   15.00   11.10
  -4  10  -6   25.10   12.90
   4  10   6    3.00   10.90
   5 -10   6   -2.80   11.60
  -5  10  -6   22.10   14.30
   5  10   6   37.70   14.90
   6 -10   6  111.69   21.50
  -6  10  -6   98.49   24.80
   6  10   6   94.09   21.90
  -7 -10  -6   55.29   23.40
  -7  10  -6   10.70   17.90
 -10 -11   6    4.90   15.60
 -10 -11   6    7.10   13.50
 -10  11   6   19.00   18.40
 -10  11   6    9.70   12.60
  -9 -11   6  541.65   40.50
  -9 -11   6  590.64   34.40
  -9  11   6  572.84   37.00
  -9  11   6  587.44   42.60
  -8 -11   6  857.11   38.80
  -8 -11   6  812.72   45.80
  -8  11   6  835.72   47.60
  -8  11   6  756.12   40.60
  -7 -11   6    5.50    8.00
  -7 -11   6   -1.70    9.10
  -7  11   6    8.00   10.70
  -7  11   6   -4.00    6.70
  -6 -11   6 1167.78   50.19
  -6 -11   6 1151.58   41.90
   6  11  -6 1099.29   50.29
  -6  11   6 1115.79   51.09
  -6  11   6 1105.89   46.60
  -5 -11   6 1828.22   55.39
  -5 -11   6 1922.71   64.99
   5 -11  -6 1748.23   63.59
   5 -11  -6 1745.63   59.69
  -5  11   6 1823.92   66.69
   5  11  -6 1788.62   54.89
  -5  11   6 1800.62   61.59
   5  11  -6 1803.82   63.79
   4 -11  -6    7.50    6.80
  -4 -11   6    8.30    6.90
  -4 -11   6   14.30    6.00
   4 -11  -6    5.60    8.20
   4  11  -6   15.00    9.20
   4  11  -6    2.00    6.30
  -4  11   6   16.20    7.40
  -4  11   6   23.90    8.90
  -3 -11   6 1317.87   49.50
   3 -11  -6 1330.47   50.59
   3 -11  -6 1364.36   46.80
  -3 -11   6 1369.96   45.10
  -3  11   6 1264.67   51.99
   3  11  -6 1333.27   48.10
   3  11  -6 1360.46   43.50
  -3  11   6 1309.57   49.40
  -2 -11   6 2043.10   64.99
   2 -11  -6 1992.70   64.89
   2 -11  -6 1997.60   61.19
  -2 -11   6 2060.59   60.99
  -2  11   6 2043.50   68.39
   2  11  -6 2072.89   62.69
   2  11  -6 2026.50   58.69
  -2  11   6 1984.40   65.19
   1 -11  -6  246.08   19.70
   1 -11  -6  259.27   19.40
  -1 -11   6  246.48   19.50
  -1 -11   6  222.88   17.60
   1  11  -6  269.77   18.40
   1  11  -6  253.77   18.40
  -1  11   6  282.67   22.30
  -1  11   6  217.38   18.80
   0 -11   6  891.71   38.70
   0 -11  -6  895.91   38.40
   0 -11   6  898.31   38.20
   0 -11  -6  928.81   40.50
   0  11   6  912.21   41.20
   0  11  -6  960.40   38.10
   0  11  -6  902.11   36.10
   0  11   6  871.51   41.00
  -1 -11  -6 2371.56   73.99
  -1 -11  -6 2316.97   73.19
   1 -11   6 2276.67   72.69
   1 -11   6 2347.77   73.69
  -1  11  -6 2277.07   71.59
   1  11   6 2242.88   76.19
  -1  11  -6 2333.77   69.09
   1  11   6 2376.16   76.79
  -2 -11  -6  106.09   16.90
   2 -11   6  150.48   17.40
  -2 -11  -6  116.49   17.70
   2  11   6  135.39   20.10
   2  11   6  137.39   19.30
  -2  11  -6  146.99   15.30
  -2  11  -6  177.78   22.30
   3 -11   6  592.54   34.90
   3  11   6  541.55   35.10
  -3  11  -6  549.95   31.00
   3  11   6  574.54   37.10
   4 -11   6 1746.13   67.29
   4  11   6 1912.81   71.89
  -4  11  -6 1679.63   63.89
   4  11   6 1818.52   72.19
   5 -11   6  653.13   39.30
   5  11   6  564.64   40.30
  -5  11  -6  598.04   38.90
   6 -11   6   28.20   15.60
   6  11   6   66.19   19.10
  -6  11  -6   33.10   20.30
  -7 -11  -6  425.76   41.60
  -7  11  -6  390.46   38.70
 -10 -12   6  132.69   26.80
 -10 -12   6  113.09   20.00
 -10  12   6  112.19   21.80
 -10  12   6  190.28   31.10
  -9 -12   6   82.39   19.30
  -9 -12   6   69.89   15.50
  -9  12   6   63.19   18.90
  -9  12   6   44.50   13.30
  -8 -12   6  177.58   25.20
  -8 -12   6  161.68   18.50
  -8  12   6  171.08   26.00
  -8  12   6  202.28   20.60
  -7 -12   6  341.47   22.60
  -7 -12   6  301.67   26.30
  -7  12   6  325.77   25.30
  -7  12   6  373.56   30.10
  -6 -12   6  201.28   20.20
  -6 -12   6  152.58   15.00
   6  12  -6  138.19   21.00
  -6  12   6  145.59   21.00
  -6  12   6  151.48   18.20
   5 -12  -6  110.89   15.30
  -5 -12   6   90.89   12.30
   5 -12  -6   96.89   18.40
  -5 -12   6  131.09   18.00
  -5  12   6  103.29   17.40
   5  12  -6  111.49   12.90
  -5  12   6  140.19   16.30
   5  12  -6  110.29   17.70
  -4 -12   6  674.23   34.10
   4 -12  -6  703.23   32.70
   4 -12  -6  670.43   34.70
  -4 -12   6  678.03   28.80
  -4  12   6  708.13   38.20
   4  12  -6  718.73   28.90
  -4  12   6  700.33   33.90
   4  12  -6  732.53   35.40
   3 -12  -6  463.55   25.20
  -3 -12   6  446.46   27.20
   3 -12  -6  505.35   29.10
  -3 -12   6  492.95   24.00
   3  12  -6  451.45   26.50
   3  12  -6  492.05   23.20
  -3  12   6  444.66   29.00
  -3  12   6  486.15   27.80
   2 -12  -6   39.20    8.60
  -2 -12   6   37.90    9.10
   2 -12  -6   20.30    8.40
  -2 -12   6   19.80    6.80
   2  12  -6   22.00    7.70
  -2  12   6   33.40    9.90
  -2  12   6   45.90   10.60
   2  12  -6   19.10    7.10
   1 -12  -6  707.93   34.40
   1 -12  -6  732.43   32.60
  -1 -12   6  720.63   32.30
  -1 -12   6  713.33   33.50
  -1  12   6  765.82   37.70
   1  12  -6  780.22   32.00
  -1  12   6  730.63   35.40
   1  12  -6  723.73   31.40
   0 -12  -6  492.65   28.70
   0 -12   6  541.55   28.30
   0 -12   6  499.55   27.10
   0 -12  -6  528.45   28.00
   0  12  -6  517.25   27.50
   0  12   6  461.75   28.90
   0  12   6  482.55   29.60
   0  12  -6  490.75   25.60
   1 -12   6   18.30    8.90
  -1 -12  -6   12.90    9.40
  -1 -12  -6   19.10   10.50
   1 -12   6   11.60    7.10
   1  12   6   25.10   10.10
  -1  12  -6   23.30    9.40
  -1  12  -6   44.00   10.10
   1  12   6   38.90   10.60
  -2 -12  -6   20.30   10.30
  -2 -12  -6   15.50   12.50
   2 -12   6    5.00    7.70
   2  12   6   -0.80    9.40
   2  12   6    2.40    7.70
  -2  12  -6    5.90    9.50
  -2  12  -6    2.00    7.50
   3 -12   6  388.16   28.40
   3  12   6  349.57   28.70
   3  12   6  439.86   31.70
  -3  12  -6  408.36   27.40
   4 -12   6   -0.90   10.60
   4  12   6    3.60   10.90
  -4  12  -6   -4.30   11.20
   4  12   6   -3.60   10.80
   5 -12   6  267.27   27.50
   5  12   6  267.17   28.80
  -5  12  -6  250.37   28.40
   6 -12   6  192.28   26.90
   6  12   6  210.98   30.20
  -6  12  -6  175.08   28.20
  -7 -12  -6  -17.70   19.70
  -7  12  -6    7.10   18.10
 -10 -13   6    8.90   14.40
 -10 -13   6    6.60   17.80
 -10  13   6   31.90   16.20
 -10  13   6   13.50   16.90
  -9 -13   6  120.09   22.10
  -9 -13   6  163.38   21.40
  -9  13   6  122.79   19.50
  -9  13   6  128.19   23.50
  -8 -13   6  246.38   20.70
  -8 -13   6  206.88   24.40
  -8  13   6  242.78   26.20
  -8  13   6  183.28   21.60
  -7 -13   6   13.90    7.80
  -7 -13   6    4.80    9.30
  -7  13   6    9.80    9.30
  -7  13   6   20.00   11.90
  -6 -13   6  121.19   14.60
  -6 -13   6  121.29   18.30
  -6  13   6  110.39   16.10
  -6  13   6  110.19   18.40
   6  13  -6  132.49   21.50
  -5 -13   6  258.37   21.70
   5 -13  -6  228.68   22.40
  -5 -13   6  270.67   17.80
  -5  13   6  240.28   23.70
   5  13  -6  244.88   17.20
  -5  13   6  237.88   20.40
   5  13  -6  228.48   23.30
   4 -13  -6   85.19   14.10
   4 -13  -6   75.59   14.10
  -4 -13   6   67.79   10.00
  -4 -13   6   89.69   14.90
  -4  13   6   65.89   13.70
   4  13  -6   84.89   15.30
   4  13  -6   68.59   10.30
  -4  13   6   65.89   11.80
   3 -13  -6  422.96   23.60
  -3 -13   6  404.96   25.40
   3 -13  -6  397.26   26.30
  -3 -13   6  463.55   22.70
   3  13  -6  481.45   22.40
  -3  13   6  379.36   24.40
  -3  13   6  445.06   29.00
   3  13  -6  457.65   26.40
  -2 -13   6  464.35   23.80
   2 -13  -6  445.96   27.20
  -2 -13   6  497.45   27.40
   2 -13  -6  459.75   24.80
   2  13  -6  458.75   22.70
   2  13  -6  465.75   25.80
  -2  13   6  457.75   28.60
  -2  13   6  459.45   26.80
   1 -13  -6   37.00   10.60
   1 -13  -6   26.80    9.20
  -1 -13   6   34.20    9.30
  -1 -13   6   28.40    7.80
  -1  13   6   31.10    9.40
   1  13  -6   43.90    9.40
  -1  13   6   50.69   12.80
   1  13  -6   42.90    9.50
   0 -13   6  351.36   22.70
   0 -13  -6  355.46   25.20
   0 -13  -6  285.57   21.40
   0 -13   6  374.16   23.20
   0  13   6  396.96   26.80
   0  13  -6  382.96   22.30
   0  13   6  358.86   25.60
   0  13  -6  362.96   23.40
  -1 -13  -6  794.12   37.90
   1 -13   6  819.32   37.80
  -1 -13  -6  827.82   40.00
   1  13   6  818.22   40.60
   1  13   6  902.81   42.00
  -1  13  -6  811.82   34.50
  -1  13  -6  851.31   38.50
   2 -13   6  147.69   16.70
  -2 -13  -6  157.58   21.40
   2  13   6  133.79   19.80
  -2  13  -6  150.18   16.90
  -2  13  -6  180.18   19.80
   2  13   6  198.08   20.20
   3 -13   6   45.20   12.00
   3  13   6   62.79   15.20
  -3  13  -6   72.79   14.30
   3  13   6   84.29   17.60
   4 -13   6  238.08   23.10
   4  13   6  270.97   27.30
   4  13   6  308.27   29.70
  -4  13  -6  246.78   23.90
   5 -13   6   39.30   15.10
  -5  13  -6   57.69   18.30
   5  13   6   30.50   15.30
  -6 -13  -6    8.20   16.80
   6 -13   6   -8.30   14.60
   6  13   6    2.80   15.30
  -6  13  -6   22.60   20.70
  -7 -13  -6  145.49   29.30
  -7  13  -6  225.58   32.30
 -10 -14   6  497.35   43.00
 -10 -14   6  517.25   34.20
 -10  14   6  504.85   42.50
 -10  14   6  550.74   38.90
  -9 -14   6  100.99   17.20
  -9 -14   6   63.89   18.10
  -9  14   6   69.69   15.90
  -9  14   6   98.19   23.20
  -8 -14   6  251.27   26.20
  -8 -14   6  184.88   18.70
  -8  14   6  228.38   26.60
  -8  14   6  236.28   23.20
  -7 -14   6 1255.47   44.60
  -7 -14   6 1224.98   54.19
  -7  14   6 1219.28   50.59
  -7  14   6 1240.88   57.29
  -6 -14   6  411.36   22.30
  -6 -14   6  388.86   28.10
  -6  14   6  346.57   28.60
  -6  14   6  402.46   26.50
   6  14  -6  383.46   30.20
  -5 -14   6  161.28   14.10
  -5 -14   6  191.78   19.00
   5  14  -6  172.28   14.40
  -5  14   6  156.48   16.40
  -5  14   6  206.38   22.40
   5  14  -6  177.38   20.90
   4 -14  -6 1924.61   61.69
  -4 -14   6 2002.70   57.19
  -4 -14   6 1945.51   65.69
   4 -14  -6 1913.41   66.79
  -4  14   6 1904.41   63.99
  -4  14   6 1998.40   70.99
   4  14  -6 2107.09   66.89
   4  14  -6 2023.20   56.29
  -3 -14   6  474.55   27.80
   3 -14  -6  454.85   24.90
  -3 -14   6  498.95   23.60
   3 -14  -6  457.35   28.90
   3  14  -6  508.55   27.40
  -3  14   6  500.55   27.90
  -3  14   6  477.25   30.60
   3  14  -6  451.85   22.10
   2 -14  -6  243.08   18.00
   2 -14  -6  222.28   19.50
  -2 -14   6  204.78   18.20
  -2 -14   6  198.18   15.40
  -2  14   6  199.58   17.70
  -2  14   6  202.18   19.90
   2  14  -6  241.98   16.30
   2  14  -6  230.88   18.20
   1 -14  -6 1519.55   51.59
  -1 -14   6 1518.55   50.79
   1 -14  -6 1529.85   55.49
  -1 -14   6 1495.45   52.69
  -1  14   6 1453.85   56.49
   1  14  -6 1470.35   49.60
  -1  14   6 1502.45   54.99
   1  14  -6 1545.55   49.20
   0 -14  -6 1263.67   49.30
   0 -14  -6 1200.48   46.70
   0 -14   6 1246.48   46.80
   0 -14   6 1318.67   47.90
   0  14  -6 1343.47   47.00
   0  14   6 1239.78   51.29
   0  14  -6 1252.07   44.00
   0  14   6 1186.58   49.70
  -1 -14  -6   -8.70    7.70
  -1 -14  -6    8.20    9.10
   1 -14   6    1.90    7.00
   1  14   6   -7.30    7.20
  -1  14  -6    6.50    9.10
   1  14   6    6.20    7.70
  -1  14  -6   -1.50    5.80
  -2 -14  -6 2106.39   72.29
   2 -14   6 2171.98   71.29
   2  14   6 2097.79   75.29
  -2  14  -6 2171.88   66.79
  -2  14  -6 2186.58   72.39
   2  14   6 2169.88   74.59
   3 -14   6 1502.25   57.59
  -3  14  -6 1523.75   54.59
   3  14   6 1393.26   60.99
   3  14   6 1384.96   59.29
   4 -14   6   10.30   10.70
   4  14   6  -16.30    9.00
   4  14   6   -3.20   10.90
  -4  14  -6   -1.40   11.40
   5 -14   6  555.14   37.10
   5  14   6  574.24   40.50
  -5  14  -6  548.05   36.70
  -6 -14  -6  507.65   42.80
   6 -14   6  498.35   38.50
  -6  14  -6  498.05   39.10
   6  14   6  493.55   41.80
  -6  14  -6  498.05   40.00
  -7 -14  -6   93.69   26.20
  -7  14  -6   80.39   22.20
 -10 -15   6    9.80   18.00
 -10 -15   6    3.40   14.10
 -10  15   6    9.70   14.40
 -10  15   6   -1.70   19.10
  -9 -15   6   75.59   15.40
  -9 -15   6   27.70   14.60
  -9  15   6   26.00   17.30
  -9  15   6   62.79   15.90
  -8 -15   6  118.09   16.60
  -8 -15   6   46.90   15.00
  -8  15   6   90.59   16.90
  -8  15   6   76.79   19.10
  -7 -15   6   17.40    8.10
  -7 -15   6   16.30   11.30
  -7  15   6   13.80    9.40
  -7  15   6   30.90   14.00
  -6 -15   6  140.39   14.10
  -6 -15   6  150.78   20.60
  -6  15   6  186.78   18.80
  -6  15   6  156.38   22.80
   6  15  -6  158.88   23.30
  -5 -15   6  201.58   15.10
  -5 -15   6  199.28   19.30
   5  15  -6  210.68   14.90
   5  15  -6  212.98   22.60
  -5  15   6  233.08   24.10
  -5  15   6  203.78   18.90
  -4 -15   6    9.20    5.90
   4 -15  -6   16.30    8.40
  -4 -15   6   11.60    7.00
   4 -15  -6   24.50   11.30
  -4  15   6   10.20    8.40
   4  15  -6    9.30    8.10
  -4  15   6   17.50    8.40
   4  15  -6   12.90    6.20
   3 -15  -6  293.97   20.10
  -3 -15   6  310.77   18.30
  -3 -15   6  294.87   22.10
   3 -15  -6  280.27   23.60
  -3  15   6  271.87   21.10
   3  15  -6  356.66   23.40
  -3  15   6  265.77   23.80
   3  15  -6  300.37   17.40
  -2 -15   6  266.97   17.70
   2 -15  -6  294.27   21.80
   2 -15  -6  273.07   19.10
  -2 -15   6  267.37   20.40
  -2  15   6  282.47   21.30
   2  15  -6  291.07   20.20
   2  15  -6  307.57   18.20
  -2  15   6  285.87   23.10
  -1 -15   6  254.07   19.50
  -1 -15   6  255.67   18.00
   1 -15  -6  218.68   19.90
   1 -15  -6  239.68   18.30
   1  15  -6  251.27   17.90
  -1  15   6  232.98   21.20
  -1  15   6  236.58   20.60
   1  15  -6  233.48   17.80
   0 -15  -6  141.49   16.70
   0 -15   6  128.19   14.80
   0 -15   6  124.59   13.60
   0 -15  -6  159.28   18.80
   0  15  -6  125.79   16.20
   0  15  -6  127.39   13.90
   0  15   6  135.79   15.90
   0  15   6   95.89   15.70
  -1 -15  -6   74.59   14.20
  -1 -15  -6   80.59   14.30
   1 -15   6   94.09   15.60
   1  15   6   91.59   16.60
  -1  15  -6   95.09   15.50
  -1  15  -6   69.99   11.40
   1  15   6   76.19   14.80
  -2 -15  -6   28.90   14.00
   2 -15   6   44.40   12.10
   2  15   6   56.39   13.20
   2  15   6   45.60   14.10
  -2  15  -6   36.00   12.30
  -2  15  -6   47.60   11.50
   3 -15   6   84.19   16.10
   3  15   6   86.79   17.90
  -3  15  -6   70.99   14.30
   3  15   6   89.19   17.60
   4 -15   6  115.89   19.10
  -4  15  -6  143.49   20.00
   4  15   6  122.39   20.70
   4  15   6  127.59   21.50
   5 -15   6   82.89   19.60
   5  15   6   55.69   17.30
  -5  15  -6   74.29   18.20
  -6 -15  -6   26.80   19.90
   6 -15   6   19.10   14.90
   6  15   6   -1.50   15.80
  -6  15  -6   10.80   18.70
  -6  15  -6   -0.70   14.10
  -7 -15  -6   45.00   24.60
  -7  15  -6   39.20   19.20
 -10 -16   6  329.27   37.50
 -10 -16   6  312.97   27.00
 -10  16   6  287.67   30.00
 -10  16   6  250.17   34.40
  -9 -16   6   64.89   15.10
  -9 -16   6   58.79   17.60
  -9  16   6   34.60   16.70
  -9  16   6   68.09   16.90
  -8 -16   6  124.09   21.70
  -8 -16   6  135.49   16.60
  -8  16   6  133.89   24.20
  -8  16   6  102.59   17.40
  -7 -16   6  626.84   37.60
  -7 -16   6  642.84   29.00
  -7  16   6  651.93   35.20
  -7  16   6  584.14   39.10
  -6 -16   6   46.90   12.70
  -6 -16   6   28.30    8.30
   6  16  -6   61.99   16.70
  -6  16   6   67.19   13.30
  -6  16   6   55.79   14.40
  -5 -16   6  194.98   19.50
  -5 -16   6  206.78   14.90
   5  16  -6  193.28   14.90
  -5  16   6  207.78   19.40
  -5  16   6  209.38   22.80
   5  16  -6  196.08   22.70
  -4 -16   6  870.51   39.50
   4 -16  -6  839.02   36.40
  -4 -16   6  866.81   31.90
   4 -16  -6  826.22   46.10
  -4  16   6  898.51   39.30
  -4  16   6  844.82   43.20
   4  16  -6  856.01   39.50
   4  16  -6  903.11   31.70
   3 -16  -6   74.09   12.00
   3 -16  -6   59.19   12.80
  -3 -16   6   29.20   10.30
  -3 -16   6   50.59    9.10
   3  16  -6   55.49    9.30
  -3  16   6   64.79   12.90
  -3  16   6   62.09   13.50
   3  16  -6   49.99   11.50
  -2 -16   6  266.67   20.30
  -2 -16   6  263.67   17.40
   2 -16  -6  269.37   21.90
   2 -16  -6  256.97   18.90
  -2  16   6  291.07   21.80
   2  16  -6  243.58   18.50
   2  16  -6  256.17   16.80
  -2  16   6  232.78   21.80
   1 -16  -6  662.43   31.20
  -1 -16   6  694.73   30.80
   1 -16  -6  642.84   34.00
  -1 -16   6  658.13   32.40
   1  16  -6  709.13   30.20
   1  16  -6  698.33   30.90
  -1  16   6  679.03   36.60
  -1  16   6  693.13   35.00
   0 -16   6  474.45   27.00
   0 -16  -6  502.55   28.60
   0 -16  -6  523.05   30.10
   0  16  -6  536.95   28.00
   0  16   6  504.65   30.70
   0  16   6  530.65   31.40
   0  16  -6  554.34   26.80
  -1 -16  -6   26.40   12.00
   1 -16   6    9.30    8.30
  -1  16  -6   32.00    8.80
  -1  16  -6   43.00   12.20
   1  16   6   32.50   10.20
   1  16   6   14.40    9.10
   2 -16   6  819.42   38.90
   2  16   6  788.02   41.30
   2  16   6  762.92   42.20
  -2  16  -6  801.02   35.20
  -2  16  -6  814.82   40.20
   3 -16   6  642.34   36.10
   3  16   6  691.33   41.80
   3  16   6  776.32   42.20
  -3  16  -6  741.23   35.50
   4 -16   6    3.90   10.20
   4  16   6   38.10   13.40
  -4  16  -6    0.90   10.90
   4  16   6  -10.50   10.60
   5 -16   6  373.56   31.40
   5  16   6  352.66   33.70
  -5  16  -6  370.66   30.80
   6 -16   6  210.28   28.40
  -6 -16  -6  346.27   38.90
  -6  16  -6  315.47   33.60
  -6  16  -6  287.87   32.80
   6  16   6  299.77   35.80
  -7 -16  -6   -5.00   19.60
  -7  16  -6   33.40   18.90
 -10 -17   6   27.10   14.90
 -10 -17   6   33.30   19.90
 -10  17   6   14.80   13.60
 -10  17   6   22.70   18.30
  -9 -17   6  409.96   37.50
  -9 -17   6  425.36   27.10
  -9  17   6  491.15   33.70
  -9  17   6  434.96   39.80
  -8 -17   6  709.93   43.60
  -8 -17   6  637.34   30.40
  -8  17   6  634.04   42.50
  -8  17   6  623.04   36.30
  -7 -17   6   10.10    9.80
  -7 -17   6   12.50    7.60
  -7  17   6   14.60    9.40
  -7  17   6   -1.20   11.30
  -6 -17   6  712.03   28.50
  -6 -17   6  700.23   38.40
   6  17  -6  709.63   41.30
  -6  17   6  666.03   35.10
  -6  17   6  742.13   42.70
  -5 -17   6 1197.68   39.10
  -5 -17   6 1242.38   50.79
   5  17  -6 1251.37   52.79
  -5  17   6 1192.08   47.70
  -5  17   6 1153.98   53.89
   5  17  -6 1294.07   39.20
  -4 -17   6  130.99   12.20
   4 -17  -6  146.69   15.70
  -4 -17   6  147.29   16.70
   4  17  -6  155.98   19.70
  -4  17   6  109.59   15.40
  -4  17   6  114.29   18.10
   4  17  -6  113.09   11.60
  -3 -17   6 1080.09   44.30
   3 -17  -6 1043.70   45.60
  -3 -17   6 1064.49   36.80
   3 -17  -6 1038.50   40.30
  -3  17   6 1172.18   50.79
   3  17  -6 1066.39   42.70
  -3  17   6 1130.99   44.60
   3  17  -6 1064.79   35.40
   2 -17  -6 1333.97   47.50
  -2 -17   6 1455.05   51.59
   2 -17  -6 1393.76   53.39
  -2 -17   6 1412.46   45.90
  -2  17   6 1347.37   55.29
  -2  17   6 1450.25   52.89
   2  17  -6 1420.66   49.10
   2  17  -6 1418.66   44.20
  -1 -17   6  409.26   23.00
   1 -17  -6  413.96   27.70
  -1 -17   6  388.16   24.50
   1 -17  -6  352.06   23.30
   1  17  -6  424.36   23.10
  -1  17   6  439.46   28.90
  -1  17   6  382.86   25.50
   1  17  -6  391.16   22.70
   0 -17  -6  103.59   15.10
   0 -17  -6  107.19   16.50
   0 -17   6  104.99   14.70
   0  17  -6   84.89   12.20
   0  17   6  120.59   17.90
   0  17   6  117.09   17.60
   0  17  -6   95.19   14.90
  -1 -17  -6 2164.68   71.79
   1 -17   6 2215.38   69.39
  -1  17  -6 2176.88   69.59
   1  17   6 2115.89   74.09
   1  17   6 2118.89   73.89
  -1  17  -6 2200.08   64.79
   2 -17   6  420.76   27.10
   2  17   6  411.46   30.60
   2  17   6  382.36   28.90
  -2  17  -6  401.66   24.30
  -2  17  -6  366.86   28.80
   3 -17   6  458.55   29.90
   3  17   6  359.76   30.40
   3  17   6  441.86   31.90
  -3  17  -6  481.75   28.00
   4 -17   6 1099.09   49.80
  -4  17  -6 1078.19   46.40
   4  17   6 1003.60   53.19
   4  17   6 1027.70   51.59
   5 -17   6  333.77   30.00
   5  17   6  348.47   34.80
  -5  17  -6  363.46   30.80
   6 -17   6    5.80   14.30
  -6 -17  -6   25.30   20.30
  -6  17  -6   -3.30   18.90
  -6  17  -6    5.80   14.70
  -7 -17  -6  349.17   41.90
  -7  17  -6  377.46   37.30
 -10 -18   6   13.00   17.10
 -10 -18   6    8.70   13.60
 -10  18   6   23.60   14.20
 -10  18   6   -9.50   17.90
  -9 -18   6    5.90   15.70
  -9 -18   6  -10.90   10.60
  -9  18   6   -8.30   11.30
  -9  18   6   16.30   15.10
  -8 -18   6    4.20   13.00
  -8 -18   6   14.10    9.60
  -8  18   6    2.90   13.90
  -8  18   6    7.60   10.40
  -7 -18   6    9.10   11.70
  -7 -18   6   32.40    8.90
  -7  18   6   22.80   10.10
  -7  18   6    2.00   13.00
  -6 -18   6   49.40    9.10
  -6 -18   6   42.90   12.30
   6  18  -6   29.00   15.00
  -6  18   6   31.80   10.40
  -6  18   6   17.80   11.40
  -5 -18   6    1.50    8.50
  -5 -18   6   14.50    6.20
  -5  18   6   14.60   10.10
  -5  18   6   22.20    8.90
   5  18  -6    8.70   11.40
  -4 -18   6   16.80    8.90
  -4 -18   6   16.20    6.00
   4 -18  -6    1.80    8.30
  -4  18   6   18.50    7.90
   4  18  -6   12.30    9.40
  -4  18   6    0.70    8.20
   4  18  -6    3.40    5.10
  -3 -18   6   23.70    8.60
   3 -18  -6    8.70    9.00
   3 -18  -6   20.20    8.40
  -3 -18   6   21.30    6.40
   3  18  -6   18.60    8.80
   3  18  -6   16.00    6.30
  -3  18   6    1.70    7.70
  -3  18   6    9.00    7.50
   2 -18  -6   44.50   10.60
  -2 -18   6   43.40    8.70
  -2 -18   6   34.10    9.90
   2 -18  -6   57.99   13.00
   2  18  -6   64.29   10.10
   2  18  -6   45.00    9.80
  -2  18   6   49.40   12.70
  -2  18   6   41.50   10.60
  -1 -18   6    2.30    6.20
   1 -18  -6    0.30    8.30
   1 -18  -6   -4.10    7.00
  -1  18   6   12.40    7.10
  -1  18   6    6.80    7.80
   1  18  -6    6.00    6.60
   1  18  -6   -1.80    7.00
   0 -18  -6    9.00    9.40
   0 -18   6   45.20   10.00
   0 -18  -6   12.20    9.70
   0  18   6   24.50    9.00
   0  18  -6   40.80   10.50
   0  18   6   17.60    9.60
   0  18  -6   37.70    9.20
   1 -18   6  227.68   19.90
  -1 -18  -6  211.28   21.40
  -1  18  -6  198.78   17.70
  -1  18  -6  203.18   21.00
   1  18   6  209.78   21.10
   1  18   6  150.18   21.00
   2 -18   6   51.59   12.70
  -2  18  -6   69.19   16.50
   2  18   6   36.60   11.90
   2  18   6   45.50   13.60
  -2  18  -6   32.80    9.70
   3 -18   6    4.90    9.90
   3  18   6   -1.20   10.50
   3  18   6  -14.70    8.80
  -3  18  -6    6.70    9.50
   4 -18   6  -14.30   10.00
   4  18   6    2.60    9.90
  -4  18  -6    1.90   11.70
   4  18   6    4.50   11.00
   5 -18   6  -16.00   12.30
   5  18   6   -8.40   13.50
  -5  18  -6  -14.60   14.20
  -6 -18  -6   -9.90   18.40
   6 -18   6  -39.90   13.70
  -6  18  -6  -24.00   14.10
  -6  18  -6   -5.70   19.90
  -7 -18  -6   44.60   21.60
  -7  18  -6   -0.20   17.90
 -10 -19   6  -11.60   13.30
 -10 -19   6    1.70   17.30
 -10  19   6   19.20   18.70
 -10  19   6   15.70   14.50
  -9 -19   6  447.66   39.00
  -9 -19   6  365.26   25.00
  -9  19   6  412.26   39.30
  -9  19   6  436.56   32.00
  -8 -19   6  635.74   40.70
  -8 -19   6  623.54   28.80
  -8  19   6  658.53   36.80
  -8  19   6  613.34   42.60
  -7 -19   6   -0.10   11.70
  -7 -19   6   12.10    7.70
  -7  19   6   18.90   10.10
  -7  19   6   25.60   13.60
  -6 -19   6  511.35   22.30
  -6 -19   6  489.65   33.00
  -6  19   6  494.65   35.80
  -6  19   6  483.65   29.30
   6  19  -6  500.25   35.50
  -5 -19   6  929.81   43.50
  -5 -19   6  890.61   30.60
   5  19  -6  842.62   42.30
  -5  19   6  940.01   41.10
  -5  19   6  935.51   48.10
  -4 -19   6    3.20    9.10
  -4 -19   6   11.40    5.90
   4  19  -6    4.60    9.30
   4  19  -6    6.30    5.60
  -4  19   6   17.60   10.50
  -4  19   6   17.30    7.70
   3 -19  -6  534.75   48.20
  -3 -19   6  522.85   29.20
   3 -19  -6  553.84   27.70
  -3 -19   6  511.65   23.20
   3  19  -6  465.15   21.30
   3  19  -6  589.64   30.50
  -3  19   6  543.95   29.60
  -3  19   6  511.15   33.40
   2 -19  -6  619.64   34.90
  -2 -19   6  680.53   33.00
   2 -19  -6  670.63   31.00
  -2 -19   6  691.73   28.70
  -2  19   6  606.64   32.60
  -2  19   6  699.13   38.50
   2  19  -6  660.03   27.10
   2  19  -6  715.23   32.80
   1 -19  -6   47.30   11.40
   1 -19  -6   56.39   13.00
  -1 -19   6   35.20    9.30
  -1  19   6   55.59   12.30
  -1  19   6   39.10   12.00
   1  19  -6   42.10    9.70
   1  19  -6   30.00    8.70
   0 -19   6  859.91   37.10
   0 -19  -6  789.52   39.20
   0  19   6  839.42   40.90
   0  19   6  809.62   41.20
   0  19  -6  875.31   36.60
   0  19  -6  819.92   34.30
  -1 -19  -6 2207.68   74.59
   1 -19   6 2342.17   72.19
   1  19   6 2353.06   78.89
  -1  19  -6 2320.87   67.29
  -1  19  -6 2311.87   72.29
   1  19   6 2267.27   77.59
   2 -19   6  227.68   21.20
  -2  19  -6  276.27   26.30
  -2  19  -6  289.17   20.50
   2  19   6  288.07   25.50
   2  19   6  316.87   26.20
   3 -19   6  188.18   20.70
  -3  19  -6  218.18   20.40
   3  19   6  225.28   24.90
   3  19   6  207.98   24.90
   4 -19   6  752.92   41.00
   4  19   6  838.42   48.30
   4  19   6  830.72   45.80
  -4  19  -6  827.52   40.00
   5 -19   6  283.47   27.80
  -5  19  -6  275.77   27.10
   5  19   6  321.07   31.70
   6 -19   6   44.30   18.30
  -6 -19  -6   65.19   25.20
  -6  19  -6   40.80   18.30
  -6  19  -6   81.09   23.40
  -7 -19  -6  259.37   40.60
  -7  19  -6  145.29   25.20
 -10 -20   6  364.56   28.20
 -10 -20   6  358.96   39.50
 -10  20   6  379.06   33.40
 -10  20   6  269.37   37.30
  -9 -20   6   88.99   14.20
  -9 -20   6  117.29   22.80
  -9  20   6   88.39   22.20
  -9  20   6   55.29   16.00
  -8 -20   6  189.88   16.50
  -8 -20   6  105.69   20.70
  -8  20   6  177.88   28.00
  -8  20   6  155.48   20.90
  -7 -20   6  451.55   32.90
  -7 -20   6  486.05   22.50
  -7  20   6  482.75   38.30
  -7  20   6  505.05   30.60
  -6 -20   6  370.46   29.00
  -6 -20   6  323.67   17.10
  -6  20   6  345.67   24.90
  -6  20   6  309.17   28.40
   6  20  -6  298.17   28.60
  -5 -20   6   81.39    9.60
  -5 -20   6   69.49   14.90
  -5  20   6   85.89   14.30
   5  20  -6   78.49   16.00
  -5  20   6   88.39   18.80
  -4 -20   6 1046.70   44.90
  -4 -20   6 1058.29   33.70
  -4  20   6 1119.89   52.29
   4  20  -6 1017.40   44.40
  -4  20   6 1051.59   43.50
   4  20  -6 1053.79   32.90
  -3 -20   6  671.13   33.90
  -3 -20   6  680.53   26.50
   3 -20  -6  682.43   31.50
   3  20  -6  643.24   33.00
  -3  20   6  744.73   35.00
  -3  20   6  645.64   38.40
   3  20  -6  679.23   25.60
   2 -20  -6    1.50    6.80
   2 -20  -6   11.90   10.00
  -2 -20   6    8.10    7.20
  -2  20   6    5.20    7.40
   2  20  -6   10.60    6.10
  -2  20   6    4.20    7.90
   2  20  -6    4.00    7.40
   1 -20  -6 1272.77   51.09
  -1 -20   6 1237.68   46.30
   1 -20  -6 1142.59   45.20
   1  20  -6 1240.48   44.30
   1  20  -6 1198.48   41.70
  -1  20   6 1168.78   48.40
  -1  20   6 1231.88   52.89
   0 -20  -6 1717.03   63.89
   0 -20   6 1879.51   60.59
   0  20  -6 1736.03   55.89
   0  20  -6 1874.51   58.99
   0  20   6 1843.92   65.49
   0  20   6 1864.71   67.89
   1 -20   6   13.50    8.60
   1  20   6    6.10    8.90
  -1  20  -6   10.90    7.60
   1  20   6   14.50    9.50
  -1  20  -6   10.40   10.10
   2 -20   6  359.06   25.50
   2  20   6  373.96   28.90
  -2  20  -6  334.47   28.70
  -2  20  -6  387.36   23.70
   2  20   6  416.86   30.70
   3 -20   6  702.83   36.50
   3  20   6  592.44   37.50
  -3  20  -6  700.33   33.20
   3  20   6  703.63   41.50
   4 -20   6    7.40   11.30
   4  20   6   -4.60   11.20
   4  20   6    0.30   12.00
  -4  20  -6    2.00   11.00
   5 -20   6  226.18   26.40
  -5  20  -6  216.08   25.40
   5  20   6  145.79   24.40
  -6 -20  -6  357.56   42.60
  -6  20  -6  384.96   37.00
  -6  20  -6  381.86   35.70
  -9 -21   6   10.50   10.40
  -9 -21   6   13.30   16.90
  -9  21   6   22.50   12.70
  -9  21   6   -8.60   16.40
  -8 -21   6  107.69   12.80
  -8 -21   6   89.79   20.70
  -8  21   6   71.79   20.50
  -8  21   6   97.39   17.20
  -7 -21   6   11.20   11.70
  -7 -21   6   17.10    7.00
  -7  21   6   25.80   10.80
  -7  21   6    3.20   12.00
  -6 -21   6   35.90    7.20
  -6 -21   6   34.20   12.20
  -6  21   6   65.29   18.20
   6  21  -6   21.90   15.20
  -6  21   6   32.70   10.40
  -5 -21   6   44.80    7.20
  -5 -21   6   36.70   11.30
  -5  21   6   40.80   11.10
  -5  21   6   35.30   12.40
   5  21  -6   61.59   15.70
  -4 -21   6   64.49    8.60
  -4 -21   6   67.19   14.00
   4  21  -6   45.60    7.80
  -4  21   6   83.99   19.10
   4  21  -6   39.40   13.00
  -4  21   6   58.39   12.50
  -3 -21   6   41.10   10.90
   3 -21  -6   39.80   16.40
  -3 -21   6   42.50    8.00
  -3  21   6   32.70   10.50
   3  21  -6   41.80    7.90
   3  21  -6   49.00   11.50
  -3  21   6   47.00   13.30
   2 -21  -6  122.79   14.70
  -2 -21   6  102.19   14.90
  -2  21   6   67.69   15.20
  -2  21   6   78.79   13.40
   2  21  -6   89.59   11.30
   2  21  -6   95.39   13.70
  -1 -21   6  260.37   20.70
   1 -21  -6  264.87   23.00
   1  21  -6  250.87   18.30
  -1  21   6  232.08   21.00
   1  21  -6  260.87   19.80
  -1  21   6  225.88   22.70
   0 -21   6  250.67   20.00
   0 -21  -6  270.37   23.50
   0  21   6  210.58   22.10
   0  21   6  224.48   22.10
   0  21  -6  244.28   19.70
   0  21  -6  241.98   18.20
   1 -21   6   64.59   12.80
  -1  21  -6   66.59   13.90
   1  21   6  104.29   18.50
  -1  21  -6   65.99   11.40
   1  21   6   78.89   15.40
   2 -21   6   29.10   10.90
   2  21   6   41.80   12.80
   2  21   6   50.69   13.90
  -2  21  -6   44.40   16.40
  -2  21  -6   29.70    9.60
   3 -21   6   25.80   11.70
   3  21   6   33.90   13.00
   3  21   6   57.39   16.20
  -3  21  -6   66.29   13.00
   4 -21   6   41.60   13.50
   4  21   6   48.60   17.10
   4  21   6   49.50   16.20
  -4  21  -6   35.80   12.90
   5 -21   6   18.50   14.00
   5  21   6   69.19   19.70
  -5  21  -6   16.70   15.00
   5  21   6   23.90   15.90
  -6 -21  -6    6.80   20.80
  -6  21  -6   26.80   16.50
  -9 -22   6  117.09   14.70
  -9 -22   6  114.79   25.00
  -9  22   6   99.99   23.90
  -9  22   6  137.99   21.00
  -8 -22   6  114.89   13.30
  -8 -22   6  125.19   22.00
  -8  22   6  103.29   18.20
  -8  22   6   90.49   22.40
  -7 -22   6  947.21   29.70
  -7 -22   6  978.60   49.50
  -7  22   6  967.10   43.90
  -7  22   6  961.30   54.19
  -6 -22   6  462.95   32.30
  -6 -22   6  407.76   16.50
  -6  22   6  399.26   33.90
  -6  22   6  402.36   27.20
   6  22  -6  438.06   34.70
  -5 -22   6  161.78   10.40
  -5 -22   6  168.88   20.10
  -5  22   6  155.98   24.90
  -5  22   6  128.19   17.40
   5  22  -6  167.08   22.90
  -4 -22   6 1677.03   44.10
  -4 -22   6 1662.43   59.59
   4  22  -6 1730.03   60.99
  -4  22   6 1577.54   66.09
   4  22  -6 1592.44   42.70
  -4  22   6 1560.54   56.39
  -3 -22   6 1147.19   46.10
  -3  22   6 1124.29   53.09
  -3  22   6 1195.78   46.60
   3  22  -6 1150.28   34.90
   3  22  -6 1068.59   44.80
  -2 -22   6   15.30    7.80
  -2  22   6    4.30    7.90
  -2  22   6    2.30    9.00
   2  22  -6    0.60    6.00
   2  22  -6   11.10    7.90
  -1 -22   6 1776.12   58.59
   1  22  -6 1787.12   56.39
  -1  22   6 1716.33   66.09
   1  22  -6 1666.63   52.79
  -1  22   6 1806.32   62.89
   0 -22   6  963.80   40.70
   0  22  -6 1001.10   39.90
   0  22   6  989.00   47.40
   0  22  -6 1047.50   38.90
   0  22   6 1015.10   46.10
   1 -22   6    4.90    7.90
   1  22   6   -4.20    8.70
  -1  22  -6   -9.10    9.40
   1  22   6    5.80    9.60
  -1  22  -6    2.90    7.30
   2 -22   6  792.12   37.60
   2  22   6  852.81   44.10
  -2  22  -6  754.82   41.70
  -2  22  -6  765.02   34.00
   2  22   6  832.32   44.10
   3 -22   6  684.73   37.00
  -3  22  -6  719.73   34.10
   3  22   6  772.72   44.30
   3  22   6  748.93   41.80
   4 -22   6   49.30   14.70
   4  22   6   38.10   15.10
  -4  22  -6   54.19   13.80
   4  22   6   49.90   15.10
   5 -22   6  334.67   30.70
   5  22   6  360.26   34.30
   5  22   6  317.57   33.00
  -5  22  -6  360.06   30.10
  -6 -22  -6  473.05   46.10
  -6  22  -6  434.56   35.80
  -9 -23   6  162.38   27.40
  -9  23   6  166.58   22.40
  -9  23   6  205.28   31.70
  -8 -23   6  244.68   14.90
  -8 -23   6  269.77   30.40
  -8  23   6  223.78   23.80
  -8  23   6  221.88   32.40
  -7 -23   6   -1.80   10.70
  -7 -23   6   20.20    5.70
  -7  23   6   13.80   10.30
  -7  23   6   20.80   14.80
  -6 -23   6  219.08   10.00
  -6 -23   6  241.78   23.70
  -6  23   6  225.78   26.70
   6  23  -6  198.68   27.30
  -6  23   6  238.98   21.10
  -5 -23   6  473.95   30.80
  -5 -23   6  437.06   15.30
  -5  23   6  484.65   28.40
  -5  23   6  459.95   34.70
   5  23  -6  427.86   32.30
  -4 -23   6  115.59   17.00
   4  23  -6  114.39    8.90
   4  23  -6  148.89   19.60
  -4  23   6   82.79   17.50
  -4  23   6  108.29   15.50
  -3 -23   6  423.26   27.00
   3  23  -6  478.65   27.80
  -3  23   6  403.86   26.60
  -3  23   6  403.66   32.30
   3  23  -6  412.96   18.20
  -2 -23   6 1212.28   45.80
   2  23  -6 1043.20   42.50
  -2  23   6 1159.78   53.39
  -2  23   6 1148.19   47.00
   2  23  -6 1196.68   37.50
  -1 -23   6  262.87   20.00
  -1  23   6  244.28   23.80
   1  23  -6  235.98   17.80
   1  23  -6  251.57   19.00
  -1  23   6  244.18   22.40
   0 -23   6   67.39   12.90
   0  23  -6   94.69   14.20
   0  23  -6   74.29   12.60
   0  23   6   86.59   16.10
   0  23   6   67.29   14.60
   1 -23   6  346.87   23.90
   1  23   6  331.17   27.10
  -1  23  -6  334.17   26.00
  -1  23  -6  336.47   21.70
   1  23   6  321.77   26.90
   2 -23   6  173.88   19.20
   2  23   6  168.48   23.20
  -2  23  -6  157.38   16.80
  -2  23  -6  173.48   26.90
   2  23   6  151.98   21.60
   3 -23   6    7.60    9.40
   3  23   6  -14.00   10.60
  -3  23  -6    5.50    9.00
   3  23   6   -1.80   10.40
   4 -23   6  208.88   24.70
  -4  23  -6  195.48   21.70
   4  23   6  179.18   26.90
   4  23   6  252.37   29.00
  -5 -23  -6  187.98   32.50
   5 -23   6  166.48   23.30
   5  23   6  151.18   26.30
   5  23   6  124.49   25.20
  -5  23  -6  144.29   21.90
  -6 -23  -6  -14.10   20.60
  -6  23  -6   -7.50   15.10
  -9 -24   6   -4.50    7.90
  -9 -24   6   20.20   20.00
  -9  24   6   61.79   23.50
  -9  24   6   25.30   14.00
  -8 -24   6   57.59   17.70
  -8  24   6   76.99   21.30
  -8  24   6   57.09   14.10
  -7 -24   6  148.19   23.30
  -7  24   6  144.49   19.30
  -7  24   6  163.68   27.10
  -6 -24   6    2.30   11.00
  -6  24   6   13.30    9.40
   6  24  -6   10.20   16.60
  -6  24   6   -1.90   13.40
  -5 -24   6    7.40    9.30
  -5  24   6    8.60    8.20
  -5  24   6   -8.60   11.20
   5  24  -6    2.90   13.50
  -4 -24   6  190.48   19.60
  -4  24   6  167.48   24.80
  -4  24   6  177.98   18.30
   4  24  -6  188.08   22.00
  -3 -24   6  146.29   17.00
   3  24  -6  121.59   16.90
   3  24  -6  131.09   10.80
  -3  24   6  168.18   18.20
  -3  24   6  160.48   24.40
  -2 -24   6   -7.50    7.00
  -2  24   6   -3.20   11.20
   2  24  -6   16.70    8.90
   2  24  -6    2.30    6.30
  -2  24   6   10.40    8.60
  -1 -24   6  372.46   23.60
   1  24  -6  380.86   23.00
   1  24  -6  381.96   21.70
  -1  24   6  378.06   27.00
  -1  24   6  399.36   30.20
   0 -24   6  133.59   17.20
   0  24   6  123.59   20.30
   0  24  -6  156.98   15.80
   0  24   6  148.69   20.20
   0  24  -6  122.89   16.10
   1 -24   6   28.80   10.60
  -1  24  -6   43.40   10.20
  -1  24  -6   35.50   13.20
   1  24   6   20.40   12.30
   1  24   6   44.20   12.90
   2 -24   6   60.09   13.80
  -2  24  -6   92.49   13.70
   2  24   6   51.39   15.30
   2  24   6   56.69   15.10
   3 -24   6   86.89   16.60
   3  24   6   88.29   18.80
   3  24   6  100.99   21.00
  -3  24  -6   85.49   13.60
   4 -24   6   22.30   13.20
   4  24   6   -9.80   13.30
  -4  24  -6    2.80   11.00
   4  24   6   21.50   15.10
   5 -24   6  112.99   20.40
  -5 -24  -6   72.29   21.80
  -5  24  -6   89.69   19.50
  -5  24  -6   86.39   18.70
   5  24   6   87.99   20.60
   5  24   6  121.29   24.60
  -6 -24  -6  140.19   30.40
  -6  24  -6   88.39   19.30
  -9 -25   6  323.07   37.20
  -9  25   6  297.77   38.60
  -9  25   6  350.56   30.00
  -8 -25   6  632.34   43.30
  -8  25   6  661.23   37.20
  -8  25   6  672.83   47.70
  -7 -25   6    2.70   12.10
  -7  25   6    7.60   14.20
  -7  25   6   10.80    9.50
  -6 -25   6  488.05   32.60
  -6  25   6  439.46   36.00
  -6  25   6  499.85   29.70
   6  25  -6  490.45   38.90
  -5 -25   6  966.10   44.40
  -5  25   6  870.71   39.40
   5  25  -6  811.82   44.40
  -5  25   6  882.01   49.30
  -4 -25   6  195.48   20.20
  -4  25   6  158.88   24.20
  -4  25   6  164.98   18.40
   4  25  -6  181.28   21.60
  -3 -25   6  606.34   32.30
   3  25  -6  656.63   33.80
  -3  25   6  591.74   32.50
  -3  25   6  606.94   39.20
   3  25  -6  620.74   21.90
  -2 -25   6 1593.14   55.49
  -2  25   6 1607.24   65.09
  -2  25   6 1553.14   57.29
   2  25  -6 1569.14   54.19
   2  25  -6 1660.33   46.30
  -1 -25   6  116.79   15.80
  -1  25   6  122.99   17.90
   1  25  -6  111.59   15.00
   1  25  -6  117.39   13.60
  -1  25   6   87.59   18.10
   0 -25   6  509.75   28.10
   0  25  -6  530.35   26.80
   0  25   6  518.75   32.60
   0  25   6  512.75   34.90
   0  25  -6  482.45   27.70
   1 -25   6 1669.63   56.39
   1  25   6 1660.83   63.59
  -1  25  -6 1567.84   57.49
   1  25   6 1569.54   63.99
  -1  25  -6 1565.24   51.29
   2 -25   6  618.04   32.80
   2  25   6  616.74   38.60
  -2  25  -6  607.44   29.00
   2  25   6  602.14   37.90
   3 -25   6   29.00   12.50
   3  25   6   28.30   14.70
   3  25   6   22.20   13.40
  -3  25  -6   35.20   10.60
   4 -25   6  656.63   37.40
   4  25   6  634.44   43.80
   4  25   6  625.34   41.50
  -4  25  -6  645.64   33.20
   5 -25   6  334.97   30.80
  -5 -25  -6  409.16   41.40
  -5  25  -6  404.36   32.40
   5  25   6  319.67   33.50
  -5  25  -6  358.86   28.60
  -6 -25  -6    3.60   24.00
  -6  25  -6   38.30   16.90
  -9 -26   6   16.90   19.40
  -9  26   6   13.80   13.80
  -9  26   6   20.80   19.30
  -8 -26   6   21.30   14.40
  -8  26   6   31.80   13.20
  -8  26   6   14.20   20.00
  -7 -26   6  140.49   22.80
  -7  26   6  176.18   20.60
  -7  26   6  170.48   29.10
  -6 -26   6  168.48   22.90
   6  26  -6  135.99   25.30
  -6  26   6  156.08   18.40
  -6  26   6  179.78   27.20
  -5 -26   6   21.40   11.30
  -5  26   6   12.10    8.90
  -5  26   6   -0.50   11.60
   5  26  -6   29.10   15.40
  -4 -26   6  399.76   27.80
  -4  26   6  390.56   32.60
  -4  26   6  396.96   25.90
   4  26  -6  359.46   28.20
  -3 -26   6  480.55   28.80
  -3  26   6  407.26   27.00
   3  26  -6  362.36   26.30
   3  26  -6  430.36   16.60
  -3  26   6  430.86   34.30
  -2 -26   6   10.20    8.30
  -2  26   6   21.20   11.80
  -2  26   6   10.40    8.40
   2  26  -6   16.40    9.60
   2  26  -6   -5.00    6.20
  -1 -26   6  281.27   21.00
   1  26  -6  232.78   19.60
   1  26  -6  276.97   19.00
  -1  26   6  242.68   22.10
  -1  26   6  279.17   27.00
   0 -26   6  232.78   20.30
   0  26   6  333.47   28.90
   0  26  -6  270.07   21.50
   0  26  -6  280.37   19.90
   0  26   6  244.68   22.60
   1 -26   6   21.60   10.10
   1  26   6   20.80   11.30
  -1  26  -6    5.20    8.00
   1  26   6   -5.70   11.80
  -1  26  -6   22.50   12.50
   2 -26   6   53.39   12.60
  -2  26  -6   43.20   11.10
   2  26   6   56.89   16.40
   2  26   6   17.90   12.00
   3 -26   6  100.39   16.10
  -3  26  -6  103.79   14.60
   3  26   6   67.99   17.60
   3  26   6   72.89   18.70
   4 -26   6    0.10   12.60
   4  26   6   -7.50   11.40
   4  26   6    1.10   14.00
  -4  26  -6    5.10   10.70
   5 -26   6   46.80   16.90
  -5 -26  -6   56.29   23.30
   5  26   6   29.90   18.20
  -5  26  -6   56.19   16.70
  -5  26  -6   29.60   16.50
  -8 -27   6  223.98   30.20
  -8  27   6  327.27   37.20
  -8  27   6  205.28   23.60
  -7 -27   6    7.00   13.80
  -7  27   6   26.40   15.80
  -7  27   6    8.40   11.20
  -6 -27   6  204.58   23.80
  -6  27   6  178.78   19.50
   6  27  -6  141.89   24.60
  -6  27   6  208.08   30.70
  -5 -27   6  440.36   29.90
  -5  27   6  389.46   25.90
  -5  27   6  319.27   32.90
   5  27  -6  409.46   33.40
  -4 -27   6  316.77   25.30
  -4  27   6  304.27   32.50
  -4  27   6  374.96   25.10
   4  27  -6  332.47   27.40
  -3 -27   6  236.18   21.20
   3  27  -6  208.98   10.40
  -3  27   6  160.58   24.50
  -3  27   6  205.08   20.30
   3  27  -6  165.78   20.20
  -2 -27   6  715.63   34.60
   2  27  -6  748.43   34.20
   2  27  -6  707.43   26.20
  -2  27   6  730.63   36.20
  -2  27   6  627.64   40.90
  -1 -27   6   17.50    9.20
   1  27  -6   -1.40    8.00
  -1  27   6   10.40    8.90
   1  27  -6    8.60    8.20
  -1  27   6   11.10   11.80
   0 -27   6  375.46   24.30
   0  27   6  369.46   27.70
   0  27  -6  334.77   22.10
   0  27   6  358.26   30.30
   0  27  -6  349.57   24.10
   1 -27   6  645.24   33.00
  -1  27  -6  711.43   31.00
   1  27   6  710.63   39.80
  -1  27  -6  724.83   37.00
   1  27   6  690.33   40.90
   2 -27   6   86.59   14.90
  -2  27  -6  107.49   14.30
   2  27   6  112.69   21.80
   2  27   6  119.69   20.20
   3 -27   6   32.50   12.60
  -3  27  -6   31.20   10.80
   3  27   6   16.80   15.00
   3  27   6   26.30   15.00
   4 -27   6  248.38   25.00
  -4  27  -6  273.77   23.70
   4  27   6  214.48   29.10
   4  27   6  309.87   32.60
   5 -27   6    5.50   14.20
  -5 -27  -6   64.89   24.60
  -5  27  -6   61.09   16.60
   5  27   6  104.89   23.90
  -8 -28   6   78.49   20.30
  -8  28   6   90.29   23.80
  -8  28   6   72.69   16.00
  -7 -28   6 1021.90   52.39
  -7  28   6  997.00   57.19
  -7  28   6 1023.20   44.60
  -6 -28   6  128.39   21.30
  -6  28   6  139.49   19.00
  -6  28   6   80.09   22.70
   6  28  -6   95.69   24.40
  -5 -28   6  123.99   18.50
   5  28  -6  105.99   20.70
  -5  28   6   80.29   14.30
  -5  28   6   80.09   21.20
  -4 -28   6 1089.09   47.40
   4  28  -6 1116.09   49.30
  -4  28   6 1173.68   46.20
  -4  28   6 1286.07   60.19
  -3 -28   6  636.64   33.80
  -3  28   6  665.03   43.20
  -3  28   6  597.94   32.20
   3  28  -6  651.13   33.70
  -2 -28   6    0.00    8.20
  -2  28   6   18.20   10.00
   2  28  -6   18.10   10.70
   2  28  -6   27.60    7.50
  -2  28   6   27.50   13.20
  -1 -28   6 1061.69   42.00
  -1  28   6 1028.20   45.20
  -1  28   6 1000.10   50.39
   1  28  -6  960.20   38.80
   1  28  -6 1002.50   36.50
   0 -28   6  764.62   35.20
   0  28   6  813.22   41.00
   0  28  -6  801.02   35.50
   0  28  -6  779.82   33.10
   0  28   6  765.32   42.90
   1 -28   6   60.79   12.60
  -1  28  -6   59.79   10.90
   1  28   6   49.60   16.20
  -1  28  -6   48.20   15.00
   1  28   6   42.20   13.60
   2 -28   6  383.16   25.60
  -2  28  -6  376.96   22.60
   2  28   6  377.46   31.80
   2  28   6  353.26   30.40
   3 -28   6  702.33   35.90
   3  28   6  677.43   43.70
   3  28   6  671.73   42.00
  -3  28  -6  653.73   30.90
   4 -28   6  126.89   19.40
  -4  28  -6  135.49   17.60
   4  28   6  117.79   23.10
   4  28   6   88.19   21.90
  -5 -28  -6  355.46   41.10
   5  28   6  328.97   34.40
  -5  28  -6  333.87   29.20
  -8 -29   6   39.00   19.10
  -8  29   6   67.19   22.00
  -8  29   6   39.50   14.50
  -7 -29   6    1.60   15.60
  -7  29   6   -1.40   11.20
  -7  29   6   23.10   17.60
  -6 -29   6   82.39   18.30
   6  29  -6   75.99   23.10
  -6  29   6   89.99   16.00
  -6  29   6   74.29   19.90
  -5 -29   6   12.70   10.80
  -5  29   6    0.30    9.90
  -5  29   6    6.50   13.70
   5  29  -6   13.00   15.90
  -4 -29   6    4.60    9.70
  -4  29   6    2.10   11.50
   4  29  -6   16.40   13.20
  -4  29   6   14.30   10.30
  -3 -29   6   29.70   11.10
  -3  29   6   39.80   17.30
   3  29  -6   32.20   12.30
  -3  29   6   55.19   12.30
  -2 -29   6  120.19   16.90
   2  29  -6  118.29   16.20
  -2  29   6   85.79   19.70
   2  29  -6  116.09   11.00
  -2  29   6  135.69   18.00
  -1 -29   6  -14.20    7.40
   1  29  -6   11.30    8.60
  -1  29   6    4.80    8.80
  -1  29   6   10.20   13.10
   1  29  -6    1.30    8.20
   0 -29   6    3.80    8.40
   0  29   6    9.20   12.20
   0  29  -6    6.30   10.70
   0  29  -6   -7.10    7.50
   0  29   6   -5.20    9.30
   1 -29   6   26.30   10.50
  -1  29  -6  -13.00   13.50
   1  29   6   -5.30   11.00
  -1  29  -6   15.00    8.60
   1  29   6   17.90   13.70
   2 -29   6    0.60   10.10
   2  29   6    3.00   13.00
  -2  29  -6   20.50    9.20
   2  29   6    3.80   11.90
   3 -29   6   -9.00   10.80
  -3  29  -6  -14.70    9.10
   3  29   6   21.60   13.60
   3  29   6  -23.70   13.60
  -4 -29  -6    5.30   18.20
   4 -29   6  -18.60   12.10
   4  29   6   10.20   16.50
   4  29   6   18.00   16.50
  -4  29  -6   18.70   11.60
  -5 -29  -6   21.60   22.40
  -5  29  -6   28.10   14.50
   5  29   6    3.20   17.80
  -8 -30   6   64.29   20.70
  -8  30   6   60.69   15.20
  -8  30   6   55.79   23.70
  -7 -30   6  210.68   28.10
  -7  30   6  165.88   28.40
  -7  30   6  210.68   22.30
  -6 -30   6  399.96   33.00
  -6  30   6  408.06   38.60
   6  30  -6  408.96   40.00
  -6  30   6  463.35   28.80
  -5 -30   6   42.30   14.30
  -5  30   6   81.69   20.50
  -5  30   6   77.29   14.30
   5  30  -6   82.09   20.50
  -4 -30   6  492.45   30.90
  -4  30   6  510.65   29.80
  -4  30   6  455.25   37.70
   4  30  -6  465.95   33.20
  -3 -30   6  216.88   20.70
  -3  30   6  287.27   29.20
   3  30  -6  230.68   22.70
  -3  30   6  256.17   21.80
  -2 -30   6    2.20    8.60
  -2  30   6   22.10   11.80
   2  30  -6   -1.70    9.10
   2  30  -6   -4.80    6.00
  -2  30   6   13.40    9.40
  -1 -30   6  485.75   28.50
  -1  30   6  582.34   39.00
   1  30  -6  520.05   25.30
   1  30  -6  555.44   28.00
  -1  30   6  528.25   32.20
   0 -30   6  739.63   34.90
   0  30  -6  768.12   35.00
   0  30  -6  780.32   32.60
   0  30   6  778.52   40.10
   0  30   6  683.53   42.80
   1 -30   6   -2.50    9.20
  -1  30  -6   -0.90   13.80
   1  30   6    2.30   11.10
   1  30   6   17.40   11.90
  -1  30  -6   18.20    8.20
   2 -30   6  398.86   26.60
   2  30   6  439.36   34.00
   2  30   6  460.65   34.60
  -2  30  -6  409.06   23.50
   3 -30   6  526.45   31.40
   3  30   6  603.34   41.00
   3  30   6  521.55   38.20
  -3  30  -6  538.75   27.60
   4 -30   6   10.80   13.40
  -4 -30  -6   17.10   19.40
  -4  30  -6    4.50   12.60
  -4  30  -6    0.80   11.00
   4  30   6   -7.00   15.70
  -5 -30  -6   64.89   24.10
  -5  30  -6   82.09   18.20
  -8 -31   6  163.98   26.90
  -8  31   6  218.48   25.00
  -8  31   6  165.58   29.10
  -7 -31   6    0.10   15.40
  -7  31   6    7.10   17.10
  -7  31   6   -5.90   10.40
  -6 -31   6  360.36   31.40
  -6  31   6  373.16   37.00
  -6  31   6  398.76   26.90
   6  31  -6  447.66   41.40
  -5 -31   6  738.93   40.70
  -5  31   6  713.63   47.10
   5  31  -6  730.13   44.20
  -5  31   6  747.03   35.60
  -4 -31   6   10.40   10.90
   4  31  -6   -4.20   13.40
  -4  31   6   -4.90   14.50
  -4  31   6   -1.90    9.10
  -3 -31   6  238.68   22.60
   3  31  -6  309.57   25.20
  -3  31   6  290.97   31.40
  -3  31   6  260.57   22.40
  -2 -31   6  823.02   37.20
  -2  31   6  752.42   37.70
  -2  31   6  831.32   47.80
   2  31  -6  751.82   35.30
   2  31  -6  827.22   25.70
  -1 -31   6  343.67   23.70
  -1  31   6  307.17   25.50
  -1  31   6  369.46   32.90
   1  31  -6  326.77   22.80
   1  31  -6  386.06   21.60
   0 -31   6  301.37   22.10
   0  31   6  299.87   28.40
   0  31  -6  317.77   20.50
   0  31   6  299.47   26.90
   0  31  -6  269.27   22.50
   1 -31   6  862.71   37.90
   1  31   6  887.91   45.00
   1  31   6  829.22   46.80
  -1  31  -6  821.52   41.30
  -1  31  -6  813.02   32.80
   2 -31   6  313.27   24.10
   2  31   6  292.97   30.20
   2  31   6  306.27   29.90
  -2  31  -6  325.97   20.80
   3 -31   6  -14.00   11.30
   3  31   6   15.40   14.50
   3  31   6   59.19   18.20
  -3  31  -6   19.50   10.00
  -4 -31  -6  342.37   39.50
  -4  31  -6  289.17   25.90
  -4  31  -6  344.97   26.30
   4  31   6  360.26   34.00
  -7 -32   6   58.89   20.00
  -7  32   6   50.29   20.40
  -7  32   6   62.89   14.60
  -6 -32   6    6.30   13.40
   6  32  -6   37.30   23.50
  -6  32   6   15.30   17.80
  -6  32   6   17.00   11.00
  -5 -32   6   25.00   14.40
  -5  32   6   59.69   13.20
  -5  32   6   42.30   17.90
   5  32  -6   67.69   19.90
  -4 -32   6   13.60   11.90
  -4  32   6    7.50   14.70
   4  32  -6   10.50   14.50
  -4  32   6   25.20   10.20
  -3 -32   6    4.50    9.90
  -3  32   6   19.00   14.40
   3  32  -6    7.90   11.70
  -3  32   6   -3.20    8.70
  -2 -32   6   -4.10    9.20
  -2  32   6   13.30   10.40
   2  32  -6    3.20    9.60
   2  32  -6   -3.00    5.60
  -2  32   6  -14.90   12.80
  -1 -32   6   45.00   11.70
  -1  32   6   36.80   12.70
   1  32  -6   38.20   10.00
   1  32  -6   25.50    9.80
  -1  32   6   38.40   15.50
   0 -32   6   14.40    9.80
   0  32  -6   -3.50   11.10
   0  32   6   -3.30   12.70
   0  32   6  -14.30    9.40
   0  32  -6   -3.80    8.10
   1 -32   6   -4.60    9.70
  -1  32  -6   -2.30   14.30
   1  32   6    1.30   11.30
   1  32   6   12.20   13.60
  -1  32  -6   -0.10    7.70
   2 -32   6   25.70   11.70
   2  32   6   36.50   16.10
   2  32   6    7.60   14.60
  -2  32  -6   37.30    9.80
   3 -32   6   -1.50   11.60
   3  32   6   18.60   15.30
  -3  32  -6   -9.50    9.00
   3  32   6   -1.70   15.30
   4 -32   6    9.50   13.60
  -4 -32  -6   20.20   21.30
  -4  32  -6   14.10   11.80
   4  32   6  -23.20   16.70
  -7 -33   6    8.70   18.20
  -7  33   6    5.30   12.20
  -7  33   6   10.90   18.60
  -6 -33   6  682.93   41.80
  -6  33   6  630.14   47.10
  -6  33   6  643.94   33.40
   6  33  -6  645.24   48.40
  -5 -33   6  580.94   35.80
  -5  33   6  576.74   31.30
   5  33  -6  551.24   40.20
  -5  33   6  522.35   42.50
  -4  33   6   28.60   16.90
  -4  33   6   48.40   12.80
   4  33  -6   19.30   16.30
  -3 -33   6  300.47   24.50
  -3  33   6  314.57   33.20
   3  33  -6  270.87   25.70
  -3  33   6  283.77   23.10
  -2 -33   6  678.53   33.90
  -2  33   6  631.74   34.10
   2  33  -6  617.74   19.10
   2  33  -6  623.34   32.70
   2  33  -6  620.14   19.00
  -2  33   6  676.13   43.20
  -1 -33   6  110.89   16.20
   1  33  -6  131.99   14.60
   1  33  -6  144.69   16.60
  -1  33   6  144.79   19.80
  -1  33   6  125.99   23.60
   0 -33   6   73.69   14.40
   0  33   6   80.39   18.50
   0  33  -6   75.89   12.40
   0  33   6   77.19   16.50
   0  33  -6   80.49   15.60
   1 -33   6  757.82   34.60
   1  33   6  724.13   41.00
  -1  33  -6  694.43   39.30
   1  33   6  742.13   45.10
  -1  33  -6  766.62   30.20
   2  33   6  199.98   27.10
   2  33   6  253.47   28.80
  -2  33  -6  214.28   17.60
  -3  33  -6    0.50    9.30
   3  33   6   34.00   17.50
   3  33   6   22.10   14.90
  -4 -33  -6  266.37   36.80
   4  33   6  278.57   32.30
  -4  33  -6  274.67   24.00
  -7 -34   6  294.17   32.90
  -7  34   6  224.88   34.40
  -7  34   6  284.67   25.20
  -6 -34   6   25.40   16.60
  -6  34   6   29.10   12.20
  -6  34   6   30.10   19.90
   6  34  -6  -16.90   29.20
  -5 -34   6   18.60   14.20
  -5  34   6   43.90   12.70
  -5  34   6    3.60   17.00
   5  34  -6    2.50   18.60
  -4 -34   6  312.07   27.00
   4  34  -6  352.46   30.80
  -4  34   6  254.47   33.30
  -4  34   6  306.67   23.80
  -3 -34   6  311.67   25.10
  -3  34   6  256.07   22.10
  -3  34   6  283.17   33.00
   3  34  -6  252.57   25.50
  -2 -34   6   14.60   11.30
  -2  34   6   23.70   14.80
   2  34  -6   41.50   11.90
  -2  34   6   29.10   11.50
  -1 -34   6  552.24   29.60
   1  34  -6  523.25   24.50
  -1  34   6  534.25   40.20
  -1  34   6  501.55   32.50
   1  34  -6  500.05   26.90
   0 -34   6  317.17   23.30
   0  34  -6  339.27   25.00
   0  34  -6  344.27   21.10
   0  34   6  318.07   27.60
   0  34   6  327.17   31.40
   1  34   6   19.00   14.90
   1  34   6  -11.60   11.20
  -1  34  -6   -3.50   16.20
  -1  34  -6   -4.20    8.10
  -2  34  -6  277.17   18.30
   2  34   6  238.08   28.90
   2  34   6  255.87   31.30
  -3 -34  -6  214.98   31.50
  -3  34  -6  235.58   20.80
  -3  34  -6  223.88   17.90
   3  34   6  231.38   30.90
  -4 -34  -6   14.40   22.80
  -4  34  -6   -3.60   11.50
   4  34   6    6.90   18.20
  -6 -35   6   79.39   20.10
  -6  35   6   42.90   22.40
  -6  35   6   72.59   14.80
  -5 -35   6   74.59   18.40
  -5  35   6   95.59   23.70
   5  35  -6  109.49   24.30
  -5  35   6   99.19   15.60
  -4 -35   6    2.60   12.90
  -4  35   6    6.90   17.60
   4  35  -6   26.60   16.80
  -4  35   6    9.20   10.70
  -3 -35   6   61.69   14.40
  -3  35   6   47.80   12.20
   3  35  -6   57.89   15.90
  -3  35   6   26.30   18.00
  -2 -35   6   36.30   12.70
   2  35  -6   19.40   12.10
  -2  35   6   16.60   11.10
  -2  35   6   26.60   16.80
  -1 -35   6   21.60   10.50
   1  35  -6   -3.90    8.80
  -1  35   6   10.40   14.60
   1  35  -6   11.70    9.70
  -1  35   6    6.80   11.40
   0 -35   6  -12.60   11.70
   0  35  -6   13.70   13.10
   0  35  -6    8.10    8.50
   0  35   6   -2.10   11.40
   0  35   6  -13.90   13.70
   1  35   6   52.99   16.50
  -1  35  -6   75.49   11.20
   1  35   6   97.49   21.30
  -1  35  -6   60.09   19.50
   2 -35   6    0.10   10.90
   2  35   6   38.00   18.00
  -2  35  -6    6.10    8.40
   2  35   6  -17.10   13.40
  -3 -35  -6    8.00   20.50
  -3  35  -6   14.70   10.40
  -3  35  -6   28.50    9.60
   3  35   6    8.80   17.50
  -6 -36   6  112.79   22.20
  -6  36   6  110.49   16.10
  -6  36   6  122.39   28.50
  -5 -36   6   76.89   18.70
  -5  36   6   20.30   18.20
  -5  36   6   51.19   12.90
  -4 -36   6  512.35   33.30
  -4  36   6  578.04   30.30
  -4  36   6  599.24   46.60
   4  36  -6  547.45   37.80
  -3 -36   6  322.07   26.20
  -3  36   6  238.58   22.60
   3  36  -6  282.07   27.40
  -3  36   6  224.58   32.20
  -2 -36   6   83.09   15.70
  -2  36   6  104.89   24.40
  -2  36   6   94.19   16.20
   2  36  -6   72.79   15.30
  -1 -36   6  439.46   27.90
   1  36  -6  600.84   29.10
   1  36  -6  574.84   23.80
   1  36  -6  603.84   25.10
  -1  36   6  550.24   33.00
  -1  36   6  538.15   40.80
   0  36   6  394.76   30.50
   0  36   6  386.96   34.60
   0  36  -6  430.46   27.60
   0  36  -6  416.46   22.30
   1 -36   6   21.50   11.00
   1  36   6   18.80   13.40
  -1  36  -6   -9.10   17.60
  -1  36  -6   -5.00    8.30
   1  36   6  -13.60   15.90
   2  36   6  423.06   36.50
  -2  36  -6  366.86   19.80
  -3 -36  -6  412.96   42.60
  -3  36  -6  353.76   19.10
  -3  36  -6  406.36   21.50
   3  36   6  377.26   36.50
  -6 -37   6   64.09   20.50
  -6  37   6   89.19   27.50
  -6  37   6   96.79   15.60
  -5 -37   6  144.19   22.90
  -5  37   6  100.19   26.70
  -5  37   6  132.19   17.30
  -4 -37   6   -6.30   12.10
  -4  37   6  -19.60   18.70
  -4  37   6   -4.50   10.20
   4  37  -6   37.80   18.10
  -3 -37   6   59.29   15.60
   3  37  -6   47.90   16.80
  -3  37   6  102.89   25.30
  -3  37   6   72.59   14.40
   2  37  -6  233.88   23.20
  -2  37   6  240.88   23.30
  -2  37   6  249.97   34.10
  -1 -37   6    7.60   10.80
   1  37  -6   37.90   11.30
   1  37  -6   33.90    8.80
  -1  37   6   55.89   14.50
  -1  37   6   48.70   19.50
   1  37  -6   12.30    9.20
   0  37  -6   56.99   11.50
   0  37   6   69.69   20.00
   0  37  -6   46.10   15.50
   0  37   6   36.60   14.70
  -1  37  -6  216.28   26.00
   1  37   6  207.78   28.60
   1  37   6  176.58   24.10
  -1  37  -6  182.28   15.00
  -2 -37  -6   80.59   23.40
  -2  37  -6   82.49    9.80
   2  37   6   42.20   19.70
  -5 -38   6   13.80   15.90
  -5  38   6   29.50   11.90
  -5  38   6   43.00   23.10
  -4  38   6  135.99   30.30
  -4  38   6  119.19   16.30
  -3 -38   6    1.70   12.10
  -3  38   6   34.10   12.00
  -3  38   6   39.90   19.90
   3  38  -6   49.40   16.70
  -2 -38   6   -0.90   11.60
  -2  38   6    4.50   18.00
  -2  38   6   20.10   11.90
   2  38  -6    4.60   12.40
  -1  38   6   73.29   16.20
   1  38  -6   88.09   11.00
   1  38  -6  119.29   15.50
  -1  38   6  101.09   24.10
   1  38  -6   92.29   11.40
   0  38   6   59.99   16.10
   0  38  -6   69.79   11.90
   0  38  -6   80.69   14.20
   0  38  -6   55.89   15.90
   0  38   6   98.09   24.30
   1 -38   6   -4.30   13.70
   1  38   6   10.90   13.70
  -1  38  -6   -5.10    7.30
   1  38   6    2.20   16.90
  -2 -38  -6   88.09   24.40
   2  38   6   61.19   23.50
  -5  39   6  527.85   47.30
  -5  39   6  505.75   25.70
  -4 -39   6   -8.50   14.60
  -4  39   6   18.70   11.10
  -4  39   6    1.70   21.40
  -3  39   6  267.07   34.60
  -3  39   6  245.08   22.00
   2  39  -6  577.64   31.80
  -2  39   6  572.74   45.10
  -2  39   6  568.14   32.30
  -1 -39   6    2.70   17.30
  -1  39   6   66.09   22.00
   1  39  -6   73.29   13.40
   1  39  -6   75.69    9.40
  -1  39   6   67.29   15.70
   0  39  -6  230.08   20.20
   0  39  -6  197.38   16.60
   0  39   6  283.47   33.00
   0  39   6  240.08   26.10
   1  39   6  462.25   38.80
  -1  39  -6  429.66   29.40
  -4 -40   6   -6.80   14.20
  -4  40   6   57.09   22.50
  -4  40   6   26.90   11.80
  -3 -40   6   22.20   13.90
  -3  40   6   -8.20   20.30
  -3  40   6   15.00   11.70
  -2 -40   6  -14.70   12.50
  -2  40   6   21.50   19.20
  -2  40   6   10.10   11.90
  -1  40   6   70.19   15.80
  -1  40   6   80.49   23.30
   1  40  -6   50.79   12.30
   0  40  -6   29.90    9.10
   0  40   6   39.40   21.30
   0  40  -6   49.60   13.20
  -1 -40  -6   15.60   20.00
   1  40   6   30.40   20.50
  -1  40  -6   16.30   14.10
  -3  41   6  122.19   16.20
  -3  41   6  133.59   27.30
  -2  41   6  265.87   34.80
  -2  41   6  244.18   23.30
   1  41  -6   20.70   11.30
  -1  41   6   17.20   20.50
   0  41   6   75.29   25.00
   0  41  -6   64.09   14.30
 -10   0   7   -0.90   15.50
 -10   0   7   -6.90   12.50
  -9   0   7   11.00   12.70
  -9   0   7    4.60   11.90
  -8   0   7   13.80   12.70
  -8   0   7   27.40   13.80
  -7   0   7    7.00    8.70
  -7   0   7    5.70   10.10
  -6   0   7  -10.20    8.40
   6   0  -7   -2.10   11.00
  -6   0   7   20.90    9.70
   5   0  -7   10.60    9.90
   5   0  -7   -5.70    9.10
  -5   0   7    4.80    7.30
  -5   0   7    0.30    7.80
  -4   0   7   19.60    8.90
   4   0  -7   19.40    9.50
  -4   0   7   13.40    7.60
   4   0  -7   25.20    9.40
  -3   0   7    8.50    6.70
   3   0  -7   10.40    8.50
  -3   0   7    0.60    6.10
   3   0  -7    0.60    7.50
   2   0  -7    7.00    7.10
   2   0  -7   18.70    8.50
  -2   0   7   16.00    7.60
  -2   0   7   -2.40    6.50
  -1   0   7    2.60    7.20
   1   0  -7    1.60    7.90
   1   0  -7    7.00    7.10
  -1   0   7   12.20    7.40
   0   0  -7   18.30    9.20
   0   0   7    9.70    7.30
   0   0   7    4.80    7.00
   0   0  -7   -2.70    8.00
  -1   0  -7    6.60   10.00
  -1   0  -7    2.30    8.60
   1   0   7    6.20    7.20
   1   0   7   -6.70    7.40
   2   0   7    0.30    9.50
  -2   0  -7    9.20   10.50
   2   0   7   19.40   10.20
   3   0   7    4.50   10.20
  -3   0  -7   -5.30   11.60
   3   0   7   10.40   10.40
   4   0   7    2.30   11.50
   5   0   7  -11.60   12.20
   6   0   7    5.00   16.30
  -7   0  -7    3.00   21.10
   7   0   7   -4.90   18.10
 -10  -1   7   39.00   17.00
 -10  -1   7   78.39   19.70
 -10   1   7   56.59   19.60
 -10   1   7   64.69   20.00
  -9  -1   7  421.46   34.10
  -9  -1   7  446.86   34.60
  -9   1   7  409.26   33.90
  -9   1   7  375.46   32.20
  -8  -1   7 1222.98   56.69
  -8  -1   7 1149.69   53.19
  -8   1   7 1217.48   55.39
  -8   1   7 1228.58   56.29
  -7  -1   7   41.40   13.40
  -7  -1   7   48.50   13.40
  -7   1   7   28.60   12.40
  -7   1   7   65.59   15.20
  -6  -1   7  673.23   37.80
   6  -1  -7  554.14   34.10
  -6  -1   7  635.24   34.60
  -6   1   7  583.54   34.30
   6   1  -7  645.44   35.60
  -6   1   7  631.14   36.10
   5  -1  -7  867.51   39.20
  -5  -1   7  845.52   40.00
   5  -1  -7  759.92   39.20
  -5  -1   7  885.81   42.40
   5   1  -7  880.01   41.40
  -5   1   7  827.62   40.80
  -5   1   7  918.71   43.30
   5   1  -7  892.01   39.40
  -4  -1   7  698.83   35.20
   4  -1  -7  716.83   35.80
   4  -1  -7  728.33   35.20
  -4  -1   7  675.93   36.40
   4   1  -7  775.02   36.40
  -4   1   7  732.03   37.70
  -4   1   7  706.13   36.30
   4   1  -7  700.93   34.40
   3  -1  -7  361.26   23.70
   3  -1  -7  280.67   22.30
  -3  -1   7  340.87   23.80
  -3  -1   7  329.07   25.00
  -3   1   7  270.17   22.60
   3   1  -7  319.37   23.00
   3   1  -7  341.87   23.00
  -3   1   7  319.77   23.20
  -2  -1   7 1313.67   51.09
   2  -1  -7 1333.97   49.70
   2  -1  -7 1335.27   48.50
  -2  -1   7 1290.87   51.99
   2   1  -7 1287.17   48.00
  -2   1   7 1272.37   50.79
   2   1  -7 1331.87   48.70
  -2   1   7 1357.16   53.39
  -1  -1   7 1109.79   47.40
   1  -1  -7 1041.60   42.40
  -1  -1   7 1109.69   46.70
   1  -1  -7 1050.39   43.60
  -1   1   7 1066.69   46.00
  -1   1   7 1102.99   47.40
   1   1  -7 1116.69   43.60
   1   1  -7 1081.89   44.10
   0  -1  -7    9.70    9.00
   0  -1   7   24.20   10.10
   0  -1  -7   35.70   10.60
   0  -1   7   24.80   10.40
   0   1   7   22.50    9.50
   0   1  -7   14.70    9.00
   0   1  -7   16.00    9.40
   0   1   7   14.10    9.10
   1  -1   7 1812.82   67.29
  -1  -1  -7 1821.92   65.29
  -1  -1  -7 1924.91   64.79
   1  -1   7 1779.62   66.59
  -1   1  -7 1920.71   64.49
   1   1   7 1830.82   67.99
  -1   1  -7 1851.01   65.59
   1   1   7 1893.11   68.29
   2  -1   7 1460.65   60.79
  -2  -1  -7 1551.54   59.29
   2  -1   7 1583.34   63.09
   2   1   7 1637.34   64.29
  -2   1  -7 1579.74   59.39
   2   1   7 1420.46   60.59
   3  -1   7   39.90   12.90
   3  -1   7   25.30   11.50
   3   1   7   10.50    9.10
   3   1   7   35.90   14.50
  -3   1  -7   20.40   13.50
   4  -1   7  562.24   39.90
   4   1   7  631.54   42.10
   5  -1   7  288.47   32.50
   5   1   7  299.47   30.50
   6  -1   7    4.50   16.80
   6   1   7   17.80   18.10
  -7  -1  -7  191.88   32.70
   7  -1   7  162.28   29.40
   7   1   7  123.39   30.10
  -7   1  -7  161.28   31.90
 -10  -2   7  254.27   30.00
 -10  -2   7  198.78   27.00
 -10   2   7  287.47   31.80
 -10   2   7  215.68   29.30
  -9  -2   7   72.69   17.90
  -9  -2   7   80.49   18.00
  -9   2   7   92.59   18.70
  -9   2   7   88.39   20.00
  -8  -2   7   43.30   14.10
  -8  -2   7   51.89   17.30
  -8   2   7   73.29   16.50
  -8   2   7   39.30   14.30
  -7  -2   7  784.62   40.50
  -7  -2   7  780.72   43.00
  -7   2   7  766.72   41.70
   7   2  -7  791.02   45.80
  -7   2   7  840.62   43.10
  -6  -2   7  993.50   46.90
   6  -2  -7  934.31   43.50
  -6  -2   7 1012.60   44.60
   6   2  -7  928.81   42.30
  -6   2   7  936.91   44.50
  -6   2   7  881.41   43.90
  -5  -2   7   41.70   12.20
   5  -2  -7   18.20   10.40
   5  -2  -7   20.40   10.10
  -5  -2   7   22.30    9.50
   5   2  -7   26.40   11.20
  -5   2   7   24.70   11.10
   5   2  -7   23.80   10.00
  -5   2   7   36.60   10.80
   4  -2  -7  810.72   37.20
  -4  -2   7  739.93   38.90
   4  -2  -7  789.72   37.00
  -4  -2   7  788.72   37.50
  -4   2   7  819.92   40.20
   4   2  -7  769.92   37.50
  -4   2   7  793.32   38.70
   4   2  -7  776.32   36.50
  -3  -2   7 1118.19   46.00
   3  -2  -7 1085.29   43.90
   3  -2  -7 1151.58   45.30
  -3  -2   7 1194.88   49.00
   3   2  -7 1147.69   44.70
  -3   2   7 1124.19   48.20
   3   2  -7 1151.98   44.50
  -3   2   7 1097.59   46.60
  -2  -2   7  177.08   17.30
  -2  -2   7  177.68   18.20
   2  -2  -7  178.18   17.60
   2  -2  -7  168.58   17.10
  -2   2   7  122.89   17.20
   2   2  -7  155.68   16.40
   2   2  -7  178.58   17.70
  -2   2   7  161.48   17.70
  -1  -2   7  899.71   41.10
  -1  -2   7  865.81   41.60
   1  -2  -7  901.61   39.00
   1  -2  -7  972.80   41.00
  -1   2   7  902.81   41.70
  -1   2   7  910.31   42.60
   1   2  -7  926.11   38.80
   1   2  -7  882.51   39.80
   0  -2  -7  940.11   42.40
   0  -2  -7  941.21   40.60
   0  -2   7  972.10   43.70
   0  -2   7  900.81   43.00
   0   2   7  939.31   44.00
   0   2  -7  890.41   41.10
   0   2   7  955.40   44.00
   0   2  -7  925.01   40.40
  -1  -2  -7  163.68   19.00
   1  -2   7  189.58   19.70
   1  -2   7  165.78   22.40
  -1  -2  -7  142.09   19.10
  -1   2  -7  167.28   18.30
   1   2   7  136.29   20.10
  -1   2  -7  151.98   20.10
   1   2   7  145.89   20.90
   2  -2   7  281.37   25.60
  -2  -2  -7  289.77   24.80
   2  -2   7  295.07   25.80
   2   2   7  293.47   26.20
  -2   2  -7  286.47   24.80
   2   2   7  298.27   26.90
   3  -2   7  725.43   41.60
   3  -2   7  660.93   39.50
   3   2   7  597.34   38.40
   3   2   7  741.83   42.90
  -3   2  -7  614.74   37.60
   4  -2   7   28.80   12.90
   4   2   7   20.40   13.00
   5  -2   7  222.58   30.80
   5   2   7  223.98   31.10
   6  -2   7  406.66   40.00
   6   2   7  398.36   40.20
  -7  -2  -7  122.39   31.10
   7  -2   7  190.68   31.90
  -7   2  -7  168.48   32.70
   7   2   7  207.88   34.20
 -10  -3   7   24.40   16.00
 -10  -3   7   26.80   16.10
 -10   3   7   15.70   17.40
 -10   3   7  -11.70   14.20
  -9  -3   7    6.10   14.00
  -9  -3   7    1.10   13.10
  -9   3   7    7.80   13.50
  -9   3   7    6.80   11.40
  -8  -3   7  108.39   21.00
  -8  -3   7  100.89   17.30
  -8   3   7   99.89   18.50
  -8   3   7  100.29   18.60
  -7  -3   7  134.49   19.30
  -7  -3   7  151.18   21.90
  -7   3   7  126.29   19.50
  -7   3   7  145.29   21.50
   7   3  -7  154.58   21.40
  -6  -3   7   25.20   10.40
   6  -3  -7   14.60   12.90
  -6  -3   7   42.50   11.60
  -6   3   7   36.10   12.40
  -6   3   7   27.60   11.40
   6   3  -7   18.60   11.50
   5  -3  -7   44.40   13.40
  -5  -3   7   39.20   11.20
  -5  -3   7   31.20    9.60
   5   3  -7   30.00   10.70
  -5   3   7   20.70    8.80
  -5   3   7   43.40   11.80
   5   3  -7   27.40   11.60
   4  -3  -7   82.59   14.60
  -4  -3   7   62.89   14.00
   4  -3  -7   71.19   13.10
  -4  -3   7   77.79   13.90
  -4   3   7   81.79   14.20
   4   3  -7   77.59   13.10
  -4   3   7   99.39   16.20
   4   3  -7   76.09   13.80
  -3  -3   7   81.29   13.90
   3  -3  -7   61.09   12.10
  -3  -3   7   60.39   12.00
   3  -3  -7   83.39   14.20
   3   3  -7   63.59   12.40
  -3   3   7   61.39   13.20
   3   3  -7   60.99   10.90
  -3   3   7   57.09   12.40
   2  -3  -7  300.27   23.00
  -2  -3   7  291.17   22.70
  -2  -3   7  279.47   22.80
   2  -3  -7  315.27   22.50
  -2   3   7  299.37   23.10
   2   3  -7  311.67   22.00
  -2   3   7  331.27   25.20
   2   3  -7  324.37   22.60
  -1  -3   7   35.00   10.00
  -1  -3   7   17.90    8.90
   1  -3  -7   23.60   10.70
   1  -3  -7   18.30    9.30
  -1   3   7   36.60   10.60
   1   3  -7   19.00    8.80
   1   3  -7   15.50    8.50
  -1   3   7   28.30    9.40
   0  -3  -7    9.10    8.90
   0  -3   7   10.10    7.70
   0  -3   7   24.70   10.40
   0  -3  -7    8.70    9.70
   0   3   7   11.90    8.00
   0   3   7    8.90    7.50
   0   3  -7   15.10    8.60
   0   3  -7    5.80    9.30
  -1  -3  -7   45.60   12.50
   1  -3   7   35.30   11.90
   1  -3   7   52.29   13.70
  -1  -3  -7   62.69   13.20
   1   3   7   66.99   14.60
  -1   3  -7   57.39   12.30
  -1   3  -7   45.40   13.10
   1   3   7   42.10   12.10
   2  -3   7   19.40   10.30
  -2  -3  -7   21.40   11.60
   2  -3   7   16.00   10.00
   2   3   7   17.70   10.40
  -2   3  -7    5.50   11.20
   2   3   7    1.20    7.80
   3  -3   7   16.20   11.50
   3  -3   7    2.30    9.10
  -3   3  -7    3.50   11.50
   3   3   7   19.20   11.80
   3   3   7   16.20   10.80
   4  -3   7   68.49   17.10
   4   3   7   72.89   19.30
   5  -3   7   -4.00   14.10
   5   3   7   10.50   13.80
   6  -3   7   30.30   19.00
   6   3   7   29.70   18.00
  -7  -3  -7   -3.70   22.10
   7  -3   7  -11.30   18.10
  -7   3  -7    9.40   20.70
   7   3   7  -16.30   20.60
 -10  -4   7  573.24   41.20
 -10  -4   7  496.95   37.80
 -10   4   7  506.65   39.50
 -10   4   7  534.35   40.30
  -9  -4   7  146.79   23.10
  -9  -4   7  122.79   23.60
  -9   4   7  164.38   23.80
  -9   4   7  150.08   23.60
  -8  -4   7   64.69   16.10
  -8  -4   7  102.99   19.00
  -8   4   7   84.59   16.90
  -8   4   7   47.50   14.90
  -7  -4   7 1776.52   64.89
  -7  -4   7 1895.11   70.69
  -7   4   7 1913.61   70.09
  -7   4   7 1810.42   69.39
  -6  -4   7 1103.29   46.40
  -6  -4   7 1115.39   49.90
  -6   4   7 1118.19   49.30
   6   4  -7 1025.20   44.70
  -6   4   7 1090.79   49.20
  -5  -4   7   -8.50    6.90
   5  -4  -7   -7.30    8.20
  -5  -4   7    3.90    7.30
  -5   4   7   -5.80    7.80
  -5   4   7   -1.30    6.60
   5   4  -7   16.80   10.00
   5   4  -7    3.10    9.20
  -4  -4   7  884.21   38.60
   4  -4  -7  852.11   38.20
   4  -4  -7  813.02   38.40
  -4  -4   7  804.32   40.40
  -4   4   7  785.62   39.30
   4   4  -7  794.32   36.30
   4   4  -7  816.42   38.30
  -4   4   7  855.41   40.70
  -3  -4   7 1584.04   56.69
   3  -4  -7 1617.74   57.09
  -3  -4   7 1578.54   59.39
   3  -4  -7 1656.93   56.19
   3   4  -7 1670.23   54.99
  -3   4   7 1622.44   60.19
  -3   4   7 1647.54   60.69
   3   4  -7 1657.73   56.79
  -2  -4   7  151.38   17.00
   2  -4  -7  159.08   16.90
  -2  -4   7  150.18   17.30
   2  -4  -7  166.28   17.40
  -2   4   7  148.79   17.00
   2   4  -7  161.38   16.10
  -2   4   7  192.68   19.50
   2   4  -7  192.48   17.30
   1  -4  -7  697.13   33.90
   1  -4  -7  682.93   34.40
  -1  -4   7  714.33   35.40
  -1  -4   7  668.13   35.50
  -1   4   7  644.24   35.30
   1   4  -7  726.83   33.60
  -1   4   7  662.13   35.90
   1   4  -7  689.43   34.00
   0  -4  -7 1975.00   64.79
   0  -4  -7 1875.91   65.09
   0  -4   7 1958.10   67.29
   0  -4   7 1969.70   68.29
   0   4   7 1936.31   69.49
   0   4  -7 1918.81   63.59
   0   4   7 2009.90   69.49
   0   4  -7 1874.51   64.39
  -1  -4  -7  473.75   35.90
   1  -4   7  478.15   31.00
  -1  -4  -7  506.95   30.60
   1  -4   7  559.94   33.20
  -1   4  -7  483.05   31.90
  -1   4  -7  530.55   30.60
   1   4   7  562.94   34.30
   1   4   7  536.85   33.40
   2  -4   7  287.17   25.10
   2  -4   7  311.77   27.20
  -2  -4  -7  245.08   25.00
   2   4   7  328.77   26.80
  -2   4  -7  334.87   25.70
   2   4   7  345.47   28.80
   3  -4   7  952.60   48.50
   3   4   7  939.71   50.09
  -3   4  -7  958.30   47.40
   3   4   7  967.90   49.00
   4  -4   7  185.78   26.50
   4   4   7  176.18   25.90
   5  -4   7  200.18   27.80
   5   4   7  234.98   31.70
   6  -4   7  588.74   46.20
   6   4   7  592.34   45.40
  -7  -4  -7  153.88   33.10
   7  -4   7  145.69   29.80
  -7   4  -7  145.29   30.30
   7   4   7  211.98   33.10
 -10  -5   7  -11.90   14.60
 -10  -5   7   -7.70   14.90
 -10   5   7    1.10   16.20
 -10   5   7    7.10   13.10
  -9  -5   7  123.29   22.20
  -9  -5   7  110.79   21.10
  -9   5   7  110.19   22.70
  -9   5   7  122.59   21.30
  -8  -5   7  582.24   36.10
  -8  -5   7  533.85   36.90
  -8   5   7  614.14   37.60
  -8   5   7  559.54   39.20
  -7  -5   7  277.67   23.90
  -7  -5   7  243.38   25.10
  -7   5   7  234.28   23.40
  -7   5   7  274.77   27.10
  -6  -5   7   25.30   10.50
  -6  -5   7   23.50   10.90
  -6   5   7   13.90    9.60
   6   5  -7    6.30   10.60
  -6   5   7   11.50    9.90
   5  -5  -7  846.62   41.70
  -5  -5   7  906.11   40.00
  -5  -5   7  836.22   41.90
   5   5  -7  900.21   38.70
  -5   5   7  899.81   43.00
   5   5  -7  910.11   43.10
  -5   5   7  888.71   43.10
  -4  -5   7  690.23   33.80
  -4  -5   7  659.23   36.30
   4  -5  -7  613.74   33.30
   4  -5  -7  689.13   35.90
  -4   5   7  720.53   37.30
   4   5  -7  686.83   35.30
   4   5  -7  700.23   33.20
  -4   5   7  649.14   36.10
   3  -5  -7   51.89   13.20
   3  -5  -7   43.50   10.60
  -3  -5   7   44.80   12.20
  -3  -5   7   49.50   11.20
  -3   5   7   40.80   11.20
  -3   5   7   49.10   11.20
   3   5  -7   43.40   10.90
   3   5  -7   34.80   10.60
  -2  -5   7 1120.89   47.20
   2  -5  -7 1028.50   43.70
  -2  -5   7 1060.79   44.10
   2  -5  -7 1063.59   42.70
   2   5  -7 1073.49   43.10
  -2   5   7 1141.39   48.00
   2   5  -7 1047.60   41.80
  -2   5   7 1113.19   47.20
   1  -5  -7  322.97   23.30
  -1  -5   7  357.66   25.30
  -1  -5   7  286.47   22.20
   1  -5  -7  317.27   23.80
   1   5  -7  310.27   21.80
   1   5  -7  320.97   22.40
  -1   5   7  345.67   25.10
  -1   5   7  304.67   24.30
   0  -5   7   97.89   16.80
   0  -5  -7   97.69   15.50
   0  -5   7   71.39   14.00
   0  -5  -7   87.09   14.60
   0   5  -7  123.79   16.90
   0   5  -7  114.59   15.70
   0   5   7   99.69   16.70
   0   5   7   94.99   16.60
  -1  -5  -7  924.91   43.40
   1  -5   7  969.10   45.70
   1  -5   7 1007.90   46.70
   1   5   7 1048.10   48.10
  -1   5  -7  942.71   43.80
  -1   5  -7 1008.60   43.70
   1   5   7 1128.19   49.80
   2  -5   7  678.73   38.90
   2  -5   7  679.53   38.70
   2   5   7  687.63   39.90
   2   5   7  589.04   37.70
  -2   5  -7  628.84   36.10
   3  -5   7   69.69   17.20
   3   5   7   54.19   15.60
  -3   5  -7   43.20   14.70
   3   5   7   31.60   14.30
   4  -5   7  231.28   27.40
  -4   5  -7  250.87   30.30
   4   5   7  221.98   29.30
   4   5   7  189.78   27.60
   5  -5   7  360.26   33.30
   5   5   7  327.57   32.70
   6  -5   7   40.50   20.10
   6   5   7   71.89   20.90
  -7  -5  -7  126.29   29.50
   7  -5   7  123.29   28.90
   7   5   7  110.89   27.40
  -7   5  -7  123.59   28.00
 -10  -6   7  149.69   25.50
 -10  -6   7  162.78   25.50
 -10   6   7  184.68   26.70
 -10   6   7  159.28   26.00
  -9  -6   7   70.19   20.20
  -9  -6   7   52.19   16.90
  -9   6   7   81.79   18.70
  -9   6   7   83.99   21.20
  -8  -6   7   34.00   13.00
  -8  -6   7   33.80   15.40
  -8   6   7   11.70   12.90
  -8   6   7   34.40   13.20
  -7  -6   7  433.26   33.10
  -7  -6   7  412.86   28.50
  -7   6   7  404.26   32.20
  -7   6   7  427.06   30.30
  -6  -6   7  546.45   34.60
  -6  -6   7  622.94   32.90
  -6   6   7  601.24   36.10
  -6   6   7  603.24   35.10
   6   6  -7  601.64   32.70
  -5  -6   7   16.90    9.80
   5  -6  -7  -17.10   11.30
  -5  -6   7   36.20   10.00
  -5   6   7   25.60   10.50
  -5   6   7    4.90    8.20
   5   6  -7   19.20   11.10
   5   6  -7   29.40   10.00
   4  -6  -7  503.55   30.00
  -4  -6   7  560.24   32.60
   4  -6  -7  571.44   32.60
  -4  -6   7  554.94   29.80
   4   6  -7  508.65   30.20
  -4   6   7  475.95   30.90
   4   6  -7  525.65   28.80
  -4   6   7  528.05   31.70
  -3  -6   7  267.77   23.40
   3  -6  -7  251.37   21.20
   3  -6  -7  252.87   20.90
  -3  -6   7  282.67   21.10
  -3   6   7  249.08   21.50
  -3   6   7  293.77   23.40
   3   6  -7  271.17   22.20
   3   6  -7  293.67   20.90
  -2  -6   7   47.70   11.70
  -2  -6   7   53.69   11.80
   2  -6  -7   49.20   11.70
   2  -6  -7   51.59   11.80
  -2   6   7   48.00   11.60
   2   6  -7   45.80   10.90
   2   6  -7   45.00   10.10
  -2   6   7   32.00   10.50
   1  -6  -7  382.76   25.90
  -1  -6   7  410.96   26.10
   1  -6  -7  369.66   24.40
  -1  -6   7  337.07   24.90
   1   6  -7  406.96   25.20
  -1   6   7  397.86   27.80
   1   6  -7  420.76   25.60
  -1   6   7  366.26   26.10
   0  -6  -7  310.27   24.10
   0  -6   7  316.47   24.90
   0  -6   7  339.27   26.00
   0  -6  -7  345.27   25.50
   0   6  -7  318.27   22.40
   0   6   7  351.86   26.60
   0   6  -7  318.37   24.30
   0   6   7  317.97   25.30
  -1  -6  -7   58.19   14.30
   1  -6   7   53.99   13.00
   1  -6   7   48.30   12.80
   1   6   7   71.89   16.50
  -1   6  -7   40.20   11.60
   1   6   7   66.29   14.70
  -1   6  -7   54.89   14.60
   2  -6   7   44.60   13.30
   2  -6   7   82.59   16.50
   2   6   7   70.89   16.30
  -2   6  -7   84.49   15.30
   2   6   7   70.89   15.50
   3  -6   7  211.28   25.40
   3   6   7  204.58   24.20
   3   6   7  264.07   25.40
  -3   6  -7  231.88   26.00
   4  -6   7   28.60   14.00
   4   6   7   10.50   14.60
  -4   6  -7  -11.20   12.90
   4   6   7   16.80   11.50
   5  -6   7   48.30   16.60
   5   6   7   60.19   20.70
   6  -6   7  152.08   27.70
   6   6   7  140.09   26.20
   7  -6   7   10.50   20.80
  -7  -6  -7   35.00   23.40
   7   6   7   12.70   21.80
  -7   6  -7   15.00   22.50
 -10  -7   7   37.50   17.50
 -10  -7   7    6.70   15.30
 -10   7   7   32.90   17.30
 -10   7   7   37.70   19.10
  -9  -7   7  250.97   28.00
  -9  -7   7  242.68   26.80
  -9   7   7  207.28   24.20
  -9   7   7  187.38   27.30
  -8  -7   7  824.42   46.20
  -8  -7   7  867.81   42.30
  -8   7   7  835.82   47.10
  -8   7   7  846.52   44.70
  -7  -7   7  370.26   29.70
  -7  -7   7  373.36   26.50
  -7   7   7  371.36   30.20
  -7   7   7  377.46   28.50
  -6  -7   7  453.75   31.50
  -6  -7   7  419.16   26.90
   6   7  -7  373.26   26.00
  -6   7   7  434.76   29.90
  -6   7   7  379.06   30.40
  -5  -7   7 2717.43   85.49
  -5  -7   7 2570.14   77.39
  -5   7   7 2590.74   83.09
   5   7  -7 2552.24   82.19
  -5   7   7 2583.34   84.89
   5   7  -7 2524.15   75.29
   4  -7  -7 1581.44   57.99
   4  -7  -7 1542.35   55.29
  -4  -7   7 1605.64   55.19
  -4  -7   7 1497.85   58.09
  -4   7   7 1523.05   58.29
   4   7  -7 1529.05   52.79
  -4   7   7 1532.75   59.69
   4   7  -7 1580.84   57.49
   3  -7  -7  566.84   29.60
   3  -7  -7  601.44   32.00
  -3  -7   7  528.65   31.70
  -3  -7   7  516.65   28.90
   3   7  -7  577.64   31.00
  -3   7   7  537.35   31.80
   3   7  -7  567.74   28.70
  -3   7   7  573.74   33.50
   2  -7  -7 2017.60   66.79
  -2  -7   7 2037.60   65.59
  -2  -7   7 1920.31   67.59
   2  -7  -7 1982.00   63.49
   2   7  -7 2061.69   63.19
  -2   7   7 1995.50   68.79
  -2   7   7 1956.10   69.19
   2   7  -7 1988.10   63.69
   1  -7  -7  796.22   36.40
  -1  -7   7  867.41   40.80
   1  -7  -7  876.31   39.90
  -1  -7   7  882.61   39.40
  -1   7   7  833.82   40.80
  -1   7   7  803.62   40.40
   1   7  -7  806.62   36.80
   1   7  -7  824.22   36.80
   0  -7  -7  157.58   18.50
   0  -7   7  126.99   18.00
   0  -7   7  124.29   18.40
   0  -7  -7  105.19   17.30
   0   7   7  162.68   21.60
   0   7   7  132.49   18.60
   0   7  -7  172.98   18.00
   0   7  -7  128.99   15.30
   1  -7   7 1696.93   63.49
   1  -7   7 1612.94   62.59
  -1  -7  -7 1739.43   62.69
   1   7   7 1750.32   65.69
  -1   7  -7 1691.03   61.49
  -1   7  -7 1749.43   59.49
   1   7   7 1585.14   63.99
   2  -7   7  686.13   38.50
   2  -7   7  672.13   39.40
   2   7   7  729.73   41.50
   2   7   7  716.83   41.40
  -2   7  -7  697.83   36.20
   3  -7   7   55.09   15.90
   3   7   7   49.30   14.60
  -3   7  -7   48.70   14.50
   3   7   7   57.69   15.40
   4  -7   7  299.57   30.60
   4   7   7  327.57   31.90
  -4   7  -7  363.36   33.30
   4   7   7  367.86   31.40
   5  -7   7  642.54   44.70
   5   7   7  702.63   48.00
   6  -7   7   20.50   16.30
   6   7   7   20.30   19.30
   7  -7   7  389.86   42.30
  -7  -7  -7  417.36   49.90
  -7   7  -7  418.66   45.40
   7   7   7  376.66   40.50
 -10  -8   7   41.80   16.50
 -10  -8   7   34.20   17.30
 -10   8   7   20.80   15.50
 -10   8   7   54.09   20.20
  -9  -8   7  163.38   23.10
  -9  -8   7  202.88   28.40
  -9   8   7  191.18   25.50
  -9   8   7  195.38   28.20
  -8  -8   7   20.70   11.70
  -8  -8   7   24.10   14.40
  -8   8   7   28.50   14.90
  -8   8   7   33.40   13.00
  -7  -8   7  240.18   25.90
  -7  -8   7  248.48   22.60
  -7   8   7  231.58   23.80
  -7   8   7  296.37   27.50
  -6  -8   7  188.38   21.30
  -6  -8   7  148.79   17.00
   6   8  -7  185.48   18.80
  -6   8   7  154.78   20.80
  -6   8   7  194.58   22.00
  -5  -8   7  166.38   19.60
  -5  -8   7  149.29   16.40
   5   8  -7  126.09   16.20
  -5   8   7  124.99   19.30
   5   8  -7  160.38   19.00
  -5   8   7   90.69   17.10
   4  -8  -7  221.08   20.80
  -4  -8   7  210.08   21.10
  -4  -8   7  220.78   18.40
   4  -8  -7  251.87   22.90
  -4   8   7  229.78   21.80
   4   8  -7  198.08   20.10
  -4   8   7  213.88   20.50
   4   8  -7  189.38   17.90
  -3  -8   7  561.04   32.60
   3  -8  -7  548.35   29.50
  -3  -8   7  635.14   30.80
   3  -8  -7  561.84   32.20
  -3   8   7  563.24   33.20
   3   8  -7  611.94   31.70
   3   8  -7  560.04   28.50
  -3   8   7  565.34   33.50
   2  -8  -7   22.90    8.70
   2  -8  -7   25.90   11.00
  -2  -8   7   10.10    6.60
  -2  -8   7   11.00    7.60
  -2   8   7   21.60    9.50
  -2   8   7   12.40    8.70
   2   8  -7   10.70    7.50
   2   8  -7   18.60    8.30
  -1  -8   7  296.97   23.10
  -1  -8   7  271.37   21.80
   1  -8  -7  325.37   22.20
   1  -8  -7  305.57   23.50
   1   8  -7  278.67   21.00
  -1   8   7  309.47   24.80
   1   8  -7  299.87   22.30
  -1   8   7  263.47   22.80
   0  -8   7  499.65   30.20
   0  -8  -7  491.75   28.70
   0  -8   7  444.06   29.60
   0  -8  -7  499.15   30.70
   0   8  -7  454.05   26.60
   0   8  -7  475.15   28.40
   0   8   7  446.26   30.30
   0   8   7  469.15   30.60
   1  -8   7  346.27   26.20
  -1  -8  -7  305.67   25.60
   1  -8   7  340.17   26.30
  -1   8  -7  300.47   25.00
   1   8   7  353.26   27.10
  -1   8  -7  358.36   25.20
   1   8   7  334.17   27.40
   2  -8   7    5.00    9.10
   2  -8   7   11.90   10.00
   2   8   7    5.70    9.30
  -2   8  -7    4.10   10.90
   2   8   7   22.10   10.60
   3  -8   7  254.97   26.30
  -3   8  -7  296.47   27.60
   3   8   7  266.37   27.60
   3   8   7  278.87   27.50
   4  -8   7  290.67   29.50
   4   8   7  274.57   28.00
   4   8   7  291.17   29.70
  -4   8  -7  282.27   27.80
   5  -8   7   61.39   18.20
   5   8   7   39.90   16.90
   6  -8   7  138.89   27.30
   6   8   7  168.48   28.80
   7  -8   7   64.59   23.80
  -7  -8  -7   60.09   25.20
  -7   8  -7   48.70   25.10
 -10  -9   7   36.00   17.70
 -10  -9   7    2.90   14.10
 -10   9   7   18.60   14.30
 -10   9   7    5.80   18.20
  -9  -9   7  105.69   20.50
  -9  -9   7   97.69   18.30
  -9   9   7   76.29   21.40
  -9   9   7   70.79   17.40
  -8  -9   7  289.47   25.50
  -8  -9   7  273.37   27.70
  -8   9   7  273.17   28.30
  -8   9   7  296.17   26.80
  -7  -9   7   21.80   10.40
  -7  -9   7   18.60   10.90
  -7   9   7   16.80   13.20
  -7   9   7   -4.10    8.30
  -6  -9   7  441.46   26.60
  -6  -9   7  425.46   31.90
   6   9  -7  427.76   26.60
  -6   9   7  476.85   34.00
  -6   9   7  433.56   29.80
  -5  -9   7 1272.57   53.39
  -5  -9   7 1163.38   45.60
  -5   9   7 1196.58   53.49
   5   9  -7 1233.88   51.89
   5   9  -7 1220.48   45.20
  -5   9   7 1216.28   51.69
  -4  -9   7  344.37   22.70
  -4  -9   7  368.46   26.60
   4  -9  -7  284.57   25.70
   4  -9  -7  317.37   28.50
  -4   9   7  369.96   26.20
  -4   9   7  369.76   28.30
   4   9  -7  377.96   26.60
   4   9  -7  368.26   23.20
   3  -9  -7  518.45   29.20
   3  -9  -7  511.85   30.70
  -3  -9   7  581.44   33.10
  -3  -9   7  516.35   28.40
  -3   9   7  474.05   30.50
   3   9  -7  572.74   30.60
  -3   9   7  559.04   33.00
   3   9  -7  500.85   26.80
   2  -9  -7 1004.50   42.80
   2  -9  -7  952.50   39.80
  -2  -9   7  865.51   41.10
  -2  -9   7  900.91   39.40
  -2   9   7  895.31   42.40
   2   9  -7  943.61   38.00
  -2   9   7  829.82   42.40
   2   9  -7  933.11   39.30
  -1  -9   7 1099.09   45.40
  -1  -9   7 1083.79   46.80
   1  -9  -7 1109.69   44.50
   1  -9  -7 1143.39   46.80
   1   9  -7 1108.29   43.50
   1   9  -7 1103.19   43.80
  -1   9   7 1138.69   49.30
  -1   9   7 1056.69   48.00
   0  -9   7  105.09   16.50
   0  -9  -7  136.69   18.50
   0  -9   7  118.69   17.40
   0  -9  -7  112.89   17.00
   0   9   7  116.69   17.90
   0   9   7  129.29   19.30
   0   9  -7  160.78   19.90
   0   9  -7  111.19   15.20
   1  -9   7  364.46   26.90
   1  -9   7  375.16   27.20
   1   9   7  362.76   28.30
   1   9   7  364.66   29.70
  -1   9  -7  395.86   29.00
  -1   9  -7  415.06   27.20
   2  -9   7  244.58   24.10
   2   9   7  276.17   26.90
   2   9   7  250.77   24.40
  -2   9  -7  220.78   22.00
   3  -9   7   10.90   11.70
   3   9   7    0.20    9.30
   3   9   7   18.10   11.90
  -3   9  -7   18.30   13.30
   4  -9   7  210.68   28.80
   4   9   7  126.89   23.50
  -4   9  -7  153.88   25.30
   4   9   7  148.99   23.90
   5  -9   7  317.17   33.70
   5   9   7  389.16   35.40
   6  -9   7   -3.10   16.90
   6   9   7  -15.70   15.70
 -10 -10   7  349.37   37.50
 -10 -10   7  393.26   33.20
 -10  10   7  366.66   34.50
 -10  10   7  411.36   39.90
  -9 -10   7  411.46   31.10
  -9 -10   7  472.05   36.30
  -9  10   7  386.56   33.20
  -9  10   7  372.86   36.50
  -8 -10   7   11.30   11.40
  -8 -10   7   11.20   10.20
  -8  10   7   -5.70   11.40
  -8  10   7    4.80   10.70
  -7 -10   7 1426.36   60.69
  -7 -10   7 1480.15   53.19
  -7  10   7 1297.57   60.49
  -7  10   7 1319.47   55.99
  -6 -10   7 1762.12   65.49
  -6 -10   7 1593.14   56.09
  -6  10   7 1610.54   61.79
   6  10  -7 1590.84   55.19
  -6  10   7 1610.74   65.59
  -5 -10   7  395.76   28.70
  -5 -10   7  385.66   23.90
  -5  10   7  402.36   28.10
   5  10  -7  392.76   23.70
   5  10  -7  328.67   26.50
  -5  10   7  308.47   26.50
   4 -10  -7 1135.39   55.89
  -4 -10   7 1100.09   43.20
  -4 -10   7 1150.88   49.10
  -4  10   7 1181.28   51.89
  -4  10   7 1131.49   48.30
   4  10  -7 1093.39   42.00
   4  10  -7 1203.68   48.30
   3 -10  -7 2566.44   77.09
  -3 -10   7 2643.24   77.19
  -3 -10   7 2674.63   83.09
   3 -10  -7 2621.04   81.59
  -3  10   7 2536.15   84.19
   3  10  -7 2658.93   79.39
   3  10  -7 2649.33   74.69
  -3  10   7 2626.94   82.99
  -2 -10   7   98.29   16.00
   2 -10  -7   64.59   13.60
   2 -10  -7   69.69   12.60
  -2 -10   7   92.79   14.70
  -2  10   7   84.99   15.60
  -2  10   7   94.89   17.10
   2  10  -7  103.59   14.90
   2  10  -7   94.69   14.00
  -1 -10   7 1610.94   58.09
   1 -10  -7 1658.43   60.69
  -1 -10   7 1559.34   59.09
   1 -10  -7 1713.13   58.19
  -1  10   7 1766.92   63.99
  -1  10   7 1658.23   63.09
   1  10  -7 1715.33   56.99
   1  10  -7 1701.43   56.69
   0 -10  -7 2328.57   79.29
   0 -10   7 2468.25   79.29
   0 -10   7 2613.34   80.09
   0 -10  -7 2393.26   76.19
   0  10   7 2463.75   82.39
   0  10  -7 2500.75   76.39
   0  10  -7 2443.16   73.89
   0  10   7 2529.75   82.99
   1 -10   7  413.46   29.40
   1 -10   7  401.46   28.40
  -1  10  -7  395.66   29.20
   1  10   7  371.36   28.90
   1  10   7  410.06   29.40
  -1  10  -7  440.26   26.70
   2 -10   7  226.18   23.70
   2  10   7  224.88   24.80
  -2  10  -7  241.18   22.60
   2  10   7  218.48   24.10
   3 -10   7 1133.99   53.19
  -3  10  -7 1188.08   51.39
   3  10   7 1093.59   53.89
   3  10   7 1153.18   56.29
   4 -10   7  666.23   41.40
   4  10   7  642.34   41.60
  -4  10  -7  542.75   38.50
   4  10   7  539.45   39.70
   5 -10   7   96.29   20.40
  -5  10  -7  119.59   24.40
   5  10   7  100.99   22.30
   6 -10   7  622.84   44.20
   6  10   7  525.25   46.50
 -10 -11   7  -13.00   15.30
 -10 -11   7   38.00   16.70
 -10  11   7   -2.50   14.40
 -10  11   7    7.50   18.40
  -9 -11   7   59.49   15.40
  -9 -11   7   60.09   18.10
  -9  11   7   26.70   14.50
  -9  11   7   45.20   18.50
  -8 -11   7   -2.10   14.00
  -8 -11   7   31.10   13.20
  -8  11   7   45.50   14.60
  -8  11   7   32.50   14.80
  -7 -11   7   52.29   12.50
  -7 -11   7   81.89   17.70
  -7  11   7   54.59   16.50
  -7  11   7   67.59   14.70
  -6 -11   7   30.70   11.50
  -6 -11   7   10.90    8.30
  -6  11   7    3.00    8.40
   6  11  -7   33.20   10.90
  -6  11   7   11.30   10.90
  -5 -11   7    7.70    6.90
  -5 -11   7  -12.30    8.20
  -5  11   7    9.70    8.40
  -5  11   7   -4.30    8.90
   5  11  -7   -2.70   10.60
   5  11  -7    2.90    7.90
  -4 -11   7   16.10    8.90
  -4 -11   7   10.70    6.90
  -4  11   7   15.00    8.00
   4  11  -7   13.70    8.30
  -4  11   7   10.70    8.80
   4  11  -7   13.90   10.40
  -3 -11   7   89.59   13.60
   3 -11  -7   68.09   14.40
  -3 -11   7  104.89   17.30
   3 -11  -7   99.19   17.00
   3  11  -7   91.39   13.60
  -3  11   7   70.89   15.00
   3  11  -7  107.39   15.60
  -3  11   7   90.49   15.10
   2 -11  -7  -11.80    8.20
   2 -11  -7    0.70    7.90
  -2 -11   7    7.50    6.50
  -2 -11   7    6.40    6.80
  -2  11   7   13.00    7.50
   2  11  -7    8.30    7.80
  -2  11   7    5.30    6.80
   2  11  -7   -5.10    7.60
  -1 -11   7    9.00    8.00
   1 -11  -7   20.60   11.40
   1 -11  -7   13.60    9.20
  -1 -11   7   15.00    8.20
  -1  11   7   23.50   10.10
  -1  11   7    3.40    7.40
   1  11  -7    3.90    7.40
   1  11  -7    7.60    7.80
   0 -11   7   15.40    9.10
   0 -11   7   26.40   10.50
   0  11  -7   36.40   10.30
   0  11   7   33.60   11.20
   0  11  -7   22.10    9.90
   0  11   7   29.60   11.00
   1 -11   7   82.19   15.10
   1 -11   7   80.09   15.70
   1  11   7  103.79   18.00
  -1  11  -7   91.79   15.00
   1  11   7   97.19   18.90
  -1  11  -7   73.49   15.10
   2 -11   7  185.18   22.20
  -2  11  -7  182.48   21.10
   2  11   7  198.78   23.00
   2  11   7  193.28   25.40
   3 -11   7   25.00   12.80
   3  11   7   29.20   13.10
  -3  11  -7   16.40   13.70
   3  11   7   11.70   13.80
   4 -11   7   42.50   14.40
   4  11   7   69.39   17.70
   4  11   7   65.99   18.90
  -4  11  -7   60.89   17.20
   5 -11   7   23.60   15.90
  -5  11  -7   54.79   20.40
   5  11   7   27.00   17.50
   6 -11   7   15.30   18.70
   6  11   7    5.20   16.10
 -10 -12   7  251.57   29.00
 -10 -12   7  317.97   33.50
 -10  12   7  251.47   27.70
 -10  12   7  216.38   33.10
  -9 -12   7  199.78   24.00
  -9 -12   7  270.77   30.80
  -9  12   7  182.88   24.50
  -9  12   7  246.48   32.60
  -8 -12   7   27.40   11.20
  -8 -12   7   24.70   14.20
  -8  12   7   21.60   14.10
  -8  12   7   14.20   11.10
  -7 -12   7  866.51   38.70
  -7 -12   7  884.61   46.60
  -7  12   7  894.01   49.40
  -7  12   7  832.12   42.70
  -6 -12   7  758.42   35.00
  -6 -12   7  743.23   41.40
  -6  12   7  762.32   40.10
  -6  12   7  802.42   45.20
   6  12  -7  721.23   34.00
  -5 -12   7    9.10    7.80
  -5 -12   7    7.50    8.30
  -5  12   7    0.90    7.30
  -5  12   7    1.30    8.50
   5  12  -7    1.90   10.40
   5  12  -7    3.40    7.40
  -4 -12   7  881.51   42.70
  -4 -12   7  910.31   36.90
   4  12  -7  849.02   41.40
  -4  12   7  878.21   45.20
   4  12  -7  889.11   35.90
  -4  12   7  797.82   40.10
   3 -12  -7 1773.72   72.99
  -3 -12   7 1732.03   57.69
  -3 -12   7 1783.72   63.69
   3  12  -7 1890.71   62.29
  -3  12   7 1771.62   63.99
  -3  12   7 1772.02   66.89
   3  12  -7 1785.12   56.29
  -2 -12   7  124.29   14.70
  -2 -12   7  118.99   17.10
   2 -12  -7  143.79   15.80
   2 -12  -7  143.69   20.00
   2  12  -7  174.28   18.00
   2  12  -7  127.09   14.70
  -2  12   7  155.58   18.40
  -2  12   7  156.28   17.50
   1 -12  -7  769.52   37.80
   1 -12  -7  768.72   39.80
  -1 -12   7  873.61   40.60
  -1 -12   7  831.62   38.00
  -1  12   7  850.11   41.70
   1  12  -7  812.02   36.60
  -1  12   7  856.41   42.90
   1  12  -7  816.12   35.90
   0 -12   7 1418.36   53.49
   0 -12   7 1294.17   52.79
   0  12   7 1324.37   55.89
   0  12  -7 1331.07   50.69
   0  12   7 1335.27   55.79
   0  12  -7 1338.87   49.40
   1 -12   7  601.74   34.40
   1 -12   7  633.14   35.90
   1  12   7  624.04   37.20
   1  12   7  634.14   37.70
  -1  12  -7  554.24   31.10
  -1  12  -7  602.14   34.20
   2 -12   7   95.39   18.00
  -2  12  -7   76.69   15.30
   2  12   7  105.39   20.00
   2  12   7  111.39   19.70
   3 -12   7  782.02   43.80
   3  12   7  921.11   48.40
   3  12   7  879.81   49.70
  -3  12  -7  876.01   43.40
   4 -12   7  314.97   30.80
   4  12   7  324.37   30.50
   4  12   7  327.07   32.00
  -4  12  -7  316.27   29.10
   5 -12   7   55.49   19.20
  -5  12  -7   49.90   22.40
   5  12   7   61.39   19.70
   6 -12   7  333.37   36.70
   6  12   7  282.57   34.10
 -10 -13   7  104.59   20.40
 -10 -13   7  132.39   26.10
 -10  13   7   98.29   26.00
 -10  13   7   91.09   20.80
  -9 -13   7  272.07   26.20
  -9 -13   7  318.57   31.20
  -9  13   7  313.97   29.80
  -9  13   7  262.07   34.00
  -8 -13   7  747.53   36.90
  -8 -13   7  721.63   43.70
  -8  13   7  801.82   42.60
  -8  13   7  657.03   44.50
  -7 -13   7  270.37   21.60
  -7 -13   7  223.98   24.70
  -7  13   7  247.18   23.50
  -7  13   7  261.97   28.00
  -6 -13   7  463.85   32.90
  -6 -13   7  492.35   27.30
  -6  13   7  545.15   33.70
   6  13  -7  477.45   27.10
   6  13  -7  490.35   42.70
  -6  13   7  474.65   34.60
  -5 -13   7 1148.19   50.39
  -5 -13   7 1166.18   43.40
   5  13  -7 1198.78   51.29
  -5  13   7 1090.79   48.10
  -5  13   7 1123.69   53.29
   5  13  -7 1146.59   42.00
  -4 -13   7  665.43   31.30
  -4 -13   7  653.23   35.90
  -4  13   7  656.13   35.80
   4  13  -7  649.14   30.10
  -4  13   7  583.44   37.10
   4  13  -7  668.13   36.30
  -3 -13   7    4.10    7.20
  -3 -13   7   21.20    8.80
   3  13  -7   17.70    8.90
  -3  13   7   18.50    9.00
  -3  13   7   11.00    8.30
   3  13  -7   25.30    8.50
  -2 -13   7 1069.79   42.40
   2 -13  -7 1079.39   53.69
   2 -13  -7 1148.59   50.59
  -2 -13   7 1046.50   46.20
  -2  13   7 1069.29   49.40
  -2  13   7 1059.09   47.10
   2  13  -7 1023.00   42.60
   2  13  -7 1064.59   40.60
  -1 -13   7  981.30   43.20
  -1 -13   7  955.20   40.90
  -1  13   7  944.91   45.90
  -1  13   7  913.11   44.00
   1  13  -7  907.01   38.80
   1  13  -7  902.71   39.10
   0 -13   7   13.80    8.20
   0 -13   7   10.90    9.20
   0  13   7    5.80    8.30
   0  13  -7    8.30   10.30
   0  13   7   27.10   10.40
   0  13  -7    9.80    8.00
   1 -13   7  431.86   30.00
   1  13   7  463.85   32.30
   1  13   7  418.66   30.80
  -1  13  -7  410.56   28.80
  -1  13  -7  428.56   26.80
   2 -13   7 1499.75   60.49
   2  13   7 1512.75   63.19
   2  13   7 1461.65   63.19
  -2  13  -7 1510.05   55.59
   3 -13   7   -2.40    9.80
   3  13   7   -8.80    9.90
   3  13   7    6.10   10.80
  -3  13  -7    2.40   12.00
   4 -13   7  587.04   39.70
   4  13   7  571.84   41.40
   4  13   7  646.34   41.80
  -4  13  -7  593.44   38.70
   5 -13   7  569.44   41.00
  -5  13  -7  529.35   41.60
   5  13   7  655.43   46.10
   6 -13   7   40.10   21.80
   6  13   7   42.60   20.80
 -10 -14   7   28.90   18.70
 -10 -14   7   24.70   16.20
 -10  14   7   21.90   15.80
 -10  14   7   23.60   19.90
  -9 -14   7   -7.80   12.90
  -9 -14   7   18.90   12.90
  -9  14   7    6.40   16.60
  -9  14   7    8.70   12.00
  -8 -14   7   31.40   11.90
  -8 -14   7   30.20   13.80
  -8  14   7   30.80   12.90
  -8  14   7   40.10   17.00
  -7 -14   7   13.80    9.60
  -7 -14   7   -3.40   11.40
  -7  14   7   -1.80    9.40
  -7  14   7   -2.40   11.20
  -6 -14   7    9.50    9.80
  -6 -14   7   12.90    8.10
  -6  14   7    5.40   10.10
  -6  14   7   14.50    9.70
   6  14  -7   12.10    9.20
   6  14  -7  -16.40   11.90
  -5 -14   7   38.60   11.40
  -5 -14   7   32.20    9.00
  -5  14   7   34.70   14.20
   5  14  -7   24.20    9.70
  -5  14   7   34.60   11.70
   5  14  -7   21.00   12.60
  -4 -14   7  231.78   18.20
  -4 -14   7  190.78   20.20
   4  14  -7  209.58   17.90
  -4  14   7  187.48   19.00
   4  14  -7  266.07   23.70
  -4  14   7  221.08   24.00
  -3 -14   7  196.78   20.30
  -3 -14   7  193.48   17.20
  -3  14   7  207.48   20.30
  -3  14   7  207.38   22.90
   3  14  -7  188.38   16.90
   3  14  -7  179.48   19.50
  -2 -14   7  175.98   19.90
  -2 -14   7  166.48   17.40
  -2  14   7  196.78   21.20
   2  14  -7  232.48   20.40
   2  14  -7  223.08   17.90
  -2  14   7  224.28   21.60
  -1 -14   7   20.40    9.20
  -1 -14   7   29.20   10.10
  -1  14   7   18.30    9.70
  -1  14   7   21.30    9.80
   1  14  -7   19.70    9.60
   1  14  -7   19.30    9.40
   0 -14   7   29.00   10.50
   0 -14   7   23.50   10.20
   0  14   7   35.10   11.80
   0  14  -7   34.90   10.60
   0  14   7   35.00   11.70
   0  14  -7   30.70   11.60
   1 -14   7   -8.80    8.80
  -1  14  -7   -4.10   10.10
   1  14   7   12.20   11.00
  -1  14  -7  -11.90    8.00
   1  14   7   13.30   10.10
   2 -14   7    6.80   10.30
   2  14   7    3.00   11.20
   2  14   7    3.80   11.50
  -2  14  -7    5.90   10.20
   3 -14   7    1.30   10.80
   3  14   7   -3.00   10.20
  -3  14  -7    7.70   11.00
   3  14   7   -4.70   10.40
   4 -14   7   14.30   13.40
   4  14   7   -3.40   11.20
   4  14   7    5.70   13.00
  -4  14  -7   15.30   15.40
   5 -14   7   -6.10   14.30
   5  14   7    4.30   14.30
  -5  14  -7   27.50   20.00
   6 -14   7   33.30   19.80
   6  14   7   22.70   20.10
 -10 -15   7  -18.60   15.10
 -10 -15   7   10.40   17.90
 -10  15   7  -11.60   18.20
 -10  15   7   38.70   17.00
  -9 -15   7  159.88   24.80
  -9 -15   7  162.48   21.40
  -9  15   7  189.48   25.10
  -9  15   7  170.88   28.20
  -8 -15   7  887.11   39.00
  -8 -15   7  875.91   48.60
  -8  15   7  761.72   48.60
  -8  15   7  857.41   44.90
  -7 -15   7  242.68   20.60
  -7 -15   7  234.38   26.30
  -7  15   7  234.98   24.20
  -7  15   7  208.98   28.80
  -6 -15   7  384.46   23.80
  -6 -15   7  414.36   30.10
   6  15  -7  436.86   35.40
  -6  15   7  470.45   30.80
  -6  15   7  477.75   35.00
   6  15  -7  463.25   25.70
  -5 -15   7 2672.93   85.59
  -5 -15   7 2532.45   72.99
  -5  15   7 2517.35   89.29
   5  15  -7 2651.63   72.69
  -5  15   7 2530.75   82.19
   5  15  -7 2632.44   84.79
  -4 -15   7 1099.09   48.10
  -4 -15   7 1046.50   40.20
  -4  15   7 1095.79   47.70
  -4  15   7 1038.00   51.29
   4  15  -7 1114.79   47.70
   4  15  -7 1099.39   39.80
  -3 -15   7   35.60    9.40
  -3 -15   7   20.80    9.90
  -3  15   7   45.40   12.10
   3  15  -7   57.09   13.20
   3  15  -7   38.60   10.10
  -3  15   7   33.20   12.10
  -2 -15   7 1622.44   54.69
  -2 -15   7 1645.54   60.19
   2  15  -7 1561.34   52.09
   2  15  -7 1669.63   57.29
  -2  15   7 1609.84   60.59
  -2  15   7 1548.35   62.99
  -1 -15   7 2642.84   82.29
  -1 -15   7 2640.74   79.19
  -1  15   7 2597.54   85.59
   1  15  -7 2741.33   77.79
   1  15  -7 2670.83   78.19
  -1  15   7 2603.24   87.59
   0 -15   7  140.79   18.60
   0 -15   7  152.18   20.10
   0  15  -7  135.39   17.90
   0  15  -7  163.98   20.10
   0  15   7  151.98   22.00
   0  15   7  165.68   19.60
   1 -15   7 3164.78   95.49
   1  15   7 3242.28  102.09
  -1  15  -7 3054.69   93.59
  -1  15  -7 3188.08   89.59
   1  15   7 3128.99  100.19
   2 -15   7  689.13   38.90
   2  15   7  706.43   42.10
   2  15   7  673.83   41.60
  -2  15  -7  711.93   36.10
   3 -15   7   12.30   11.60
   3  15   7  -14.40   11.30
  -3  15  -7   21.20   12.30
   3  15   7    1.20   11.80
   4 -15   7  651.63   41.20
   4  15   7  688.33   44.90
  -4  15  -7  568.54   37.10
   4  15   7  626.34   43.20
   5 -15   7  450.45   37.60
  -5  15  -7  472.65   39.00
   5  15   7  515.25   41.60
   6 -15   7   34.50   21.00
   6  15   7   71.19   24.10
 -10 -16   7  268.27   35.40
 -10 -16   7  252.77   26.60
 -10  16   7  188.38   31.50
 -10  16   7  239.98   30.20
  -9 -16   7  176.68   27.10
  -9 -16   7  250.97   23.40
  -9  16   7  143.89   26.20
  -9  16   7  171.08   24.00
  -8 -16   7   -7.10   12.00
  -8 -16   7    1.60   10.00
  -8  16   7   16.00   12.20
  -8  16   7   38.50   15.90
  -7 -16   7  241.38   27.80
  -7 -16   7  285.37   21.70
  -7  16   7  382.16   33.00
  -7  16   7  310.47   26.30
  -6 -16   7  355.86   22.40
  -6 -16   7  362.66   28.40
  -6  16   7  351.96   27.50
   6  16  -7  350.56   33.10
  -6  16   7  378.66   31.70
  -5 -16   7  151.98   15.40
  -5 -16   7  153.58   21.10
   5  16  -7  132.39   15.60
  -5  16   7   92.69   18.00
  -5  16   7  159.08   19.00
   5  16  -7  110.39   20.20
  -4 -16   7  341.17   26.00
  -4 -16   7  324.77   21.30
  -4  16   7  389.66   26.70
   4  16  -7  303.47   19.90
  -4  16   7  300.27   27.20
   4  16  -7  301.77   25.40
  -3 -16   7   53.09   13.20
  -3 -16   7   39.90    9.30
   3  16  -7   50.39   10.50
  -3  16   7   55.29   12.30
  -3  16   7   38.70   12.60
   3  16  -7   41.30   11.60
  -2 -16   7   -6.80    6.60
  -2 -16   7   13.10    9.30
  -2  16   7   16.30    9.70
   2  16  -7   17.30    8.60
   2  16  -7   10.80    9.00
  -2  16   7   24.60   10.30
  -1 -16   7  199.98   19.40
  -1 -16   7  199.38   18.50
  -1  16   7  190.38   20.80
  -1  16   7  242.78   23.60
   1  16  -7  199.88   19.80
   1  16  -7  162.28   17.90
   0 -16   7 2176.18   72.19
   0  16  -7 2183.68   69.59
   0  16   7 2110.99   76.99
   0  16  -7 2121.89   66.79
   0  16   7 2105.09   75.39
   1 -16   7  185.48   20.90
  -1  16  -7  199.68   24.20
   1  16   7  144.49   21.90
   1  16   7  223.18   24.20
  -1  16  -7  171.88   18.60
   2 -16   7  455.35   31.30
  -2  16  -7  441.96   28.60
   2  16   7  439.16   34.70
   2  16   7  385.26   31.20
   3 -16   7  275.27   27.30
  -3  16  -7  292.27   26.30
   3  16   7  250.97   28.50
   3  16   7  331.37   29.80
   4 -16   7  186.28   26.40
   4  16   7  165.18   25.30
   4  16   7  174.68   28.00
  -4  16  -7  161.68   22.80
   5 -16   7   27.20   16.60
  -5  16  -7   34.30   20.10
   5  16   7   15.60   18.10
   6 -16   7  418.96   40.20
   6  16   7  375.86   41.80
 -10 -17   7   15.60   19.60
 -10 -17   7   -4.90   15.30
 -10  17   7   19.50   16.20
 -10  17   7   -4.50   20.10
  -9 -17   7  141.29   19.40
  -9 -17   7   68.89   20.00
  -9  17   7   86.69   22.30
  -9  17   7   88.99   18.60
  -8 -17   7  103.89   16.10
  -8 -17   7  117.29   21.40
  -8  17   7  101.69   19.50
  -8  17   7  151.18   26.40
  -7 -17   7   18.60   13.40
  -7 -17   7   26.20    9.90
  -7  17   7   26.70   11.60
  -7  17   7    3.50   13.00
  -6 -17   7   91.49   12.80
  -6 -17   7   97.19   17.40
  -6  17   7   79.99   18.40
   6  17  -7   77.69   18.60
  -6  17   7   88.49   16.70
  -5 -17   7  125.99   14.80
  -5 -17   7  132.79   20.00
   5  17  -7  121.99   14.30
  -5  17   7   73.19   14.50
   5  17  -7  128.89   21.90
  -5  17   7  139.39   22.80
  -4 -17   7  229.88   17.80
  -4 -17   7  207.48   21.10
  -4  17   7  238.28   24.50
   4  17  -7  196.38   21.00
  -4  17   7  228.48   21.80
   4  17  -7  228.58   17.50
  -3 -17   7   80.99   12.70
  -3 -17   7  120.89   18.20
  -3  17   7   75.29   16.30
  -3  17   7   68.89   14.50
   3  17  -7   98.29   13.20
   3  17  -7   88.39   16.50
  -2 -17   7  394.86   27.70
  -2 -17   7  431.16   25.20
  -2  17   7  440.16   29.50
   2  17  -7  407.36   24.00
  -2  17   7  430.36   31.20
   2  17  -7  419.26   26.10
  -1 -17   7  432.76   26.60
  -1 -17   7  457.35   29.10
   1  17  -7  438.96   26.50
  -1  17   7  427.06   31.20
   1  17  -7  462.25   26.70
  -1  17   7  435.06   29.70
   0 -17   7   30.60   11.10
   0  17   7   22.40   10.60
   0  17  -7   17.40    9.20
   0  17  -7   19.30    9.80
   0  17   7   26.70   11.30
   1 -17   7    6.50    8.70
  -1  17  -7    0.30   11.60
   1  17   7   -8.10    7.80
  -1  17  -7   18.40   10.10
   1  17   7   19.70   12.10
   2 -17   7  299.47   25.80
  -2  17  -7  289.37   23.40
   2  17   7  261.37   26.40
   2  17   7  328.47   29.70
   3 -17   7   -0.60   11.10
   3  17   7    3.30   12.20
   3  17   7   12.90   11.90
  -3  17  -7   12.00   12.20
   4 -17   7   41.20   16.60
  -4  17  -7   59.09   17.80
   4  17   7   55.19   17.10
   4  17   7   49.99   17.10
   5 -17   7  119.69   22.90
   5  17   7  160.78   29.20
  -5  17  -7  110.89   24.30
   6 -17   7   -5.80   18.50
  -6 -17  -7   15.00   23.90
  -6  17  -7    5.20   17.10
   6  17   7    1.80   19.30
  -9 -18   7  390.66   38.30
  -9 -18   7  374.66   27.20
  -9  18   7  380.86   32.40
  -9  18   7  403.46   40.40
  -8 -18   7  -13.80    9.80
  -8 -18   7  -10.40   13.30
  -8  18   7    0.10   13.20
  -8  18   7   13.00   11.40
  -7 -18   7 1137.79   54.39
  -7 -18   7 1091.39   41.00
  -7  18   7 1140.39   51.09
  -6 -18   7  775.02   32.10
  -6 -18   7  759.82   41.70
   6  18  -7  795.62   44.90
  -6  18   7  823.52   41.60
  -6  18   7  762.92   46.30
  -5 -18   7   21.00   10.50
  -5 -18   7   15.10    7.40
   5  18  -7    8.60   12.90
  -5  18   7   13.00   11.40
  -5  18   7    5.50    8.30
   5  18  -7   12.90    8.10
  -4 -18   7 1043.30   46.90
  -4 -18   7  997.70   37.60
   4  18  -7  987.30   45.50
  -4  18   7  998.90   45.70
  -4  18   7  925.41   49.40
   4  18  -7 1045.00   36.60
  -3 -18   7 1347.77   46.00
  -3 -18   7 1300.77   52.79
  -3  18   7 1333.37   53.59
   3  18  -7 1319.87   44.10
  -3  18   7 1296.17   57.99
   3  18  -7 1277.97   50.79
  -2 -18   7  211.78   21.30
  -2 -18   7  217.48   18.10
   2  18  -7  215.28   18.20
  -2  18   7  208.18   21.70
   2  18  -7  196.78   19.80
  -2  18   7  181.08   24.30
  -1 -18   7  400.66   25.60
  -1 -18   7  325.27   25.20
  -1  18   7  389.66   28.90
  -1  18   7  399.46   30.10
   1  18  -7  350.56   24.50
   1  18  -7  381.86   25.00
   0 -18   7 2286.67   74.99
   0  18  -7 2357.36   72.79
   0  18   7 2343.87   80.49
   0  18  -7 2168.38   69.09
   0  18   7 2268.37   80.99
   1 -18   7  576.84   33.80
  -1  18  -7  530.05   29.40
   1  18   7  485.35   34.70
   1  18   7  512.05   34.40
  -1  18  -7  490.95   32.50
   2 -18   7  588.04   36.10
  -2  18  -7  568.14   31.80
   2  18   7  591.94   39.50
   2  18   7  583.64   38.50
   3 -18   7 1108.39   51.39
  -3  18  -7 1102.49   47.70
   3  18   7 1116.79   55.29
   3  18   7 1070.19   55.79
   4 -18   7  270.87   28.40
   4  18   7  276.27   33.60
   4  18   7  290.47   30.70
  -4  18  -7  281.77   28.80
   5 -18   7   67.79   19.60
   5  18   7   89.29   25.10
  -5  18  -7   69.99   21.70
  -6 -18  -7  301.57   42.60
   6 -18   7  372.76   37.60
  -6  18  -7  351.86   37.00
   6  18   7  362.86   42.20
  -9 -19   7   43.10   20.00
  -9 -19   7   36.60   13.90
  -9  19   7   58.29   19.90
  -9  19   7   42.10   16.20
  -8 -19   7   80.39   14.00
  -8 -19   7   73.49   20.10
  -8  19   7   94.59   18.40
  -8  19   7   68.49   20.20
  -7 -19   7  121.09   14.60
  -7 -19   7  117.19   20.30
  -7  19   7   97.59   17.80
  -7  19   7  115.59   24.00
  -6 -19   7   36.70    9.50
  -6 -19   7   62.39   15.20
  -6  19   7   41.60   16.70
  -6  19   7   61.59   14.80
   6  19  -7    9.50   14.60
  -5 -19   7  258.07   23.80
  -5 -19   7  242.78   18.10
   5  19  -7  267.47   17.80
   5  19  -7  230.18   26.20
  -5  19   7  288.57   28.40
  -5  19   7  323.37   25.70
  -4 -19   7  150.98   14.50
  -4 -19   7  138.59   19.50
   4  19  -7  119.89   13.60
  -4  19   7  144.19   19.80
  -4  19   7  101.59   18.90
   4  19  -7  125.29   19.10
  -3 -19   7   21.60    8.50
  -3 -19   7   27.70   10.90
   3  19  -7   33.10   11.60
   3  19  -7   18.90    8.40
  -3  19   7   23.10   10.10
  -3  19   7   20.60   11.20
  -2 -19   7  450.95   25.80
  -2 -19   7  434.96   28.90
   2  19  -7  506.45   25.90
  -2  19   7  498.05   35.00
   2  19  -7  471.75   28.70
  -2  19   7  423.06   28.90
  -1 -19   7   92.09   16.30
   1  19  -7  105.79   15.50
  -1  19   7  123.09   20.30
  -1  19   7   96.49   16.40
   1  19  -7  116.29   16.30
   0 -19   7  132.79   19.60
   0  19  -7  144.99   18.90
   0  19   7  150.48   22.20
   0  19  -7  153.18   18.40
   0  19   7  145.09   22.70
   1 -19   7  124.59   18.70
  -1  19  -7  115.19   20.00
  -1  19  -7  119.79   17.20
   1  19   7  111.49   19.80
   1  19   7  137.09   20.90
   2 -19   7   89.49   17.10
   2  19   7  127.89   22.30
   2  19   7  144.79   22.80
  -2  19  -7  143.19   18.70
   3 -19   7   17.20   13.40
   3  19   7   33.10   15.20
  -3  19  -7   16.30   12.80
   3  19   7   11.80   14.60
   4 -19   7  104.89   20.10
  -4  19  -7  129.69   21.60
   4  19   7  112.69   21.60
   4  19   7   79.79   22.70
   5 -19   7   94.39   21.30
   5  19   7  115.69   24.80
  -5  19  -7  108.09   23.00
   6 -19   7    2.20   19.70
  -6 -19  -7   -1.70   23.70
  -6  19  -7    5.70   19.00
   6  19   7    7.20   21.50
  -9 -20   7   95.69   15.50
  -9 -20   7  103.69   23.30
  -9  20   7  104.89   25.80
  -9  20   7  101.09   20.70
  -8 -20   7    2.20   10.00
  -8 -20   7    0.90   14.40
  -8  20   7    1.80   11.80
  -8  20   7   -1.60   16.60
  -7 -20   7  262.97   19.10
  -7 -20   7  255.07   26.80
  -7  20   7  279.67   25.80
  -7  20   7  310.27   32.40
  -6 -20   7  133.09   21.50
  -6 -20   7  135.39   14.40
   6  20  -7  134.89   24.00
  -6  20   7  139.79   24.10
  -6  20   7   99.69   17.10
  -5 -20   7   14.30   11.50
  -5 -20   7   11.20    7.50
   5  20  -7   -6.90    7.00
  -5  20   7   21.90   10.20
   5  20  -7   -4.70   11.50
  -5  20   7  -14.20   11.00
  -4 -20   7 1066.59   37.50
  -4 -20   7 1129.79   49.10
  -4  20   7  986.80   51.89
  -4  20   7 1006.20   46.00
   4  20  -7 1018.40   35.80
   4  20  -7  952.10   45.40
  -3 -20   7 1539.05   49.99
  -3 -20   7 1507.55   57.99
  -3  20   7 1535.15   59.09
   3  20  -7 1647.94   49.20
  -3  20   7 1512.95   65.29
   3  20  -7 1564.64   57.59
  -2 -20   7  352.66   22.60
  -2 -20   7  361.26   26.40
   2  20  -7  368.76   25.80
  -2  20   7  368.56   30.40
   2  20  -7  387.46   22.80
  -2  20   7  384.76   28.40
  -1 -20   7   96.29   15.80
  -1  20   7   66.69   15.80
   1  20  -7   92.89   15.60
   1  20  -7  100.69   15.10
  -1  20   7   97.99   18.00
   0 -20   7  577.34   33.20
   0  20   7  586.34   38.10
   0  20  -7  594.34   32.80
   0  20   7  588.84   36.70
   0  20  -7  607.04   31.20
   1 -20   7  197.18   20.70
   1  20   7  206.38   23.80
  -1  20  -7  162.78   18.60
  -1  20  -7  182.78   21.10
   1  20   7  191.18   22.00
   2 -20   7   22.60   12.30
   2  20   7   36.00   14.40
   2  20   7   52.69   15.30
  -2  20  -7   49.90   13.50
   3 -20   7  196.58   23.50
   3  20   7  188.78   26.60
   3  20   7  228.98   26.90
  -3  20  -7  162.68   20.70
   4 -20   7   64.29   18.50
   4  20   7   90.89   21.70
  -4  20  -7   82.19   18.80
   4  20   7  118.69   22.70
   5 -20   7   68.09   20.50
  -5  20  -7   56.79   21.70
   5  20   7   45.70   19.40
  -9 -21   7  271.47   22.40
  -9 -21   7  226.98   31.30
  -9  21   7  270.67   29.30
  -9  21   7  219.28   32.70
  -8 -21   7  613.04   28.70
  -8 -21   7  638.34   42.10
  -8  21   7  649.74   46.30
  -8  21   7  616.74   38.20
  -7 -21   7  197.38   16.20
  -7 -21   7  189.18   27.00
  -7  21   7  183.68   29.20
  -7  21   7  178.08   22.50
  -6 -21   7  321.47   19.20
  -6 -21   7  337.17   28.20
  -6  21   7  326.57   26.30
  -6  21   7  348.07   32.30
   6  21  -7  279.07   32.80
  -5 -21   7  879.11   45.00
  -5 -21   7  901.81   32.60
   5  21  -7  836.52   44.70
  -5  21   7  933.51   50.99
  -5  21   7  874.01   42.80
   5  21  -7  953.90   32.00
  -4 -21   7  266.97   25.20
  -4 -21   7  267.07   18.10
  -4  21   7  303.37   28.90
   4  21  -7  323.57   27.20
   4  21  -7  297.67   18.10
  -4  21   7  302.17   25.00
  -3 -21   7  121.99   13.80
  -3 -21   7  140.99   20.20
  -3  21   7  102.29   19.80
   3  21  -7  106.49   13.70
  -3  21   7  143.29   20.00
   3  21  -7  129.59   17.80
  -2 -21   7 1151.68   48.50
  -2  21   7 1125.29   54.49
   2  21  -7 1172.18   41.50
   2  21  -7 1154.58   46.60
  -2  21   7 1161.78   50.89
  -1 -21   7  466.95   29.50
  -1  21   7  474.55   31.40
   1  21  -7  508.55   28.00
  -1  21   7  461.25   34.90
   1  21  -7  434.66   27.20
   0 -21   7   69.69   14.40
   0  21  -7   83.49   14.60
   0  21   7   51.49   14.20
   0  21  -7   61.09   14.20
   0  21   7   68.19   17.10
   1 -21   7  652.43   36.90
   1  21   7  742.13   42.00
  -1  21  -7  702.63   34.20
   1  21   7  778.12   44.20
  -1  21  -7  591.44   36.60
   2 -21   7  855.41   42.60
   2  21   7  870.11   47.10
  -2  21  -7  871.21   39.10
   2  21   7  763.42   46.10
   3 -21   7   11.60   11.80
   3  21   7    1.80   11.90
   3  21   7   -3.30   12.50
  -3  21  -7    2.00   11.50
   4 -21   7  509.55   36.30
   4  21   7  481.15   39.60
   4  21   7  601.14   44.70
  -4  21  -7  484.85   33.90
   5 -21   7  474.85   38.20
   5  21   7  439.86   38.10
   5  21   7  460.25   43.30
  -9 -22   7   13.60   18.80
  -9 -22   7   -5.30   10.70
  -9  22   7    5.00   14.60
  -9  22   7   33.10   19.30
  -8 -22   7   23.40   16.60
  -8 -22   7   18.00    9.40
  -8  22   7    1.50   16.80
  -8  22   7   44.40   13.70
  -7 -22   7   35.40   14.50
  -7 -22   7   33.50    8.90
  -7  22   7   33.70   16.50
  -7  22   7   40.00   13.20
  -6 -22   7  118.39   20.10
  -6 -22   7  145.99   13.40
   6  22  -7  109.39   24.00
  -6  22   7  137.19   25.50
  -6  22   7  102.69   17.60
  -5 -22   7   47.80   12.90
  -5 -22   7   51.29    9.40
  -5  22   7   63.99   16.70
   5  22  -7   54.69    9.70
   5  22  -7   45.70   16.80
  -5  22   7   51.99   13.10
  -4 -22   7   19.50   10.60
  -4 -22   7   32.60    8.40
  -4  22   7    0.60   10.80
   4  22  -7   20.60   13.00
  -4  22   7   13.70    9.20
   4  22  -7    5.30    7.00
  -3 -22   7    9.00    9.60
  -3 -22   7    9.60    7.10
  -3  22   7   -8.00    8.20
   3  22  -7   14.40   10.50
   3  22  -7   11.00    8.00
  -3  22   7    1.80   10.40
  -2 -22   7   58.49   13.50
  -2  22   7  102.59   19.90
   2  22  -7   85.89   15.20
  -2  22   7   90.29   16.40
   2  22  -7   75.89   12.50
  -1 -22   7   98.09   16.30
   1  22  -7  112.49   16.00
  -1  22   7   77.09   19.40
  -1  22   7   94.09   17.60
   1  22  -7  133.59   17.00
   0 -22   7   13.80   10.40
   0  22   7   20.10   13.30
   0  22  -7   26.00   12.50
   0  22  -7   22.30   10.50
   0  22   7   26.50   12.40
   1 -22   7    4.00   10.40
   1  22   7   21.10   12.50
   1  22   7   16.10   12.70
  -1  22  -7   -6.30   13.40
  -1  22  -7   13.60   10.30
   2 -22   7   76.29   16.70
   2  22   7  105.79   20.50
  -2  22  -7   64.49   14.90
   2  22   7   68.29   17.90
   3 -22   7   22.10   13.90
   3  22   7   54.09   17.80
   3  22   7   38.40   15.60
  -3  22  -7   27.60   12.50
   4 -22   7   -0.50   13.60
   4  22   7   13.10   15.40
  -4  22  -7    9.40   14.50
   4  22   7    1.10   13.70
   5 -22   7   27.00   18.90
   5  22   7   -1.40   17.40
   5  22   7   -0.30   18.00
  -9 -23   7  135.99   26.30
  -9  23   7  115.09   26.90
  -9  23   7  151.68   23.50
  -8 -23   7  303.37   18.80
  -8 -23   7  476.15   38.90
  -8  23   7  439.46   33.20
  -8  23   7  374.16   38.30
  -7 -23   7  139.59   24.50
  -7 -23   7  114.99   12.80
  -7  23   7  153.98   26.30
  -7  23   7  134.09   20.40
  -6 -23   7  166.18   12.70
  -6 -23   7  157.78   23.50
  -6  23   7  122.99   24.00
  -6  23   7  147.09   20.20
   6  23  -7  173.38   25.80
  -5 -23   7  594.34   23.40
  -5 -23   7  619.14   37.50
  -5  23   7  562.74   40.60
   5  23  -7  512.95   37.10
  -5  23   7  589.34   34.70
  -4 -23   7  363.46   28.00
  -4 -23   7  381.86   19.70
  -4  23   7  366.26   34.20
   4  23  -7  390.76   29.80
  -4  23   7  349.96   26.90
   4  23  -7  381.56   19.20
  -3 -23   7  176.28   20.90
  -3  23   7  122.59   18.20
   3  23  -7  175.28   20.60
  -3  23   7  189.98   26.70
   3  23  -7  149.49   14.70
  -2 -23   7 1057.99   45.80
  -2  23   7  930.01   45.70
  -2  23   7 1006.50   52.19
   2  23  -7  999.20   37.70
   2  23  -7 1059.59   44.10
  -1 -23   7  274.47   24.00
  -1  23   7  208.08   24.50
  -1  23   7  199.38   23.00
   1  23  -7  249.08   21.20
   1  23  -7  241.78   20.80
   0 -23   7   67.79   14.80
   0  23  -7   49.50   14.20
   0  23   7   70.09   18.10
   0  23   7   56.19   15.30
   0  23  -7   57.69   12.20
   1 -23   7  336.57   26.50
  -1  23  -7  317.17   33.70
   1  23   7  306.87   29.00
  -1  23  -7  298.67   23.60
   1  23   7  328.87   30.60
   2 -23   7  225.98   24.60
  -2  23  -7  261.47   22.30
   2  23   7  226.58   27.20
   2  23   7  226.68   25.80
   3 -23   7   10.40   12.50
   3  23   7    9.00   12.90
   3  23   7  -10.80   10.80
  -3  23  -7  -13.10   11.80
   4 -23   7  276.47   30.30
   4  23   7  377.06   37.70
   4  23   7  330.87   35.40
  -4  23  -7  328.67   30.80
   5 -23   7  250.37   31.00
   5  23   7  252.47   34.60
   5  23   7  221.28   32.80
  -9 -24   7  258.07   35.20
  -9  24   7  265.27   38.60
  -9  24   7  261.87   29.50
  -8 -24   7    1.00   15.70
  -8 -24   7   -7.70    6.70
  -8  24   7   17.30   13.90
  -8  24   7  -13.00   17.10
  -7 -24   7  365.96   32.90
  -7 -24   7  338.07   14.50
  -7  24   7  305.07   28.10
  -7  24   7  391.16   37.20
  -6 -24   7  427.46   34.00
  -6 -24   7  466.35   17.40
  -6  24   7  457.05   39.50
  -6  24   7  422.16   29.70
   6  24  -7  378.26   35.40
  -5 -24   7   34.80    7.50
  -5 -24   7   27.80   11.50
  -5  24   7   21.70   11.60
  -5  24   7   30.80   15.20
   5  24  -7   25.80   16.30
  -4 -24   7 1014.20   46.40
  -4  24   7  978.50   53.29
  -4  24   7  941.21   45.00
   4  24  -7  902.61   44.60
   4  24  -7  904.31   30.60
  -3 -24   7 1037.40   46.80
  -3  24   7 1018.60   53.49
  -3  24   7  967.70   46.00
   3  24  -7 1080.69   46.40
   3  24  -7 1036.30   35.40
  -2 -24   7   10.50   10.00
   2  24  -7   28.50    9.60
  -2  24   7   28.50   12.40
   2  24  -7   29.40   11.50
  -2  24   7   20.70   13.20
  -1 -24   7  621.84   34.10
  -1  24   7  595.84   39.60
   1  24  -7  626.34   31.40
  -1  24   7  618.94   37.30
   1  24  -7  551.84   30.90
   0 -24   7  601.24   34.10
   0  24  -7  618.94   33.90
   0  24   7  644.94   38.90
   0  24   7  556.24   38.40
   0  24  -7  657.23   33.00
   1 -24   7   55.89   13.70
   1  24   7   37.10   15.30
   1  24   7   40.10   14.80
  -1  24  -7   33.90   11.60
  -1  24  -7   41.50   17.30
   2 -24   7  166.18   22.20
   2  24   7  194.28   26.60
  -2  24  -7  191.98   20.60
   2  24   7  132.99   22.30
   3 -24   7  525.45   35.20
   3  24   7  460.65   37.00
   3  24   7  481.35   37.00
  -3  24  -7  471.25   29.80
   4 -24   7  193.88   26.60
   4  24   7  169.18   26.90
   4  24   7  224.88   31.70
  -4  24  -7  227.48   25.60
   5 -24   7   78.29   21.50
   5  24   7   48.20   22.00
   5  24   7   83.59   23.70
  -8 -25   7    4.00   15.90
  -8  25   7   46.90   18.90
  -8  25   7   16.70   12.80
  -7 -25   7   38.00   17.30
  -7  25   7   42.30   13.70
  -7  25   7   41.70   18.40
  -6 -25   7    6.10   11.50
  -6  25   7   20.30   14.40
   6  25  -7   -0.20   19.20
  -6  25   7   10.10   11.00
  -5 -25   7    3.10   11.20
  -5  25   7   -3.40    9.50
  -5  25   7  -12.30   12.20
   5  25  -7   11.90   15.60
  -4 -25   7   35.40   12.50
  -4  25   7   28.20   15.50
   4  25  -7   26.40    7.60
  -4  25   7   51.59   13.70
   4  25  -7   30.50   14.20
  -3 -25   7    3.00    9.90
   3  25  -7    8.40    7.60
  -3  25   7   18.10   14.90
   3  25  -7    3.50   11.20
  -3  25   7   -3.10    9.50
  -2 -25   7   78.19   15.20
   2  25  -7   72.89   12.50
  -2  25   7   60.19   14.70
   2  25  -7   55.09   14.10
  -2  25   7   80.29   18.60
  -1 -25   7   11.20    9.80
   1  25  -7   18.50   10.80
   1  25  -7   27.20   11.00
  -1  25   7   19.90   12.50
  -1  25   7   15.90   12.10
   0 -25   7   13.00   10.70
   0  25   7   11.30   12.40
   0  25  -7   28.40   10.80
   0  25  -7    7.60   12.20
   0  25   7    9.10   10.80
   1 -25   7   46.10   13.50
   1  25   7   39.20   13.50
   1  25   7   33.40   16.10
  -1  25  -7   49.70   12.80
   2 -25   7    9.00   11.60
   2  25   7   13.30   14.30
   2  25   7   -9.10   12.10
  -2  25  -7   -6.30   10.70
   3 -25   7    6.50   13.70
   3  25   7  -16.90   14.30
  -3  25  -7   18.50   12.80
   3  25   7   -3.10   14.00
   4 -25   7    2.60   15.30
  -4  25  -7    2.50   14.50
   4  25   7  -11.90   15.70
   4  25   7   -9.80   16.70
   5 -25   7    0.80   18.80
  -5 -25  -7   29.10   22.60
   5  25   7    1.30   16.40
   5  25   7   25.60   19.00
  -8 -26   7   18.50   17.20
  -8  26   7   27.00   14.30
  -8  26   7  -18.80   19.00
  -7 -26   7  426.56   34.90
  -7  26   7  510.25   41.90
  -7  26   7  493.75   33.90
  -6 -26   7  221.28   26.20
   6  26  -7  175.08   29.60
  -6  26   7  187.58   22.20
  -6  26   7  165.68   29.40
  -5 -26   7   -9.60   11.30
  -5  26   7    9.50   10.60
  -5  26   7   -2.00   12.80
   5  26  -7    2.10   15.30
  -4 -26   7  880.31   43.50
  -4  26   7  880.81   52.89
   4  26  -7  806.92   43.40
   4  26  -7  878.31   27.00
  -4  26   7  881.11   43.10
  -3 -26   7 1195.78   50.39
  -3  26   7 1059.89   56.59
  -3  26   7 1166.28   51.09
   3  26  -7 1130.39   48.00
   3  26  -7 1198.98   37.20
  -2 -26   7    7.40    9.90
  -2  26   7   -4.80   13.10
   2  26  -7   13.60    9.00
   2  26  -7   11.20   10.60
  -2  26   7   10.50   10.00
  -1 -26   7  225.38   21.80
   1  26  -7  203.98   20.70
  -1  26   7  188.78   27.10
  -1  26   7  228.18   25.30
   1  26  -7  191.58   19.40
   0 -26   7  404.96   28.40
   0  26  -7  467.65   30.40
   0  26  -7  430.56   27.00
   0  26   7  402.76   31.80
   0  26   7  464.15   35.10
   1 -26   7   12.90   12.00
   1  26   7   16.40   15.20
  -1  26  -7   20.50   10.70
   1  26   7   36.50   13.90
   2 -26   7  215.38   24.50
  -2  26  -7  212.18   21.70
   2  26   7  155.18   25.90
   2  26   7  195.98   28.40
   3 -26   7  352.16   30.40
   3  26   7  406.46   36.70
   3  26   7  323.97   34.50
  -3  26  -7  371.26   27.50
   4 -26   7  191.88   26.30
   4  26   7  230.38   32.10
   4  26   7  105.99   25.10
  -8 -27   7  375.66   35.00
  -8  27   7  343.27   30.30
  -7 -27   7   90.39   21.30
  -7  27   7   79.89   25.00
  -7  27   7   97.99   17.50
  -6 -27   7    7.30   12.80
  -6  27   7   11.50   11.10
   6  27  -7   19.50   21.50
  -6  27   7   39.00   17.00
  -5 -27   7  271.77   26.90
  -5  27   7  339.37   33.00
   5  27  -7  272.37   31.40
  -5  27   7  293.07   26.00
  -4 -27   7   96.29   18.40
   4  27  -7  113.39    8.60
  -4  27   7  116.89   18.20
   4  27  -7   90.09   18.60
  -4  27   7  108.79   23.70
  -3 -27   7   92.19   16.80
  -3  27   7   88.09   20.30
   3  27  -7   95.69   11.40
  -3  27   7   90.79   16.80
   3  27  -7   87.49   16.80
  -2 -27   7  726.93   38.20
  -2  27   7  719.43   40.20
   2  27  -7  752.62   30.80
  -2  27   7  795.72   46.90
   2  27  -7  726.83   36.20
  -1 -27   7  126.49   19.10
   1  27  -7  130.39   16.90
  -1  27   7   94.99   18.20
   1  27  -7  127.09   16.90
  -1  27   7  151.68   25.00
   0 -27   7   70.19   15.20
   0  27  -7   70.09   14.10
   0  27   7   75.29   18.30
   0  27   7   71.59   16.90
   0  27  -7   70.99   15.70
   1 -27   7  523.55   32.40
   1  27   7  488.45   38.40
   1  27   7  536.85   37.20
  -1  27  -7  461.05   28.30
   2 -27   7  277.37   26.80
   2  27   7  269.87   31.30
  -2  27  -7  278.67   24.10
   2  27   7  301.77   30.70
   3 -27   7  -10.30   13.50
   3  27   7    1.40   15.80
  -3  27  -7    7.10   13.10
   3  27   7   24.80   15.20
   4  27   7  231.08   31.80
   4  27   7  264.87   32.90
  -8 -28   7    0.90   17.90
  -8  28   7   17.20   19.50
  -8  28   7    3.10   13.40
  -7 -28   7   42.70   18.90
  -7  28   7   13.20   17.10
  -7  28   7   -8.40   11.70
  -6 -28   7   -4.00   12.90
  -6  28   7   -4.40   15.80
  -6  28   7   10.50   12.20
   6  28  -7   14.70   21.00
  -5 -28   7   -4.10   12.10
  -5  28   7   35.00   16.10
   5  28  -7    7.20   17.20
  -5  28   7   13.70   11.40
  -4 -28   7  217.08   23.20
   4  28  -7  169.38   23.30
  -4  28   7  166.88   28.60
  -4  28   7  198.78   22.20
  -3 -28   7   55.79   14.60
   3  28  -7   47.30    8.80
  -3  28   7   18.00   11.20
   3  28  -7   39.30   14.90
  -3  28   7   20.50   16.20
  -2 -28   7    8.50   10.90
   2  28  -7    8.80    9.10
   2  28  -7   14.00   11.50
  -2  28   7   -2.80   10.00
  -2  28   7    8.30   12.50
  -1 -28   7   12.00   11.60
   1  28  -7   24.40   11.20
   1  28  -7   13.90   11.60
  -1  28   7   17.30   14.40
  -1  28   7   23.50   12.90
   0 -28   7   51.89   13.20
   0  28  -7   39.50   14.40
   0  28  -7   35.20   12.10
   0  28   7   42.10   16.70
   0  28   7   55.19   16.20
   1 -28   7   -0.30   11.00
   1  28   7  -12.90   12.00
  -1  28  -7   -5.50   10.90
   1  28   7   -1.90   14.50
   2 -28   7   40.50   15.10
   2  28   7   43.90   16.60
  -2  28  -7   40.90   12.90
   2  28   7    4.30   15.40
   3 -28   7   16.30   15.00
   3  28   7    1.50   15.20
   3  28   7  -20.80   15.70
  -3  28  -7    7.60   13.00
   4 -28   7   -6.20   16.00
   4  28   7   18.10   18.70
   4  28   7   -4.90   15.60
  -7 -29   7  125.99   24.30
  -7  29   7  128.09   26.10
  -7  29   7  101.29   19.90
  -6 -29   7  220.18   25.80
   6  29  -7  146.19   30.00
  -6  29   7  197.68   23.90
  -6  29   7  182.18   31.00
  -5 -29   7  572.24   37.30
  -5  29   7  521.05   33.20
   5  29  -7  564.24   41.70
  -5  29   7  552.04   44.50
  -4 -29   7  152.28   22.10
   4  29  -7  181.58   24.60
  -4  29   7  164.68   21.50
  -4  29   7  168.88   27.20
  -3 -29   7  168.68   21.50
  -3  29   7  100.79   21.90
  -3  29   7  136.19   19.80
   3  29  -7  130.89   20.30
   3  29  -7  130.79   11.90
  -2 -29   7  794.32   40.10
   2  29  -7  858.41   32.30
  -2  29   7  869.61   51.19
   2  29  -7  832.62   39.50
  -2  29   7  844.62   43.50
  -1 -29   7  488.35   31.60
  -1  29   7  516.55   38.40
   1  29  -7  509.15   30.00
  -1  29   7  575.14   36.60
   1  29  -7  502.45   28.60
   0 -29   7   18.80   11.80
   0  29   7   36.10   17.20
   0  29  -7    9.00   14.30
   0  29  -7   25.60   11.30
   0  29   7    6.50   11.60
   1 -29   7  548.85   33.50
  -1  29  -7  534.25   29.50
   1  29   7  555.64   41.50
   1  29   7  539.25   38.20
   2 -29   7  442.96   31.90
  -2  29  -7  441.76   28.30
   2  29   7  434.26   38.50
   2  29   7  399.36   34.10
   3 -29   7  -14.80   13.90
   3  29   7    2.90   17.40
   3  29   7    3.20   16.00
  -3  29  -7   -4.80   12.90
   4  29   7  373.56   38.10
   4  29   7  253.27   34.80
  -7 -30   7  149.19   24.70
  -7  30   7  109.79   20.00
  -7  30   7  105.59   25.30
  -6 -30   7  170.88   25.30
  -6  30   7  141.49   26.50
  -6  30   7  165.18   22.20
   6  30  -7  134.69   29.40
  -5 -30   7    6.20   12.30
   5  30  -7    9.50   18.40
  -5  30   7    6.00   11.50
  -5  30   7   11.50   16.00
  -4 -30   7  123.49   20.10
   4  30  -7  134.49   22.00
  -4  30   7   98.39   23.90
  -4  30   7   92.89   17.50
  -3 -30   7  267.27   24.50
  -3  30   7  279.87   25.80
  -3  30   7  296.37   33.60
   3  30  -7  257.07   26.50
   3  30  -7  297.37   14.30
  -2 -30   7   93.99   17.20
  -2  30   7  100.09   21.30
   2  30  -7   77.49   11.90
   2  30  -7   69.39   15.30
  -2  30   7   81.69   17.40
  -1 -30   7   83.79   16.40
   1  30  -7  124.89   17.10
  -1  30   7  102.39   22.70
   1  30  -7   93.19   15.90
  -1  30   7   94.79   18.90
   0 -30   7  258.77   24.70
   0  30  -7  250.97   26.40
   0  30  -7  227.78   21.00
   0  30   7  227.38   27.30
   0  30   7  203.68   29.70
   1 -30   7   40.30   15.70
  -1  30  -7   72.69   14.20
   1  30   7   54.69   17.10
   1  30   7   65.19   20.40
   2 -30   7  104.49   18.70
  -2  30  -7  112.79   17.60
   2  30   7   95.99   21.40
   2  30   7  102.49   22.90
   3  30   7  378.16   37.00
   3  30   7  377.66   36.10
   4 -30   7   30.00   20.50
   4  30   7   33.60   21.00
   4  30   7   16.10   19.90
  -7 -31   7   -4.70   16.30
  -7  31   7   20.50   22.30
  -7  31   7    3.20   13.40
  -6 -31   7  162.78   24.80
   6  31  -7  152.88   30.00
  -6  31   7  200.28   23.10
  -6  31   7  153.08   29.30
  -5 -31   7  224.88   26.50
  -5  31   7  179.28   31.00
  -5  31   7  140.39   21.20
   5  31  -7  171.58   27.90
  -4 -31   7   28.10   13.50
   4  31  -7   -4.90   16.10
  -4  31   7  -15.80   16.30
  -4  31   7   28.60   12.90
  -3 -31   7   99.89   16.90
  -3  31   7   39.10   14.40
  -3  31   7   72.39   19.30
   3  31  -7   63.89   17.10
  -2 -31   7  132.69   19.30
  -2  31   7  110.59   25.00
   2  31  -7  201.38   22.20
  -2  31   7  236.58   25.10
   2  31  -7  186.88   15.90
  -1 -31   7  107.49   18.30
  -1  31   7  143.89   25.80
   1  31  -7   98.09   16.20
   1  31  -7  118.19   17.00
  -1  31   7  118.99   20.20
   0 -31   7  -26.40   11.40
   0  31  -7    4.60   14.50
   0  31   7   -2.30   12.10
   0  31   7    1.20   14.00
   0  31  -7    7.30   10.30
   1 -31   7   75.09   16.20
   1  31   7   44.10   16.80
   1  31   7   37.00   16.60
  -1  31  -7   93.19   15.50
   2 -31   7    7.50   13.00
   2  31   7   73.09   20.50
   2  31   7   69.99   20.70
  -2  31  -7   19.10   13.00
   3 -31   7  -10.60   15.00
   3  31   7   71.59   21.60
   3  31   7   29.50   17.40
  -7 -32   7  313.37   34.10
  -7  32   7  271.37   28.10
  -7  32   7  260.47   39.40
  -6 -32   7  277.27   30.60
   6  32  -7  294.87   52.59
  -6  32   7  353.26   38.20
  -6  32   7  345.87   28.60
  -5 -32   7  -19.40   13.60
  -5  32   7    6.00   12.20
   5  32  -7   -1.40   20.00
  -5  32   7   19.80   20.20
  -4 -32   7  421.76   32.50
  -4  32   7  441.96   39.40
   4  32  -7  375.66   33.20
  -4  32   7  442.26   30.50
  -3 -32   7  552.24   35.00
  -3  32   7  565.24   35.20
   3  32  -7  556.24   35.60
  -3  32   7  621.34   43.80
  -2 -32   7   80.69   16.70
   2  32  -7   62.89   15.00
   2  32  -7   79.59   11.50
  -2  32   7   66.69   20.00
  -2  32   7   97.09   18.10
  -1 -32   7  205.58   23.90
  -1  32   7  280.47   28.00
   1  32  -7  265.17   22.90
  -1  32   7  317.47   34.60
   1  32  -7  268.37   23.50
   0 -32   7  537.85   33.20
   0  32   7  558.54   37.90
   0  32  -7  580.34   34.80
   0  32  -7  557.14   30.20
   0  32   7  548.65   42.80
   1 -32   7   60.99   15.80
   1  32   7  102.29   22.60
  -1  32  -7   80.69   14.80
   1  32   7   72.19   19.10
   2  32   7  255.27   33.50
   2  32   7  271.47   31.70
  -2  32  -7  314.67   24.90
   3  32   7  736.43   49.40
   3  32   7  786.82   51.79
  -6 -33   7    0.70   16.30
  -6  33   7   23.10   19.30
  -6  33   7    3.30   12.80
  -5 -33   7   49.90   17.60
   5  33  -7   24.00   21.50
  -5  33   7   32.00   14.40
  -5  33   7    7.30   20.40
  -4 -33   7   95.09   19.00
   4  33  -7   92.19   20.90
  -4  33   7   44.70   14.70
  -4  33   7   51.29   21.00
  -3 -33   7    2.30   13.20
  -3  33   7   -2.20   16.60
   3  33  -7   10.10   14.60
  -3  33   7   17.10   13.30
  -2 -33   7   84.49   17.40
   2  33  -7   94.79   11.60
   2  33  -7  103.39   18.00
  -2  33   7   85.29   23.70
  -2  33   7   56.69   16.00
  -1 -33   7   73.59   16.30
   1  33  -7  109.29   16.90
  -1  33   7   91.79   18.70
   1  33  -7  113.39   16.80
  -1  33   7   93.59   24.10
   0 -33   7   -9.60   12.40
   0  33   7   -9.00   13.00
   0  33   7    4.70   14.70
   0  33  -7   -8.50   10.40
   0  33  -7    4.30   15.40
   1  33   7  141.29   25.60
  -1  33  -7  126.69   16.50
   1  33   7  161.28   25.00
   2  33   7  212.38   31.00
   2  33   7  219.98   30.30
   3  33   7   30.00   19.60
   3  33   7    3.30   17.20
  -6 -34   7   91.29   21.60
  -6  34   7    3.20   25.00
  -6  34   7   68.09   17.20
  -5 -34   7   -6.40   14.90
  -5  34   7    6.00   12.60
  -5  34   7  -10.10   20.00
  -4 -34   7  155.38   22.40
  -4  34   7  148.49   21.00
  -4  34   7  120.99   27.50
   4  34  -7  142.79   24.40
  -3 -34   7  191.28   24.10
  -3  34   7  195.18   23.60
  -3  34   7  215.88   30.90
   3  34  -7  178.08   23.40
  -2 -34   7   -5.90   12.60
   2  34  -7   -2.50    7.90
  -2  34   7   28.70   17.10
   2  34  -7    2.60   13.00
  -2  34   7   -5.50   12.10
  -1 -34   7   65.49   16.40
   1  34  -7   92.59   15.30
  -1  34   7  100.59   19.00
  -1  34   7   85.39   23.60
   1  34  -7  107.89   17.30
   0  34  -7  339.97   30.00
   0  34  -7  311.87   24.40
   0  34   7  377.66   32.80
   0  34   7  366.56   36.90
   1 -34   7    4.10   13.40
   1  34   7    9.20   14.50
  -1  34  -7   22.40   10.90
   1  34   7   -9.70   17.30
   2  34   7  173.28   27.30
   2  34   7  131.89   26.30
  -6 -35   7   40.70   20.30
  -6  35   7   67.49   25.90
  -6  35   7   26.40   15.40
  -5 -35   7  430.66   36.40
  -5  35   7  448.96   31.50
  -4 -35   7  190.28   24.30
  -4  35   7  177.78   21.80
  -4  35   7  162.78   31.40
  -3 -35   7   43.40   16.20
   3  35  -7   72.19   18.50
  -3  35   7   26.20   18.80
  -3  35   7   63.59   16.20
  -2 -35   7  529.35   34.50
  -2  35   7  595.94   38.00
   2  35  -7  656.93   22.60
   2  35  -7  685.53   36.10
  -2  35   7  654.63   46.70
   1  35  -7  409.66   28.50
  -1  35   7  455.15   38.70
   1  35  -7  424.26   26.10
  -1  35   7  488.95   35.20
   0 -35   7   20.70   13.30
   0  35   7   13.70   14.60
   0  35  -7   10.60   11.40
   0  35  -7  -18.60   15.60
   0  35   7   -1.30   13.60
   1  35   7  503.65   42.30
   1  35   7  499.25   38.40
   2  35   7  373.06   38.30
   2  35   7  356.96   36.00
  -5 -36   7  -20.00   15.70
  -5  36   7   -4.00   13.60
  -5  36   7   -2.90   20.50
  -4 -36   7  -14.70   14.30
  -4  36   7   18.60   13.50
  -4  36   7   25.50   21.00
  -3 -36   7   16.00   15.10
  -3  36   7   44.10   15.30
  -3  36   7   54.89   20.30
  -2 -36   7   -3.50   13.70
  -2  36   7   44.60   21.70
   2  36  -7    2.50   14.20
  -2  36   7   10.10   13.40
  -1 -36   7   -1.80   13.20
  -1  36   7    4.60   13.70
  -1  36   7  -47.90   16.40
   1  36  -7   -0.30   11.70
   0 -36   7    5.40   13.80
   0  36   7   14.50   14.70
   0  36   7   32.00   19.40
   0  36  -7    5.40   13.10
   1 -36   7  -23.40   21.70
   1  36   7  -15.40   19.00
   1  36   7   20.70   17.10
  -4  37   7  106.79   18.80
  -4  37   7   99.29   27.40
  -3  37   7   79.99   24.90
  -3  37   7   80.09   17.50
  -2  37   7  397.86   31.80
  -2  37   7  445.76   43.00
  -1  37   7  324.57   30.80
  -1  37   7  251.37   35.10
   0 -37   7   14.20   15.80
   0  37   7   13.30   15.80
   0  37   7   25.00   20.20
   1  37   7  215.28   32.20
   1  37   7  353.76   35.30
  -4  38   7  276.57   38.10
  -4  38   7  192.48   22.90
  -3  38   7  368.26   44.10
  -3  38   7  361.86   29.00
  -2 -38   7    0.60   15.00
  -2  38   7   37.00   22.40
  -2  38   7   39.50   15.80
   1  38  -7  202.68   17.80
  -1  38   7  211.38   32.70
  -1  38   7  219.98   26.70
   0  38   7  235.48   32.60
   0  38   7  278.67   30.00
  -3 -39   7  -24.10   19.10
  -3  39   7  -18.30   21.50
  -3  39   7   -9.00   13.60
  -2  39   7   20.80   22.90
  -2  39   7    7.20   14.00
  -1  39   7   29.00   20.70
  -1  39   7    1.90   15.00
   1  39  -7   10.40   11.80
 -10   0   8  416.96   38.70
 -10   0   8  457.15   38.70
  -9   0   8  291.67   31.30
  -9   0   8  378.26   35.00
  -8   0   8  129.19   21.00
  -8   0   8  149.69   23.70
  -7   0   8  427.56   32.80
  -7   0   8  429.26   32.90
  -6   0   8  587.94   36.80
  -6   0   8  637.44   39.60
  -5   0   8  361.16   28.50
  -5   0   8  326.77   27.20
   4   0  -8  305.37   24.30
  -4   0   8  324.77   25.90
  -4   0   8  285.47   25.40
  -3   0   8 1859.41   69.79
   3   0  -8 1776.52   62.99
   3   0  -8 1872.51   64.79
  -3   0   8 1819.72   66.69
   2   0  -8 1416.46   55.59
  -2   0   8 1526.65   61.09
  -2   0   8 1464.75   59.09
   2   0  -8 1504.25   55.49
  -1   0   8   72.19   16.10
   1   0  -8   60.19   14.30
  -1   0   8   69.29   14.60
   0   0  -8 1562.54   59.39
   0   0   8 1638.44   65.69
   0   0   8 1547.95   62.99
   1   0   8 1131.19   53.59
   1   0   8 1184.08   55.49
   2   0   8  116.49   21.30
   2   0   8  116.79   20.60
   3   0   8  687.63   43.30
   3   0   8  631.04   42.50
   4   0   8  462.25   38.20
   5   0   8   13.30   18.60
   6   0   8  220.88   36.20
 -10  -1   8   24.20   18.80
 -10  -1   8   23.80   17.10
 -10   1   8   18.90   19.10
 -10   1   8   59.19   18.70
  -9  -1   8   26.10   14.00
  -9  -1   8   24.80   16.10
  -9   1   8   42.80   16.20
  -9   1   8   33.10   17.70
  -8  -1   8   94.89   20.50
  -8  -1   8   84.29   18.70
  -8   1   8   91.19   18.90
  -8   1   8  116.19   21.60
  -7  -1   8  245.38   25.70
  -7  -1   8  251.87   24.40
  -7   1   8  223.58   24.60
  -7   1   8  255.57   26.40
  -6  -1   8   24.90   11.60
  -6  -1   8   19.90   12.00
  -6   1   8   19.60   12.00
  -6   1   8   10.90   10.70
  -5  -1   8  115.09   17.90
  -5  -1   8  126.69   19.90
  -5   1   8  164.28   22.20
   5   1  -8  156.48   21.60
  -5   1   8  162.48   22.80
   4  -1  -8  143.99   21.00
  -4  -1   8  148.29   21.40
  -4  -1   8  143.19   19.60
   4   1  -8  134.09   19.20
  -4   1   8  130.99   19.60
  -4   1   8  123.69   19.50
  -3  -1   8   56.59   14.30
  -3  -1   8   52.39   13.30
   3  -1  -8   30.80   14.20
   3  -1  -8   69.39   14.60
  -3   1   8   51.79   13.40
   3   1  -8   46.50   12.10
  -3   1   8   59.89   14.90
   3   1  -8   66.99   14.90
   2  -1  -8  277.27   24.30
   2  -1  -8  228.28   21.20
  -2  -1   8  201.98   22.40
  -2  -1   8  254.07   23.80
  -2   1   8  276.27   24.80
   2   1  -8  251.77   22.90
  -2   1   8  244.68   23.70
   2   1  -8  220.98   21.00
   1  -1  -8  375.06   27.20
  -1  -1   8  377.16   29.40
  -1  -1   8  346.77   27.30
  -1   1   8  387.86   28.70
   1   1  -8  332.67   25.00
  -1   1   8  379.26   29.40
   0  -1  -8   73.69   16.10
   0  -1   8   72.49   16.60
   0  -1   8   81.89   17.00
   0   1   8  102.99   19.50
   0   1   8   93.39   18.00
   0   1  -8   65.39   15.60
   1  -1   8  304.47   27.20
   1  -1   8  304.07   27.60
   1   1   8  359.66   29.90
   1   1   8  327.27   28.50
  -1   1  -8  263.07   25.90
   2  -1   8  714.53   42.70
   2  -1   8  582.24   38.80
   2   1   8  579.34   40.90
   2   1   8  641.44   40.70
   3  -1   8   15.70   12.30
   3  -1   8   37.20   16.30
   3   1   8   11.00   13.40
   3   1   8   46.40   15.90
   4  -1   8    8.50   14.00
   4   1   8   14.90   16.30
   5  -1   8  137.59   27.60
   5   1   8  136.09   27.10
   6  -1   8   51.19   22.90
   6   1   8   43.80   23.50
 -10  -2   8  128.29   25.70
 -10  -2   8  114.89   25.60
 -10   2   8   80.89   20.50
 -10   2   8   57.59   20.00
  -9  -2   8  454.65   35.90
  -9  -2   8  422.46   35.50
  -9   2   8  403.46   36.30
  -9   2   8  409.06   36.10
  -8  -2   8   11.50   11.80
  -8  -2   8    9.00   13.40
  -8   2   8    4.70   12.00
  -8   2   8   17.80   12.30
  -7  -2   8  138.49   21.30
  -7  -2   8  148.99   23.20
  -7   2   8   94.29   19.60
  -7   2   8  128.89   21.00
  -6  -2   8  350.26   28.50
  -6  -2   8  442.36   32.20
  -6   2   8  371.96   29.60
  -6   2   8  347.17   30.30
  -5  -2   8  229.68   22.10
  -5  -2   8  223.38   23.80
   5   2  -8  268.07   24.30
  -5   2   8  297.67   26.10
  -5   2   8  221.78   23.70
  -4  -2   8  229.58   23.10
  -4  -2   8  233.08   21.50
   4   2  -8  223.48   22.50
  -4   2   8  160.58   22.20
  -4   2   8  171.18   20.80
   3  -2  -8 1292.07   52.29
  -3  -2   8 1457.45   58.79
  -3  -2   8 1229.68   52.49
   3   2  -8 1372.76   52.39
  -3   2   8 1318.87   56.79
   3   2  -8 1304.47   51.69
  -3   2   8 1307.27   55.19
   2  -2  -8  307.87   29.10
   2  -2  -8  254.87   22.90
  -2  -2   8  254.17   23.80
  -2  -2   8  334.07   27.00
  -2   2   8  309.07   26.40
   2   2  -8  279.47   22.90
  -2   2   8  326.07   27.60
   2   2  -8  285.27   23.30
  -1  -2   8    8.30    9.20
  -1  -2   8   21.10   10.10
   1  -2  -8   -0.50   10.10
  -1   2   8    9.70    9.00
   1   2  -8   13.50    9.70
   1   2  -8   14.20   12.40
  -1   2   8   33.50   11.90
   0  -2   8  688.73   39.70
   0  -2   8  680.63   39.50
   0   2   8  659.23   39.70
   0   2  -8  707.63   36.20
   0   2   8  609.74   39.60
   1  -2   8  413.96   30.90
   1  -2   8  354.26   30.80
   1   2   8  403.16   30.90
  -1   2  -8  318.27   26.60
   1   2   8  349.87   31.10
   2  -2   8   17.80   12.80
   2  -2   8   -0.40   11.70
   2   2   8   -3.60   11.50
   2   2   8   -4.90   11.70
   3  -2   8  653.23   42.80
   3  -2   8  642.74   43.30
   3   2   8  737.43   45.80
   3   2   8  709.43   44.30
   4  -2   8  269.97   32.70
   4   2   8  304.77   31.50
   5  -2   8    8.70   16.90
   5   2   8   11.00   18.30
   6  -2   8   36.00   21.50
   6   2   8  105.39   27.40
 -10  -3   8  326.47   34.50
 -10  -3   8  322.87   35.90
 -10   3   8  305.47   35.90
 -10   3   8  345.27   34.20
  -9  -3   8   21.30   14.70
  -9  -3   8   31.60   14.80
  -9   3   8    3.40   15.20
  -9   3   8   20.10   14.30
  -8  -3   8  741.53   42.40
  -8  -3   8  684.03   43.40
  -8   3   8  755.42   43.90
  -8   3   8  732.23   43.30
  -7  -3   8  626.64   41.20
  -7  -3   8  645.94   38.30
  -7   3   8  633.64   40.40
  -7   3   8  642.54   39.70
  -6  -3   8    8.50   10.60
  -6  -3   8   -1.30    9.30
  -6   3   8    3.60    9.10
  -6   3   8    7.20    9.40
  -5  -3   8  713.03   41.10
  -5  -3   8  760.42   38.70
  -5   3   8  801.32   43.30
  -5   3   8  690.63   39.50
   5   3  -8  731.73   37.90
  -4  -3   8 1354.16   55.19
  -4  -3   8 1394.06   58.79
  -4   3   8 1468.55   58.59
   4   3  -8 1358.26   53.09
  -4   3   8 1380.06   58.89
   4   3  -8 1318.37   62.59
  -3  -3   8    4.50    8.30
  -3  -3   8    1.50    8.60
  -3   3   8   11.20    9.00
   3   3  -8   -1.40   10.20
  -3   3   8   24.80   11.00
   3   3  -8    3.50    9.20
  -2  -3   8 1034.50   49.10
   2  -3  -8 1121.39   52.09
  -2  -3   8 1040.90   46.90
   2   3  -8  951.80   43.00
  -2   3   8 1054.39   49.60
   2   3  -8 1037.70   44.50
  -2   3   8 1007.80   47.80
  -1  -3   8 1485.75   60.89
  -1  -3   8 1536.25   60.29
   1  -3  -8 1537.85   62.99
   1   3  -8 1440.86   56.79
  -1   3   8 1522.45   61.29
   1   3  -8 1540.65   57.09
  -1   3   8 1531.75   62.39
   0  -3   8   64.79   14.90
   0  -3   8   87.29   18.00
   0   3   8   98.89   17.50
   0   3  -8   60.79   14.20
   0   3   8  111.29   20.50
   1  -3   8 1001.90   49.70
   1  -3   8 1015.60   50.39
   1   3   8 1063.49   53.09
  -1   3  -8 1043.00   47.90
   1   3   8 1019.40   50.79
   2  -3   8 1983.40   77.09
   2  -3   8 2014.20   77.49
   2   3   8 1956.10   77.09
   2   3   8 2053.89   79.79
   3  -3   8  436.06   36.60
   3  -3   8  421.96   34.10
   3   3   8  405.66   35.40
   3   3   8  420.96   34.80
   4  -3   8  111.99   23.70
   4   3   8  146.89   28.70
   5  -3   8  551.14   43.90
   5   3   8  586.34   45.00
   6  -3   8  156.48   30.10
   6   3   8  134.39   28.30
 -10  -4   8   26.60   16.60
 -10  -4   8   -2.40   16.90
 -10   4   8    5.80   18.20
 -10   4   8   23.10   15.20
  -9  -4   8   66.39   18.30
  -9  -4   8   38.50   17.90
  -9   4   8   45.50   17.20
  -9   4   8   43.30   19.10
  -8  -4   8    6.60   12.60
  -8  -4   8   23.20   14.30
  -8   4   8   51.69   14.50
  -8   4   8   35.50   15.00
  -7  -4   8   16.50   11.40
  -7  -4   8    9.80   10.50
  -7   4   8   18.20   12.50
  -7   4   8   -0.40   10.40
  -6  -4   8  109.99   19.40
  -6  -4   8   75.29   15.00
  -6   4   8   78.49   17.40
  -6   4   8   89.59   18.00
   6   4  -8   88.49   17.60
  -5  -4   8   -9.20    8.70
  -5  -4   8    4.80   10.30
   5   4  -8   19.80   12.00
  -5   4   8    9.20    9.60
  -5   4   8   15.10   11.10
  -4  -4   8  108.29   18.70
  -4  -4   8  128.59   18.60
   4   4  -8  122.19   19.10
   4   4  -8   86.59   15.90
  -4   4   8  100.19   17.90
  -4   4   8  142.19   20.70
  -3  -4   8  104.39   19.30
  -3  -4   8   82.49   15.40
  -3   4   8  156.98   21.60
   3   4  -8  130.19   19.30
   3   4  -8   96.39   15.70
  -3   4   8  129.39   20.40
  -2  -4   8   36.30   12.60
  -2  -4   8   36.00   12.00
   2   4  -8   26.50   11.60
  -2   4   8   29.30   10.90
   2   4  -8   36.50   11.40
  -2   4   8   20.70   11.40
  -1  -4   8   10.60    9.20
  -1  -4   8   10.80    8.90
  -1   4   8   18.60   10.60
   1   4  -8    9.80   10.90
  -1   4   8    4.60    9.30
   1   4  -8    4.60    9.60
   0  -4   8   18.60   11.00
   0  -4   8   20.50   10.70
   0   4  -8   12.00   10.60
   0   4   8   -2.10    9.70
   0   4   8   11.00   10.10
   1  -4   8   29.30   12.50
   1  -4   8   23.70   12.00
   1   4   8   46.00   14.60
   1   4   8   20.00   14.00
  -1   4  -8   34.30   13.60
   2  -4   8    2.40   11.30
   2  -4   8   16.90   12.30
  -2   4  -8   -3.20   15.30
   2   4   8   -0.20   10.40
   2   4   8   11.90   11.90
   3  -4   8   18.80   14.70
   3   4   8   26.40   13.00
   3   4   8   29.80   15.90
   4  -4   8   34.10   15.40
   4   4   8   15.90   15.20
   5  -4   8    5.60   17.70
   5   4   8   35.90   17.40
   6  -4   8   30.00   20.50
   6   4   8    8.30   23.10
 -10  -5   8  213.58   29.00
 -10  -5   8  218.48   32.30
 -10   5   8  257.27   30.10
 -10   5   8  199.18   30.50
  -9  -5   8   11.20   15.60
  -9  -5   8   42.60   17.00
  -9   5   8   45.00   16.30
  -9   5   8   10.90   13.30
  -8  -5   8  370.26   30.60
  -8  -5   8  420.76   35.50
  -8   5   8  323.67   32.70
  -8   5   8  356.66   31.10
  -7  -5   8  482.65   32.90
  -7  -5   8  531.75   36.40
  -7   5   8  486.85   36.80
  -7   5   8  518.35   35.50
  -6  -5   8   31.80   12.60
  -6  -5   8   55.69   15.00
  -6   5   8   48.10   13.80
   6   5  -8   22.90   13.70
  -6   5   8   58.79   14.70
  -5  -5   8  567.74   33.20
  -5  -5   8  536.35   34.90
  -5   5   8  581.44   35.80
   5   5  -8  511.25   31.60
  -5   5   8  574.04   36.60
  -4  -5   8  846.32   44.20
  -4  -5   8  861.41   41.10
   4   5  -8  843.52   39.80
  -4   5   8  902.61   45.60
  -4   5   8  890.31   45.40
   4   5  -8  775.32   40.10
  -3  -5   8    6.20    8.70
  -3  -5   8   14.70   10.10
   3   5  -8   18.20   10.00
  -3   5   8    4.10    7.60
   3   5  -8   11.60    9.00
  -3   5   8   22.00   11.10
  -2  -5   8  817.12   43.30
  -2  -5   8  815.82   40.30
   2   5  -8  752.72   37.30
  -2   5   8  835.42   44.10
   2   5  -8  764.52   37.60
  -2   5   8  822.62   42.80
  -1  -5   8 1111.59   51.49
  -1  -5   8 1119.79   50.19
  -1   5   8 1116.99   51.49
   1   5  -8 1186.98   48.90
  -1   5   8 1148.09   53.29
   1   5  -8 1099.89   46.90
   0  -5   8  105.09   18.20
   0  -5   8   81.69   16.80
   0   5  -8   91.39   16.10
   0   5   8   62.99   16.00
   0   5   8   84.69   17.40
   1  -5   8  465.15   33.30
   1  -5   8  513.75   34.70
   1   5   8  481.25   35.20
   1   5   8  474.95   36.30
  -1   5  -8  465.65   31.20
   2  -5   8  920.91   49.10
   2  -5   8  855.01   48.00
   2   5   8  850.41   48.50
  -2   5  -8  801.62   42.40
   2   5   8  830.82   46.90
   3  -5   8  154.08   24.20
   3   5   8  135.19   24.30
   3   5   8  176.78   25.80
   4  -5   8   95.39   21.10
   4   5   8   43.20   16.80
   4   5   8   53.99   18.40
   5  -5   8  497.75   41.90
   5   5   8  490.05   42.30
   6  -5   8  152.88   30.10
   6   5   8  104.59   26.40
 -10  -6   8  221.88   29.20
 -10  -6   8  209.08   30.10
 -10   6   8  197.38   28.70
 -10   6   8  231.48   34.70
  -9  -6   8  593.74   39.50
  -9  -6   8  680.73   46.30
  -9   6   8  644.14   42.30
  -9   6   8  616.54   45.00
  -8  -6   8  155.68   23.00
  -8  -6   8  136.29   23.40
  -8   6   8  169.48   24.90
  -8   6   8  152.38   25.20
  -7  -6   8  287.07   29.40
  -7  -6   8  288.07   25.80
  -7   6   8  308.87   28.50
  -7   6   8  249.97   28.50
  -6  -6   8 1143.69   55.19
  -6  -6   8 1220.68   50.89
   6   6  -8 1195.58   49.99
  -6   6   8 1185.58   54.99
  -6   6   8 1221.58   55.49
  -5  -6   8  249.08   21.60
  -5  -6   8  234.18   24.80
   5   6  -8  235.78   22.40
  -5   6   8  199.28   25.70
  -5   6   8  224.18   22.90
  -4  -6   8  581.94   33.40
  -4  -6   8  585.24   36.20
  -4   6   8  650.63   37.80
   4   6  -8  510.55   33.50
   4   6  -8  564.24   32.40
  -4   6   8  646.84   37.80
  -3  -6   8 1528.55   58.09
  -3  -6   8 1601.14   62.99
   3   6  -8 1520.85   57.89
  -3   6   8 1512.45   62.19
   3   6  -8 1576.14   56.29
  -3   6   8 1499.45   61.79
  -2  -6   8  517.25   33.60
  -2  -6   8  461.05   30.60
   2   6  -8  533.75   31.60
  -2   6   8  467.65   31.80
   2   6  -8  452.75   28.60
  -2   6   8  533.45   34.20
  -1  -6   8   78.69   16.20
  -1  -6   8  107.19   17.50
  -1   6   8  103.49   18.50
  -1   6   8   78.69   16.80
   1   6  -8   88.99   15.80
   1   6  -8   96.29   17.10
   0  -6   8  999.30   48.10
   0  -6   8 1013.80   48.70
   0   6  -8  991.70   44.30
   0   6   8  960.50   49.00
   0   6   8  917.21   47.60
   1  -6   8  662.23   40.00
   1  -6   8  573.94   37.60
   1   6   8  534.25   36.70
  -1   6  -8  638.64   37.10
   1   6   8  630.94   41.00
   2  -6   8   23.50   11.90
   2  -6   8   19.40   14.30
   2   6   8   13.50   11.40
  -2   6  -8   23.60   13.90
   2   6   8   33.30   14.00
   3  -6   8  750.62   45.50
   3   6   8  722.03   46.10
   3   6   8  573.74   41.00
   4  -6   8  669.23   45.30
   4   6   8  732.03   49.70
   4   6   8  672.23   45.70
   5  -6   8   -4.00   15.70
   5   6   8  -18.30   17.50
   6  -6   8  376.36   42.70
   6   6   8  395.56   44.90
 -10  -7   8   41.80   18.70
 -10  -7   8  -16.60   16.80
 -10   7   8    5.40   16.90
 -10   7   8    2.90   19.30
  -9  -7   8    2.10   14.10
  -9  -7   8    9.40   14.30
  -9   7   8   34.10   16.40
  -9   7   8    4.60   14.80
  -8  -7   8    4.90   13.60
  -8  -7   8   31.10   14.00
  -8   7   8   15.60   13.70
  -8   7   8   15.40   12.20
  -7  -7   8   25.10   13.60
  -7  -7   8    0.50   10.70
  -7   7   8   23.00   11.00
  -7   7   8   18.30   12.40
  -6  -7   8   31.20   12.80
  -6  -7   8   15.40   10.40
  -6   7   8   21.80   12.10
  -6   7   8   17.10   12.50
   6   7  -8   30.90   13.40
  -5  -7   8    8.90    9.70
  -5  -7   8   -1.30    8.80
   5   7  -8    2.80   10.50
  -5   7   8    9.70   11.20
  -5   7   8    5.80    9.70
  -4  -7   8   12.40   10.10
  -4  -7   8   -2.30    7.90
  -4   7   8    8.20    9.30
   4   7  -8    7.40    8.60
  -4   7   8    5.30    9.50
   4   7  -8   -8.20   10.00
  -3  -7   8   32.80   11.90
  -3  -7   8   21.50    9.90
  -3   7   8   40.10   12.30
   3   7  -8   34.60   11.70
  -3   7   8   28.80   11.70
   3   7  -8   25.10   11.70
  -2  -7   8   25.10   10.60
  -2  -7   8   31.10   11.70
   2   7  -8   16.20    9.90
  -2   7   8   26.00   11.30
   2   7  -8   21.60   10.40
  -2   7   8   33.10   11.80
  -1  -7   8   10.40    9.50
  -1  -7   8   -5.30    8.10
   1   7  -8   -7.20   10.30
   1   7  -8    8.40    9.10
  -1   7   8   -8.30    7.40
  -1   7   8  -11.60    8.30
   0  -7   8    5.30    9.30
   0  -7   8   21.40   11.30
   0   7   8   27.40   12.80
   0   7  -8   27.50   11.30
   0   7   8    8.80   10.10
   1  -7   8  -10.10    8.60
   1  -7   8   20.50   11.20
   1   7   8   14.80   11.40
   1   7   8    0.70   10.20
  -1   7  -8   11.60   12.00
   2  -7   8   20.40   12.70
   2  -7   8    7.30   10.80
   2   7   8   24.50   13.60
  -2   7  -8   25.90   12.80
   2   7   8   23.00   13.00
   3  -7   8   23.00   15.70
   3   7   8   23.80   15.00
   3   7   8   21.20   14.20
   4  -7   8   11.80   14.30
   4   7   8    5.70   15.10
   4   7   8    1.60   13.30
   5  -7   8   54.29   20.10
   5   7   8   49.30   20.40
   6  -7   8   40.40   23.30
   6   7   8   14.30   19.60
 -10  -8   8  223.58   29.80
 -10  -8   8  228.18   32.10
 -10   8   8  211.18   31.30
 -10   8   8  191.28   27.70
  -9  -8   8  415.46   33.90
  -9  -8   8  590.24   44.00
  -9   8   8  595.44   40.10
  -9   8   8  599.04   45.30
  -8  -8   8  197.58   25.40
  -8  -8   8  197.88   26.70
  -8   8   8  201.98   26.60
  -8   8   8  224.28   30.50
  -7  -8   8  465.75   31.00
  -7  -8   8  499.45   35.60
  -7   8   8  428.26   36.40
   7   8  -8  456.55   32.50
  -7   8   8  449.86   34.00
  -6  -8   8 1312.07   57.89
  -6  -8   8 1204.68   50.49
  -6   8   8 1277.97   58.19
  -6   8   8 1145.69   54.89
   6   8  -8 1290.27   50.99
  -5  -8   8  266.87   23.30
  -5  -8   8  302.67   27.10
  -5   8   8  284.37   25.50
   5   8  -8  257.17   22.50
  -5   8   8  264.07   27.10
  -4  -8   8  508.65   30.40
  -4  -8   8  496.35   33.10
  -4   8   8  470.85   32.30
   4   8  -8  513.85   29.50
   4   8  -8  470.35   32.40
  -4   8   8  492.35   33.50
  -3  -8   8 1572.74   57.29
  -3  -8   8 1569.94   62.19
   3   8  -8 1455.95   53.89
  -3   8   8 1377.96   59.79
  -3   8   8 1473.55   61.29
   3   8  -8 1489.95   57.29
  -2  -8   8  479.15   32.30
  -2  -8   8  403.36   28.60
   2   8  -8  408.16   27.90
   2   8  -8  438.76   28.80
  -2   8   8  466.95   32.10
  -2   8   8  450.35   32.70
  -1  -8   8  135.39   20.30
  -1  -8   8   94.09   17.90
   1   8  -8  104.99   18.40
  -1   8   8  109.69   18.70
  -1   8   8  117.19   19.00
   1   8  -8  105.89   17.40
   0  -8   8 1608.24   62.79
   0  -8   8 1594.34   64.29
   0   8  -8 1581.34   57.99
   0   8   8 1562.44   65.89
   0   8   8 1657.23   66.29
   1  -8   8  772.72   43.50
   1  -8   8  814.62   43.90
   1   8   8  778.32   45.00
  -1   8  -8  738.03   38.80
   1   8   8  749.23   44.50
   2  -8   8   -1.00   11.60
   2  -8   8   19.10   11.70
   2   8   8    7.60   11.50
  -2   8  -8   18.70   14.20
   2   8   8    7.10   11.20
   3  -8   8  693.73   44.90
   3   8   8  572.94   42.20
  -3   8  -8  637.44   46.60
   3   8   8  590.24   41.40
   4  -8   8  834.72   50.59
   4   8   8 1027.50   55.59
   4   8   8  838.32   52.99
   5  -8   8   16.70   19.80
   5   8   8   -0.70   18.40
   6  -8   8  283.07   38.50
   6   8   8  297.47   43.10
 -10  -9   8  190.48   28.50
 -10  -9   8  230.88   33.50
 -10   9   8  143.89   25.80
 -10   9   8  207.68   32.80
  -9  -9   8   15.30   15.00
  -9  -9   8   20.20   14.00
  -9   9   8   29.20   15.10
  -9   9   8   60.99   20.70
  -8  -9   8  463.05   37.40
  -8  -9   8  360.96   30.50
  -8   9   8  356.66   36.50
  -8   9   8  444.16   33.30
  -7  -9   8  339.97   29.80
  -7  -9   8  328.57   26.40
  -7   9   8  316.97   29.10
  -7   9   8  364.46   32.50
   7   9  -8  309.47   27.40
  -6  -9   8   19.30   11.40
  -6  -9   8    3.50    9.20
   6   9  -8    2.70   11.20
  -6   9   8   16.00   11.50
  -6   9   8    6.40    9.20
  -5  -9   8  874.21   46.00
  -5  -9   8  771.12   38.60
  -5   9   8  892.91   47.20
  -5   9   8  859.41   44.50
   5   9  -8  835.32   38.50
  -4  -9   8 1129.09   52.39
  -4  -9   8 1155.68   47.50
  -4   9   8 1199.18   54.19
  -4   9   8 1080.09   51.09
   4   9  -8 1083.19   44.40
   4   9  -8 1143.19   49.70
  -3  -9   8   20.40   10.20
  -3  -9   8    8.20    8.50
  -3   9   8   25.00   11.40
   3   9  -8   12.30   11.20
   3   9  -8   22.00   10.60
  -3   9   8    9.10    9.60
  -2  -9   8  656.93   37.80
  -2  -9   8  654.83   35.70
   2   9  -8  667.73   35.90
  -2   9   8  652.93   38.50
  -2   9   8  690.13   41.00
   2   9  -8  591.54   33.40
  -1  -9   8  212.78   22.30
  -1  -9   8  253.67   24.30
   1   9  -8  259.17   23.50
  -1   9   8  262.27   25.80
   1   9  -8  245.28   23.40
  -1   9   8  276.57   26.40
   0  -9   8   15.90   10.00
   0  -9   8   10.80   11.00
   0   9  -8    1.70   10.30
   0   9   8   19.50   10.60
   0   9   8   11.60    9.80
   1  -9   8  132.29   20.20
   1  -9   8  163.78   23.90
   1   9   8   91.09   19.50
  -1   9  -8  115.99   18.80
   1   9   8   94.99   18.40
   2  -9   8  516.95   37.30
   2   9   8  509.05   37.80
  -2   9  -8  491.85   34.20
   2   9   8  493.05   36.30
   3  -9   8  132.29   24.80
   3   9   8  109.49   21.70
   3   9   8  126.89   23.60
  -3   9  -8  103.19   22.30
   4  -9   8   44.00   17.20
   4   9   8   82.09   21.70
   4   9   8   54.09   17.80
   5  -9   8  313.27   37.70
   5   9   8  390.26   41.40
   6  -9   8   23.60   21.90
   6   9   8   31.30   22.00
 -10 -10   8   19.30   18.60
 -10 -10   8   11.10   20.00
 -10  10   8   31.50   18.00
 -10  10   8   11.80   21.10
  -9 -10   8   54.49   17.20
  -9 -10   8    8.80   15.90
  -9  10   8   20.00   13.00
  -9  10   8   38.10   17.80
  -8 -10   8   45.80   14.40
  -8 -10   8   23.10   14.00
  -8  10   8   59.69   18.00
  -8  10   8   51.49   16.80
  -7 -10   8   81.99   18.30
  -7 -10   8   62.99   15.30
  -7  10   8   32.50   12.50
   7  10  -8   60.69   16.40
  -7  10   8   59.79   18.60
  -6 -10   8  252.37   26.50
  -6 -10   8  212.58   21.00
  -6  10   8  181.08   21.60
  -6  10   8  184.58   27.10
   6  10  -8  201.88   21.90
  -5 -10   8   39.80   14.00
  -5 -10   8   80.69   14.70
   5  10  -8   78.49   15.00
  -5  10   8   52.59   15.30
  -5  10   8   98.99   18.90
  -4 -10   8   41.30   11.30
  -4 -10   8   83.69   16.30
   4  10  -8   31.40   11.20
  -4  10   8   50.59   13.80
   4  10  -8   57.69   16.00
  -4  10   8   53.29   14.20
  -3 -10   8   55.99   12.50
  -3 -10   8   92.49   17.60
   3  10  -8   84.69   15.10
  -3  10   8   64.49   14.80
   3  10  -8   66.89   14.50
  -3  10   8   78.59   17.00
  -2 -10   8   62.89   13.40
  -2 -10   8   61.19   14.70
  -2  10   8   51.49   14.60
   2  10  -8   41.20   11.40
   2  10  -8   78.89   15.30
  -2  10   8   90.89   17.90
  -1 -10   8   62.29   14.20
  -1 -10   8  119.49   18.90
  -1  10   8   72.39   15.70
   1  10  -8   95.99   16.60
  -1  10   8   73.69   17.10
   1  10  -8   83.29   15.00
   0 -10   8   28.10   13.00
   0 -10   8   44.30   15.30
   0  10   8   79.09   17.80
   0  10  -8   73.59   14.70
   0  10   8   51.19   14.40
   1 -10   8   31.50   14.30
   1 -10   8   24.90   13.30
   1  10   8   50.89   15.20
  -1  10  -8   37.60   13.30
   1  10   8   65.59   17.70
   2 -10   8   15.60   12.20
   2  10   8   -8.80   11.60
  -2  10  -8   28.00   13.60
   2  10   8    8.20   12.10
   3 -10   8   64.49   18.60
   3  10   8   54.79   17.60
  -3  10  -8   54.79   18.20
   3  10   8   44.60   16.70
   4 -10   8  132.69   25.10
   4  10   8  112.39   22.50
   4  10   8  163.28   27.70
   5 -10   8  -18.10   17.30
   5  10   8   25.20   18.40
 -10 -11   8  161.18   27.90
 -10 -11   8  304.07   31.40
 -10  11   8  200.68   32.30
 -10  11   8  219.78   29.70
  -9 -11   8   32.00   17.80
  -9 -11   8   35.20   15.90
  -9  11   8   21.90   15.50
  -9  11   8   18.60   17.10
  -8 -11   8  858.31   42.90
  -8 -11   8  886.41   49.50
  -8  11   8  801.92   46.60
  -8  11   8  851.21   50.79
  -7 -11   8  769.62   44.70
  -7 -11   8  734.13   38.50
  -7  11   8  743.83   43.50
   7  11  -8  798.22   39.10
  -7  11   8  799.12   47.60
  -6 -11   8  124.89   18.30
  -6 -11   8  126.29   20.00
   6  11  -8  112.69   17.90
  -6  11   8   68.69   17.90
  -6  11   8  135.99   21.30
  -5 -11   8 1058.49   51.69
  -5 -11   8 1153.28   46.70
  -5  11   8 1114.59   52.09
   5  11  -8 1105.99   44.90
  -5  11   8 1159.58   55.89
  -4 -11   8 1831.72   62.39
  -4 -11   8 1812.62   68.79
  -4  11   8 1807.02   71.09
   4  11  -8 1768.52   65.69
   4  11  -8 1742.73   59.39
  -4  11   8 1711.63   67.49
  -3 -11   8   67.69   15.00
  -3 -11   8   31.40   10.30
   3  11  -8   42.40   12.50
   3  11  -8   29.90   11.20
  -3  11   8   25.70   10.40
  -3  11   8   35.10   12.50
  -2 -11   8  901.11   45.60
  -2 -11   8  936.81   42.60
  -2  11   8  813.22   45.20
  -2  11   8  887.01   45.90
   2  11  -8  969.00   43.10
   2  11  -8  918.21   40.70
  -1 -11   8 1500.75   58.59
  -1 -11   8 1550.54   61.59
  -1  11   8 1564.04   63.89
  -1  11   8 1490.65   63.79
   1  11  -8 1444.96   55.09
   1  11  -8 1456.05   55.29
   0 -11   8  150.08   21.20
   0 -11   8  186.18   24.90
   0  11   8  143.59   22.20
   0  11  -8  157.88   20.20
   0  11   8  121.49   19.90
   1 -11   8  519.35   35.30
   1 -11   8  496.75   33.50
   1  11   8  460.75   34.60
   1  11   8  505.75   36.70
  -1  11  -8  530.65   32.80
   2 -11   8 1170.78   56.09
  -2  11  -8 1083.59   49.30
   2  11   8 1173.98   57.59
   2  11   8 1180.58   58.59
   3 -11   8  159.98   24.50
   3  11   8  204.08   29.70
  -3  11  -8  174.08   23.70
   3  11   8  192.28   27.90
   4 -11   8  333.17   34.60
   4  11   8  312.07   35.80
   4  11   8  316.07   33.10
   5 -11   8  464.15   39.50
   5  11   8  485.35   43.10
 -10  12   8  117.69   24.20
  -9 -12   8  173.88   24.10
  -9 -12   8  210.98   29.30
  -9  12   8  154.08   24.20
  -9  12   8  208.08   32.70
  -8 -12   8   82.39   17.20
  -8 -12   8   98.69   20.30
  -8  12   8  110.59   20.20
  -8  12   8  119.59   24.30
  -7 -12   8   31.80   12.70
  -7 -12   8   36.30   12.50
  -7  12   8   33.30   15.20
  -7  12   8   55.29   16.70
  -6 -12   8  170.68   23.60
  -6 -12   8  158.48   20.20
  -6  12   8  144.19   22.50
   6  12  -8  141.39   19.00
  -6  12   8  201.58   28.40
  -5 -12   8  128.89   21.30
  -5 -12   8  112.09   16.50
  -5  12   8  100.59   18.50
   5  12  -8   82.79   15.30
  -5  12   8  120.99   21.10
  -4 -12   8   63.49   13.60
  -4 -12   8   45.10   13.80
   4  12  -8   60.59   15.20
  -4  12   8   85.99   16.90
   4  12  -8   82.79   14.40
  -4  12   8   71.39   16.70
  -3 -12   8  882.81   40.20
  -3 -12   8  819.92   43.20
  -3  12   8  880.01   44.80
   3  12  -8  821.22   40.50
   3  12  -8  802.22   37.70
  -3  12   8  920.11   47.70
  -2 -12   8  391.36   28.90
  -2 -12   8  371.76   26.30
   2  12  -8  344.07   26.70
  -2  12   8  337.67   28.00
   2  12  -8  402.56   26.40
  -2  12   8  453.75   33.60
  -1 -12   8  362.16   29.10
  -1 -12   8  362.86   26.50
  -1  12   8  434.26   32.80
   1  12  -8  340.67   26.50
  -1  12   8  407.46   32.80
   1  12  -8  353.16   27.40
   0 -12   8  310.57   26.30
   0 -12   8  260.67   26.00
   0  12  -8  251.67   22.60
   0  12   8  330.77   29.30
   0  12   8  272.27   26.50
   1 -12   8  363.26   28.80
   1 -12   8  332.67   29.20
   1  12   8  308.77   30.50
   1  12   8  367.56   30.70
  -1  12  -8  390.56   28.70
   2 -12   8   20.40   13.10
  -2  12  -8   16.20   12.60
   2  12   8   17.70   13.50
   2  12   8   17.40   12.50
   3 -12   8  273.37   28.90
  -3  12  -8  247.78   27.90
   3  12   8  296.87   32.00
   3  12   8  287.77   30.10
   4 -12   8  229.98   31.30
   4  12   8  229.38   31.40
   4  12   8  230.98   33.10
   5 -12   8  -32.00   17.80
   5  12   8  -23.20   17.00
  -9 -13   8   19.20   15.30
  -9 -13   8    7.40   14.00
  -9  13   8   33.00   14.60
  -9  13   8   51.79   20.60
  -8 -13   8  183.98   27.40
  -8 -13   8  212.28   23.20
  -8  13   8  214.98   31.60
  -8  13   8  181.78   24.50
  -7 -13   8  147.49   24.50
  -7 -13   8  206.08   21.80
  -7  13   8  190.08   25.30
  -7  13   8  168.98   27.80
  -6 -13   8   22.00   14.30
  -6 -13   8   22.80   10.40
  -6  13   8   18.20   12.10
   6  13  -8    0.00   10.90
  -6  13   8    7.10   11.90
  -5 -13   8  340.27   24.60
  -5 -13   8  389.26   30.80
  -5  13   8  331.37   28.40
  -5  13   8  331.57   31.20
   5  13  -8  275.77   22.60
   5  13  -8  294.77   33.80
  -4 -13   8  423.86   30.80
  -4 -13   8  383.76   26.40
  -4  13   8  436.66   31.90
   4  13  -8  446.86   26.80
   4  13  -8  440.56   30.60
  -4  13   8  518.45   35.60
  -3 -13   8   20.70   11.10
  -3 -13   8   17.20    9.50
   3  13  -8   15.50   10.40
  -3  13   8    0.40    8.60
   3  13  -8   28.20   11.20
  -3  13   8    4.50   12.20
  -2 -13   8  261.37   22.80
  -2 -13   8  274.17   24.40
  -2  13   8  268.67   24.90
  -2  13   8  251.87   25.60
   2  13  -8  339.37   25.90
   2  13  -8  246.28   21.80
  -1 -13   8  456.15   30.30
  -1 -13   8  445.56   31.90
   1  13  -8  445.36   29.80
  -1  13   8  430.86   34.30
   1  13  -8  466.75   30.40
  -1  13   8  454.65   32.90
   0 -13   8  107.99   20.50
   0 -13   8  189.18   24.20
   0  13   8  198.88   23.30
   0  13  -8  136.19   18.50
   0  13   8  161.78   24.20
   1 -13   8  103.19   19.10
  -1  13  -8  103.39   17.40
   1  13   8  114.49   20.70
   1  13   8   97.89   19.90
   2 -13   8  230.38   26.70
   2  13   8  248.68   27.80
   2  13   8  268.77   27.60
  -2  13  -8  249.48   24.50
   3 -13   8   36.80   16.00
   3  13   8   26.10   15.80
   3  13   8    9.80   14.80
  -3  13  -8    2.40   15.30
   4 -13   8   72.59   20.20
  -4  13  -8   52.19   20.90
   4  13   8   65.79   19.10
   4  13   8   62.59   22.40
   5 -13   8  369.06   38.80
   5  13   8  319.07   41.00
  -9 -14   8  751.62   41.00
  -9 -14   8  813.62   50.29
  -9  14   8  754.32   46.00
  -9  14   8  827.62   54.99
  -8 -14   8  140.19   24.20
  -8 -14   8  118.49   18.80
  -8  14   8   92.69   19.00
  -8  14   8  106.59   23.80
  -7 -14   8  441.16   36.20
  -7 -14   8  515.35   30.60
  -7  14   8  514.95   40.60
  -7  14   8  483.55   35.10
  -6 -14   8 1180.98   55.79
  -6 -14   8 1136.09   46.10
   6  14  -8 1162.38   45.70
  -6  14   8 1073.69   52.09
  -6  14   8 1187.48   58.29
  -5 -14   8  242.98   21.50
  -5 -14   8  203.08   23.60
  -5  14   8  241.88   26.50
   5  14  -8  240.18   20.30
  -5  14   8  214.78   24.20
   5  14  -8  224.98   27.00
  -4 -14   8  157.88   22.00
  -4 -14   8  131.29   17.40
  -4  14   8  147.19   23.20
   4  14  -8  144.69   18.10
   4  14  -8  133.29   20.60
  -4  14   8  120.29   19.30
  -3 -14   8 1024.60   44.20
  -3 -14   8 1087.29   50.89
  -3  14   8 1053.79   50.09
   3  14  -8 1114.39   44.30
  -3  14   8 1075.89   53.69
   3  14  -8 1139.19   48.30
  -2 -14   8  550.94   35.00
  -2 -14   8  505.45   30.60
   2  14  -8  526.25   32.40
  -2  14   8  516.95   35.70
   2  14  -8  561.14   31.10
  -2  14   8  566.34   35.90
  -1 -14   8  163.18   21.90
  -1 -14   8  250.87   23.20
  -1  14   8  234.88   24.20
   1  14  -8  243.98   22.00
   1  14  -8  198.18   22.20
  -1  14   8  210.98   24.10
   0 -14   8 1999.70   71.89
   0 -14   8 1995.80   73.29
   0  14  -8 1957.10   66.99
   0  14   8 1925.21   75.89
   0  14   8 2058.79   77.29
   1 -14   8  561.14   36.60
   1  14   8  501.05   36.20
   1  14   8  486.95   38.40
  -1  14  -8  513.95   31.00
   2 -14   8  113.29   20.10
  -2  14  -8  145.19   21.20
   2  14   8  138.49   23.40
   2  14   8  140.49   23.50
   3 -14   8  664.53   44.40
   3  14   8  680.13   46.50
   3  14   8  722.73   48.40
  -3  14  -8  716.13   41.30
   4 -14   8  483.65   40.40
  -4  14  -8  511.45   41.60
   4  14   8  561.54   45.10
   4  14   8  586.84   46.70
   5 -14   8   -2.50   19.50
   5  14   8    9.80   19.70
  -9 -15   8    7.50   16.20
  -9 -15   8   22.20   15.20
  -9  15   8   17.50   20.80
  -9  15   8   23.30   15.30
  -8 -15   8   29.50   12.80
  -8 -15   8   20.40   15.00
  -8  15   8    1.00   12.30
  -8  15   8   34.90   18.00
  -7 -15   8   26.30   14.60
  -7 -15   8   17.80   11.80
  -7  15   8   23.00   13.20
  -7  15   8   23.30   16.20
  -6 -15   8   24.40   13.40
  -6 -15   8    7.50   10.10
  -6  15   8   43.00   16.30
   6  15  -8   19.10   11.90
  -6  15   8   13.20   10.80
  -5 -15   8  121.79   16.90
  -5 -15   8  118.59   20.20
  -5  15   8  112.19   19.50
  -5  15   8  158.68   24.70
   5  15  -8  127.59   16.60
   5  15  -8  113.69   20.00
  -4 -15   8   95.79   19.00
  -4 -15   8   93.79   15.20
  -4  15   8  100.79   17.60
   4  15  -8  101.59   19.40
   4  15  -8  114.19   16.50
  -4  15   8  158.58   25.80
  -3 -15   8   89.59   18.20
  -3 -15   8   73.29   14.30
   3  15  -8   93.69   15.30
  -3  15   8   82.49   16.20
  -3  15   8   82.89   17.60
   3  15  -8   59.49   14.30
  -2 -15   8   62.69   15.20
  -2 -15   8   19.40    9.60
   2  15  -8   22.20   11.00
   2  15  -8   32.60   11.80
  -2  15   8    8.40   10.00
  -2  15   8   38.80   11.90
  -1 -15   8  399.06   28.20
  -1 -15   8  401.16   30.40
   1  15  -8  403.96   27.40
   1  15  -8  391.56   28.10
  -1  15   8  399.96   31.80
  -1  15   8  336.47   28.80
   0 -15   8   72.09   15.70
   0 -15   8   62.69   16.60
   0  15  -8   70.29   16.30
   0  15   8   48.00   16.00
   0  15   8   65.99   17.50
   1 -15   8   66.99   16.80
  -1  15  -8   48.30   15.40
   1  15   8   54.99   16.30
   1  15   8   58.79   16.00
   2 -15   8   62.89   17.90
   2  15   8   74.79   19.10
  -2  15  -8   51.99   15.80
   2  15   8   66.89   18.30
   3 -15   8   34.80   15.70
  -3  15  -8   16.30   15.70
   3  15   8   13.30   15.20
   3  15   8   15.60   14.70
   4 -15   8  -13.60   15.40
   4  15   8    0.90   15.30
  -4  15  -8   37.80   20.20
   4  15   8   22.20   16.20
   5 -15   8   47.30   21.60
   5  15   8   38.20   23.10
  -9 -16   8  365.76   29.60
  -9 -16   8  385.86   37.00
  -9  16   8  388.66   34.20
  -9  16   8  299.67   39.20
  -8 -16   8   23.10   16.30
  -8 -16   8   65.69   14.40
  -8  16   8   20.70   17.60
  -8  16   8   48.60   15.20
  -7 -16   8  332.17   25.30
  -7 -16   8  334.87   32.90
  -7  16   8  341.17   30.10
  -7  16   8  344.27   33.50
  -6 -16   8  584.44   38.30
  -6 -16   8  585.04   31.30
   6  16  -8  523.05   30.00
  -6  16   8  536.55   35.80
  -6  16   8  484.05   38.00
  -5 -16   8   72.09   16.90
  -5 -16   8  107.89   15.20
  -5  16   8   97.89   17.70
   5  16  -8  105.69   19.70
  -5  16   8  127.19   23.40
   5  16  -8   82.09   14.30
  -4 -16   8   64.49   12.60
  -4 -16   8   85.09   17.40
  -4  16   8   62.49   16.90
   4  16  -8   62.19   17.30
   4  16  -8   86.59   14.60
  -4  16   8   69.79   16.40
  -3 -16   8  581.74   31.80
  -3 -16   8  568.44   36.60
  -3  16   8  568.14   38.90
  -3  16   8  545.55   36.10
   3  16  -8  618.74   31.30
   3  16  -8  584.24   34.10
  -2 -16   8  339.37   28.00
  -2 -16   8  365.16   25.70
   2  16  -8  340.27   27.50
  -2  16   8  332.17   29.30
   2  16  -8  377.36   25.40
  -2  16   8  374.46   29.20
  -1 -16   8   55.29   13.00
  -1 -16   8   36.70   12.90
  -1  16   8   27.10   11.20
  -1  16   8   25.10   11.40
   1  16  -8   41.50   13.30
   1  16  -8   23.10   13.00
   0 -16   8  789.32   41.90
   0 -16   8  812.22   43.50
   0  16   8  789.52   46.80
   0  16   8  837.52   47.20
   0  16  -8  818.92   38.80
   1 -16   8  267.57   26.90
  -1  16  -8  291.37   26.00
   1  16   8  276.87   30.10
   1  16   8  244.88   28.70
   2 -16   8   60.99   17.10
   2  16   8    5.70   14.00
  -2  16  -8   24.00   14.30
   2  16   8   28.20   14.00
   3 -16   8  329.67   33.20
   3  16   8  339.27   32.80
  -3  16  -8  276.27   30.40
   3  16   8  352.76   34.50
   4 -16   8  242.68   31.00
   4  16   8  189.88   29.60
   4  16   8  196.18   30.40
  -4  16  -8  206.08   29.70
   5 -16   8   23.20   20.40
   5  16   8   -9.40   19.00
  -9 -17   8   24.90   15.10
  -9 -17   8   38.00   18.10
  -9  17   8   21.60   14.60
  -9  17   8   47.20   20.30
  -8 -17   8  534.15   41.90
  -8 -17   8  536.75   31.70
  -8  17   8  545.55   38.80
  -8  17   8  595.24   46.80
  -7 -17   8  475.65   37.50
  -7 -17   8  377.56   26.50
  -7  17   8  365.36   34.80
  -7  17   8  444.16   33.50
  -6 -17   8   35.90   11.80
  -6 -17   8   56.59   16.70
  -6  17   8   15.80   14.50
  -6  17   8   19.60   13.10
   6  17  -8   18.40   10.90
  -5 -17   8  913.31   39.90
  -5 -17   8 1072.59   51.19
   5  17  -8  914.61   49.50
  -5  17   8 1017.20   55.49
   5  17  -8 1006.30   39.40
  -5  17   8 1019.00   49.40
  -4 -17   8  999.90   49.40
  -4 -17   8 1030.00   42.10
   4  17  -8 1073.29   41.60
  -4  17   8 1041.20   49.90
   4  17  -8  991.70   47.30
  -4  17   8 1012.00   53.69
  -3 -17   8   47.60   12.50
  -3 -17   8   26.90   13.90
  -3  17   8   44.70   15.50
   3  17  -8   46.00   14.60
  -3  17   8   65.09   15.50
   3  17  -8   52.09   12.90
  -2 -17   8  462.15   29.00
  -2 -17   8  355.16   29.00
  -2  17   8  472.35   35.50
   2  17  -8  456.05   27.80
  -2  17   8  477.25   34.30
   2  17  -8  471.55   30.60
  -1 -17   8 1742.43   66.59
  -1 -17   8 1744.63   63.29
   1  17  -8 1830.22   62.79
   1  17  -8 1644.64   60.09
  -1  17   8 1721.43   70.89
  -1  17   8 1676.43   68.19
   0 -17   8  127.89   20.50
   0  17   8  162.08   25.10
   0  17  -8  130.29   19.90
   0  17   8  159.88   24.40
   1 -17   8  630.44   39.20
   1  17   8  610.04   40.80
   1  17   8  598.64   42.00
  -1  17  -8  616.94   35.40
   2 -17   8  686.03   41.70
  -2  17  -8  564.24   36.20
   2  17   8  644.74   44.80
   2  17   8  714.13   45.00
   3 -17   8   86.49   20.90
  -3  17  -8   99.19   20.70
   3  17   8   64.39   21.00
   3  17   8   55.59   18.30
   4 -17   8   94.99   22.80
   4  17   8  103.49   24.90
   4  17   8   65.79   21.60
  -4  17  -8  100.49   23.10
   5 -17   8  562.84   45.80
   5  17   8  602.74   50.99
  -9 -18   8   20.60   17.30
  -9 -18   8   37.60   15.40
  -9  18   8    9.00   14.80
  -9  18   8  -14.10   18.30
  -8 -18   8    1.40   16.70
  -8 -18   8   -1.70   12.00
  -8  18   8   28.80   20.50
  -8  18   8   18.70   14.60
  -7 -18   8    8.90   10.60
  -7 -18   8   18.40   14.80
  -7  18   8   25.80   14.70
  -7  18   8  -21.00   15.00
  -6 -18   8   10.60   12.90
  -6 -18   8    1.50    9.10
  -6  18   8    0.00   10.80
  -6  18   8   17.70   12.60
   6  18  -8   15.60   10.80
  -5 -18   8   21.80    9.10
  -5 -18   8   15.10   11.60
   5  18  -8   23.50   10.30
  -5  18   8   15.70   14.20
  -5  18   8    5.10   10.80
   5  18  -8   -6.60   15.50
  -4 -18   8   33.80   12.60
  -4 -18   8   21.10    9.30
  -4  18   8    5.30    9.80
   4  18  -8    4.30   12.30
  -4  18   8   -4.10   11.70
   4  18  -8   17.50   10.20
  -3 -18   8   15.70   11.30
  -3 -18   8   19.60    9.20
   3  18  -8    3.20   10.00
  -3  18   8    1.10   10.50
  -3  18   8   19.10   11.60
   3  18  -8   10.10   13.00
  -2 -18   8   20.30   10.60
  -2 -18   8   28.20   11.70
  -2  18   8   59.69   15.10
  -2  18   8   39.30   14.30
   2  18  -8   45.90   13.10
   2  18  -8   33.80   12.00
  -1 -18   8   48.50   13.10
  -1 -18   8   58.99   14.80
  -1  18   8   74.59   17.00
   1  18  -8   72.19   16.40
  -1  18   8   58.89   14.50
   1  18  -8   57.89   15.20
   0 -18   8    5.20   10.90
   0  18   8   20.80   12.90
   0  18   8   14.60   12.30
   0  18  -8   33.20   12.30
   1 -18   8   21.90   13.10
  -1  18  -8   -1.20   11.40
   1  18   8   16.40   12.70
   1  18   8   20.70   12.50
   2 -18   8   -2.20   12.60
   2  18   8  -10.70   11.80
  -2  18  -8    2.10   12.80
   2  18   8    4.40   14.70
   3 -18   8   -1.70   14.80
  -3  18  -8    7.90   15.90
   3  18   8    5.00   15.30
   3  18   8   15.30   14.40
   4 -18   8   -4.20   16.00
  -4  18  -8   -8.70   18.40
   4  18   8   12.10   17.90
   4  18   8   23.00   17.10
   5 -18   8   20.40   20.90
   5  18   8    3.70   20.60
  -9 -19   8   76.79   21.10
  -9 -19   8   57.19   16.90
  -9  19   8   54.29   18.30
  -9  19   8   58.89   22.50
  -8 -19   8  625.14   33.10
  -8 -19   8  721.73   47.50
  -8  19   8  636.64   40.70
  -8  19   8  514.25   43.90
  -7 -19   8  570.84   40.80
  -7 -19   8  540.55   29.10
  -7  19   8  553.94   44.30
  -7  19   8  532.95   36.40
  -6 -19   8   32.70   16.10
  -6 -19   8   37.50   11.00
  -6  19   8   33.30   15.60
   6  19  -8   46.60   12.40
  -6  19   8   33.80   13.00
  -5 -19   8  470.05   26.70
  -5 -19   8  504.15   36.50
   5  19  -8  470.45   36.70
   5  19  -8  528.45   27.50
  -5  19   8  480.65   34.00
  -5  19   8  451.65   38.80
  -4 -19   8  891.31   45.70
  -4 -19   8  907.01   38.10
   4  19  -8  803.52   43.70
  -4  19   8  884.31   50.99
  -4  19   8  873.61   45.60
   4  19  -8  856.41   36.30
  -3 -19   8   31.70   11.10
  -3 -19   8   32.00   12.90
   3  19  -8   26.80   11.30
  -3  19   8   15.10   12.30
   3  19  -8   28.50   13.10
  -3  19   8   26.20   14.00
  -2 -19   8  451.55   28.40
  -2 -19   8  497.75   33.40
  -2  19   8  463.75   33.60
   2  19  -8  518.35   32.40
  -2  19   8  502.85   38.10
   2  19  -8  456.45   27.80
  -1 -19   8 1024.90   48.90
  -1  19   8 1026.10   53.09
  -1  19   8 1015.40   51.59
   1  19  -8  975.90   44.10
   1  19  -8 1085.19   46.20
   0 -19   8   16.70   12.90
   0  19   8   41.20   15.10
   0  19  -8   38.30   12.80
   0  19   8   42.40   15.20
   1 -19   8  592.84   37.70
   1  19   8  542.65   38.90
  -1  19  -8  485.35   31.90
   1  19   8  522.05   39.10
   2 -19   8  566.14   38.50
   2  19   8  623.04   42.60
  -2  19  -8  556.84   35.40
   2  19   8  591.84   43.40
   3 -19   8   49.20   17.40
  -3  19  -8   17.70   16.20
   3  19   8   52.19   17.80
   3  19   8   30.70   18.70
   4 -19   8  238.78   31.60
  -4  19  -8  270.07   31.50
   4  19   8  230.48   34.70
   4  19   8  259.37   35.70
   5 -19   8  316.97   37.20
   5  19   8  262.57   36.80
  -9 -20   8  224.98   24.30
  -9 -20   8  259.67   34.70
  -9  20   8  291.87   31.10
  -9  20   8  195.68   34.00
  -8 -20   8   93.09   21.80
  -8 -20   8  117.09   16.80
  -8  20   8  104.59   23.70
  -8  20   8  135.29   22.90
  -7 -20   8  138.59   22.80
  -7 -20   8  134.39   17.00
  -7  20   8  118.69   25.70
  -7  20   8  149.99   23.20
  -6 -20   8  629.34   41.00
  -6 -20   8  521.55   27.80
  -6  20   8  572.14   37.40
  -6  20   8  530.95   41.00
  -5 -20   8  168.88   25.40
  -5 -20   8  149.29   16.70
  -5  20   8  127.49   21.10
  -5  20   8  142.09   25.70
   5  20  -8  130.49   23.50
   5  20  -8  148.59   17.30
  -4 -20   8  112.79   19.70
  -4 -20   8   94.29   13.80
   4  20  -8  100.89   19.50
  -4  20   8  101.59   18.60
  -4  20   8  134.79   24.70
   4  20  -8   82.19   14.30
  -3 -20   8  748.63   40.60
  -3 -20   8  713.93   33.90
   3  20  -8  702.33   33.10
  -3  20   8  703.93   44.60
   3  20  -8  645.84   38.40
  -3  20   8  696.03   40.80
  -2 -20   8  583.84   32.10
  -2 -20   8  567.24   35.60
   2  20  -8  584.44   30.60
  -2  20   8  569.74   37.60
  -2  20   8  583.94   40.70
   2  20  -8  548.95   34.00
  -1 -20   8   70.89   17.30
   1  20  -8  101.19   17.60
  -1  20   8   87.89   19.90
  -1  20   8   81.79   19.50
   1  20  -8   86.59   17.20
   0 -20   8  573.84   35.90
   0  20   8  497.45   37.10
   0  20   8  479.45   36.50
   0  20  -8  468.75   31.20
   1 -20   8  661.23   40.20
   1  20   8  727.33   46.10
   1  20   8  762.52   46.20
  -1  20  -8  677.03   37.10
   2 -20   8   30.80   14.50
  -2  20  -8    4.00   14.10
   2  20   8   57.89   18.40
   2  20   8   40.50   18.00
   3 -20   8  495.25   37.70
   3  20   8  449.46   41.10
   3  20   8  533.85   41.00
  -3  20  -8  554.44   36.40
   4 -20   8  407.56   39.80
   4  20   8  386.16   39.70
   4  20   8  395.46   38.10
  -8 -21   8   73.39   14.70
  -8 -21   8   64.89   19.70
  -8  21   8   56.19   20.80
  -8  21   8   62.29   18.60
  -7 -21   8   22.00   10.80
  -7 -21   8   26.60   14.10
  -7  21   8   -2.70   11.80
  -7  21   8   10.90   16.40
  -6 -21   8    6.30    9.70
  -6 -21   8    6.50   12.90
  -6  21   8   48.40   16.20
  -6  21   8   29.20   13.30
  -5 -21   8   18.70   13.80
  -5 -21   8   19.30    9.40
   5  21  -8   23.50   10.30
  -5  21   8   16.80   11.50
  -5  21   8    5.40   14.70
   5  21  -8   -2.80   14.90
  -4 -21   8   38.00   14.30
  -4 -21   8   30.40   10.80
  -4  21   8   55.19   18.10
   4  21  -8   25.70   14.40
  -4  21   8   51.99   14.50
   4  21  -8   61.99   12.10
  -3 -21   8   30.60   13.90
  -3 -21   8   19.40    9.60
   3  21  -8   30.10   13.80
   3  21  -8   33.90   11.60
  -3  21   8   32.70   12.60
  -3  21   8   33.30   15.20
  -2 -21   8   15.60   10.80
  -2 -21   8   27.00   11.20
   2  21  -8   37.30   12.70
  -2  21   8   26.60   14.40
  -2  21   8   31.50   12.70
   2  21  -8   32.50   12.40
  -1 -21   8   -5.50   10.40
  -1  21   8    7.70   12.20
   1  21  -8   -2.70   11.50
  -1  21   8   12.30   11.80
   1  21  -8    5.40   12.60
   0 -21   8    7.10   11.80
   0  21   8   -4.80   12.00
   0  21  -8   22.80   12.70
   0  21   8   30.30   14.90
   1 -21   8   11.50   12.70
   1  21   8   -5.40   13.10
   1  21   8   11.60   14.20
  -1  21  -8   -0.40   12.20
   2 -21   8    2.60   14.00
   2  21   8   13.90   13.50
   2  21   8    3.50   13.90
  -2  21  -8   22.70   14.30
   3 -21   8  -19.00   14.40
   3  21   8   17.60   17.40
  -3  21  -8   -8.00   15.00
   3  21   8   26.40   15.30
   4 -21   8    1.40   18.40
   4  21   8    5.50   17.00
   4  21   8    3.30   18.80
  -8 -22   8   77.09   22.20
  -8 -22   8   69.79   14.20
  -8  22   8   74.29   18.60
  -8  22   8   79.69   24.90
  -7 -22   8  321.37   22.10
  -7 -22   8  339.17   33.80
  -7  22   8  364.36   36.80
  -7  22   8  339.17   30.70
  -6 -22   8  992.10   36.90
  -6 -22   8  927.41   51.09
  -6  22   8  966.10   56.19
  -6  22   8  990.00   49.60
  -5 -22   8  388.86   32.90
  -5 -22   8  351.96   21.70
  -5  22   8  318.77   33.80
   5  22  -8  272.17   29.90
  -5  22   8  275.77   27.60
   5  22  -8  334.57   21.60
  -4 -22   8  275.27   26.00
  -4 -22   8  303.07   21.20
   4  22  -8  313.57   20.60
   4  22  -8  268.47   29.10
  -4  22   8  254.67   26.80
  -4  22   8  252.77   34.40
  -3 -22   8 1522.85   52.09
  -3 -22   8 1500.95   61.09
  -3  22   8 1371.06   66.69
   3  22  -8 1395.46   49.10
  -3  22   8 1482.85   61.89
   3  22  -8 1435.36   57.69
  -2 -22   8  259.87   25.60
   2  22  -8  188.08   20.90
  -2  22   8  217.98   30.20
   2  22  -8  255.67   25.00
  -2  22   8  217.68   25.10
  -1 -22   8   97.19   18.90
   1  22  -8  114.99   18.50
  -1  22   8   79.09   18.70
   1  22  -8   88.89   16.80
  -1  22   8   98.79   19.10
   0 -22   8  712.03   40.70
   0  22   8  705.43   45.00
   0  22  -8  694.83   37.10
   0  22   8  783.92   47.60
   1 -22   8  421.96   32.50
   1  22   8  468.75   39.30
   1  22   8  451.45   37.70
  -1  22  -8  457.75   30.90
   2 -22   8   -9.20   14.50
  -2  22  -8   19.50   14.30
   2  22   8   12.70   16.30
   2  22   8   -4.60   12.50
   3 -22   8  565.54   39.80
   3  22   8  398.26   41.40
   3  22   8  514.25   42.90
  -3  22  -8  488.75   36.60
   4 -22   8  399.16   39.30
   4  22   8  396.66   39.00
   4  22   8  355.96   39.50
  -8 -23   8  195.78   30.60
  -8  23   8  160.78   24.60
  -8  23   8  184.38   32.00
  -7 -23   8  129.59   23.40
  -7 -23   8  172.78   16.90
  -7  23   8  121.59   22.70
  -7  23   8  177.28   31.10
  -6 -23   8    8.20   14.50
  -6 -23   8   20.00    9.20
  -6  23   8   21.10   17.40
  -6  23   8    6.30   12.00
  -5 -23   8  272.87   20.40
  -5 -23   8  321.07   30.30
  -5  23   8  256.97   27.00
   5  23  -8  292.77   33.20
  -5  23   8  351.06   35.10
   5  23  -8  326.07   20.40
  -4 -23   8  272.57   20.40
  -4 -23   8  242.98   27.20
  -4  23   8  278.37   32.10
  -4  23   8  314.77   28.20
   4  23  -8  238.98   19.10
   4  23  -8  257.97   29.40
  -3 -23   8    8.30   12.30
  -3  23   8    6.10   11.10
   3  23  -8   15.80   14.00
   3  23  -8    5.40   10.40
  -3  23   8   24.00   15.70
  -2 -23   8  314.67   27.70
  -2  23   8  223.18   30.70
   2  23  -8  294.27   23.80
  -2  23   8  322.77   29.20
   2  23  -8  311.77   27.60
  -1 -23   8  303.57   27.10
   1  23  -8  227.88   25.10
   1  23  -8  241.68   23.80
  -1  23   8  220.88   29.30
  -1  23   8  245.58   27.60
   0 -23   8    0.40   11.40
   0  23  -8    5.40   11.20
   0  23   8    5.00   12.70
   0  23   8    7.20   14.50
   1 -23   8   70.39   18.00
   1  23   8   83.49   21.00
  -1  23  -8   51.59   15.90
   1  23   8   99.89   22.60
   2 -23   8  313.37   31.60
  -2  23  -8  318.27   29.20
   2  23   8  333.17   35.40
   2  23   8  334.77   34.90
   3 -23   8  163.98   26.20
   3  23   8   96.69   22.90
  -3  23  -8  149.19   23.60
   3  23   8  138.49   27.30
   4 -23   8   66.69   21.50
   4  23   8   57.69   23.40
   4  23   8   34.80   22.20
  -8 -24   8    4.00    9.50
  -8 -24   8   -3.70   18.20
  -8  24   8   -0.40   14.70
  -8  24   8    5.00   20.90
  -7 -24   8   76.49   21.00
  -7 -24   8   49.00   10.60
  -7  24   8   59.39   17.60
  -7  24   8   79.59   23.80
  -6 -24   8  169.08   16.00
  -6 -24   8  171.38   26.00
  -6  24   8  161.88   23.30
  -6  24   8  155.68   27.60
  -5 -24   8   31.50    9.80
  -5 -24   8   43.50   15.70
   5  24  -8   50.09   10.20
  -5  24   8   45.20   19.10
   5  24  -8   50.89   20.60
  -5  24   8   28.70   13.40
  -4 -24   8   40.00   14.70
  -4  24   8   95.69   19.20
  -4  24   8   55.29   18.20
   4  24  -8  100.79   20.50
   4  24  -8   70.79   11.90
  -3 -24   8  179.58   24.10
   3  24  -8  219.58   24.80
  -3  24   8  273.67   27.50
   3  24  -8  210.88   19.50
  -3  24   8  193.58   29.10
  -2 -24   8    0.70   11.50
   2  24  -8   10.80   13.00
  -2  24   8   -1.20   11.40
  -2  24   8   -5.40   12.50
   2  24  -8    7.60   12.20
  -1 -24   8   11.40   12.50
   1  24  -8   36.20   13.20
  -1  24   8   38.60   16.80
  -1  24   8   15.40   11.20
   1  24  -8   14.10   13.80
   0 -24   8   66.69   16.90
   0  24   8   78.69   18.40
   0  24  -8   61.09   15.80
   0  24   8   41.70   17.10
   1 -24   8   90.19   19.40
   1  24   8  115.79   23.30
   1  24   8  127.49   24.10
  -1  24  -8  149.79   20.40
   2 -24   8   28.60   15.40
  -2  24  -8    6.20   14.00
   2  24   8   -2.80   14.50
   2  24   8   -5.60   14.80
   3 -24   8  174.48   26.40
   3  24   8  106.99   24.60
  -3  24  -8  108.19   23.70
   3  24   8  100.99   23.30
   4 -24   8   36.00   20.70
   4  24   8   30.00   19.20
   4  24   8   27.40   22.90
  -8 -25   8  465.85   42.20
  -8  25   8  491.35   44.70
  -8  25   8  523.95   38.90
  -7 -25   8  469.55   37.40
  -7  25   8  545.35   47.20
  -7  25   8  437.36   35.80
  -6 -25   8   -2.00   13.90
  -6 -25   8   10.30    8.10
  -6  25   8  -13.60   11.80
  -6  25   8    8.60   15.30
  -5 -25   8  523.05   37.50
  -5  25   8  450.45   41.80
   5  25  -8  502.75   22.60
  -5  25   8  523.05   35.40
   5  25  -8  451.65   36.80
  -4 -25   8  719.23   42.20
   4  25  -8  638.84   41.30
  -4  25   8  666.13   46.60
  -4  25   8  745.93   42.10
   4  25  -8  699.23   29.30
  -3 -25   8    0.20   11.50
   3  25  -8   -7.60    9.60
   3  25  -8    2.60   13.90
  -3  25   8   10.10   13.80
  -3  25   8    3.30   11.60
  -2 -25   8  457.45   33.40
   2  25  -8  454.65   32.00
   2  25  -8  484.75   29.00
  -2  25   8  546.05   41.70
  -2  25   8  495.75   35.60
  -1 -25   8  713.83   41.30
  -1  25   8  700.33   47.60
  -1  25   8  820.42   46.40
   1  25  -8  685.33   37.30
   1  25  -8  783.02   40.00
   0 -25   8   69.59   16.80
   0  25   8   18.60   14.60
   0  25  -8   36.30   14.80
   0  25   8   27.30   15.20
   1 -25   8  293.17   27.90
   1  25   8  239.98   31.80
   1  25   8  284.77   31.60
  -1  25  -8  222.28   25.60
   2 -25   8  729.63   43.40
   2  25   8  686.43   47.50
   2  25   8  708.63   47.60
  -2  25  -8  712.73   39.70
   3 -25   8  204.58   28.40
   3  25   8  239.98   33.50
   3  25   8  250.67   34.40
  -7 -26   8   45.20   18.70
  -7  26   8   30.00   15.70
  -7  26   8   33.00   19.60
  -6 -26   8  157.38   26.70
  -6  26   8  147.29   27.80
  -6  26   8  108.99   20.50
  -5 -26   8   92.69   20.60
  -5  26   8   89.49   18.70
  -5  26   8   34.10   19.20
   5  26  -8   87.79   22.50
  -4 -26   8   55.49   17.20
  -4  26   8   38.10   17.40
   4  26  -8   72.89   11.80
  -4  26   8   77.79   16.50
   4  26  -8   30.20   17.00
  -3 -26   8  291.47   28.30
  -3  26   8  281.07   31.80
  -3  26   8  295.57   28.30
   3  26  -8  331.37   22.00
   3  26  -8  301.37   28.50
  -2 -26   8  151.28   23.20
  -2  26   8  141.99   22.70
   2  26  -8  138.69   19.10
  -2  26   8  162.18   27.60
   2  26  -8  157.08   21.80
  -1 -26   8    2.70   12.40
   1  26  -8   -1.20   13.30
  -1  26   8    5.10   12.40
   1  26  -8   -7.10   12.50
  -1  26   8   30.30   18.20
   0 -26   8  101.29   18.60
   0  26   8   75.39   20.70
   0  26   8   85.29   20.60
   0  26  -8   77.19   16.70
   1 -26   8   14.70   15.10
   1  26   8   10.20   14.80
  -1  26  -8   30.00   14.50
   1  26   8   37.30   16.50
   2 -26   8  -21.10   14.90
  -2  26  -8   39.40   15.70
   2  26   8   13.40   16.60
   2  26   8    6.70   16.10
   3 -26   8   85.09   21.70
   3  26   8   41.00   21.30
   3  26   8   74.89   23.70
  -7 -27   8  179.78   26.60
  -7  27   8  131.99   30.40
  -7  27   8  183.38   25.40
  -6 -27   8   18.60   15.40
  -6  27   8   17.40   14.40
  -6  27   8    2.50   17.20
  -5 -27   8  267.37   28.70
  -5  27   8  192.68   31.20
  -5  27   8  286.67   28.60
   5  27  -8  167.58   28.70
  -4 -27   8  402.46   32.70
  -4  27   8  392.56   32.70
   4  27  -8  398.76   20.50
  -4  27   8  440.66   40.60
   4  27  -8  362.66   33.90
  -3 -27   8   17.70   13.30
  -3  27   8    5.50   14.40
   3  27  -8   36.80   16.30
   3  27  -8   17.90   10.60
  -3  27   8   -0.60   11.90
  -2 -27   8  232.78   26.50
   2  27  -8  285.97   28.30
  -2  27   8  208.58   30.20
  -2  27   8  297.97   29.80
   2  27  -8  260.47   22.90
  -1 -27   8  219.48   26.70
  -1  27   8  272.37   31.50
   1  27  -8  297.77   27.10
  -1  27   8  296.07   29.90
   1  27  -8  321.57   27.10
   0 -27   8   18.40   14.70
   0  27  -8   21.50   13.00
   0  27   8   21.00   14.10
   0  27   8   -1.40   14.50
   1 -27   8   53.29   17.10
   1  27   8   45.20   16.90
  -1  27  -8   73.59   17.10
   1  27   8   45.40   18.80
   2 -27   8  200.48   26.50
   2  27   8  206.68   31.30
   2  27   8  172.68   30.10
  -2  27  -8  155.98   22.80
   3 -27   8   40.10   18.70
   3  27   8   99.39   25.80
   3  27   8   84.29   23.50
  -7 -28   8  172.98   27.20
  -7  28   8  148.99   29.20
  -7  28   8  243.28   28.90
  -6 -28   8  581.54   42.00
  -6  28   8  604.84   40.10
  -6  28   8  621.34   49.50
  -5 -28   8  233.28   27.60
  -5  28   8  195.98   25.90
   5  28  -8  181.08   27.70
  -5  28   8  214.98   34.90
  -4 -28   8  156.98   23.20
   4  28  -8  180.58   14.90
  -4  28   8  183.98   25.30
   4  28  -8  156.88   25.10
  -4  28   8  133.59   26.40
  -3 -28   8  923.01   48.20
   3  28  -8  937.81   35.40
   3  28  -8  862.41   46.00
  -3  28   8  916.71   48.70
  -3  28   8  978.90   58.19
  -2 -28   8  269.47   27.80
  -2  28   8  297.97   29.50
   2  28  -8  298.67   23.40
  -2  28   8  275.17   32.20
   2  28  -8  299.47   26.90
  -1 -28   8    5.40   13.80
   1  28  -8   -5.90   12.80
  -1  28   8    7.40   14.10
  -1  28   8   25.00   15.50
   1  28  -8   24.80   15.20
   0 -28   8  568.44   37.50
   0  28   8  584.04   41.40
   0  28  -8  519.25   33.60
   0  28   8  481.75   40.10
   1 -28   8  446.26   34.30
   1  28   8  394.96   37.60
  -1  28  -8  406.66   31.40
   1  28   8  421.06   37.60
   2 -28   8   16.90   16.80
   2  28   8  -24.80   15.30
   2  28   8   -5.10   18.10
   3  28   8  520.45   45.30
   3  28   8  528.35   45.30
  -7 -29   8   33.70   21.10
  -7  29   8   30.50   16.00
  -7  29   8  -13.50   22.20
  -6 -29   8   40.20   19.70
  -6  29   8   35.10   19.40
  -6  29   8   52.99   17.70
  -5 -29   8   11.70   15.50
   5  29  -8   22.40   20.90
  -5  29   8   31.90   15.00
  -5  29   8   23.20   18.40
  -4 -29   8   64.99   18.30
   4  29  -8   62.59    9.30
  -4  29   8   66.89   23.50
  -4  29   8   50.19   16.60
   4  29  -8   72.19   20.90
  -3 -29   8   -2.90   13.00
  -3  29   8  -17.00   15.20
   3  29  -8    2.80   15.80
   3  29  -8   -3.80    9.60
  -3  29   8    7.70   13.70
  -2 -29   8   11.90   13.20
   2  29  -8   43.50   15.90
   2  29  -8    7.40   12.10
  -2  29   8   16.30   20.00
  -2  29   8   10.20   13.60
  -1 -29   8   17.10   13.70
  -1  29   8   25.80   16.30
  -1  29   8   14.70   13.30
   1  29  -8   14.00   15.20
   1  29  -8    1.00   13.80
   0 -29   8   -3.50   13.90
   0  29   8   10.00   15.10
   0  29  -8   23.90   14.60
   0  29   8   -8.00   17.40
   1 -29   8  -18.20   15.50
  -1  29  -8   20.30   15.20
   1  29   8   46.20   19.90
   1  29   8   26.90   18.60
   2 -29   8   21.70   16.80
   2  29   8   16.90   18.50
   2  29   8   23.30   18.50
  -6 -30   8  382.86   36.80
  -6  30   8  335.77   31.60
  -6  30   8  416.46   41.90
  -5 -30   8  112.69   22.80
  -5  30   8   88.39   19.50
  -5  30   8  104.19   25.40
   5  30  -8  107.39   27.30
  -4 -30   8   23.80   15.30
   4  30  -8    6.80   18.70
  -4  30   8   16.10   14.70
   4  30  -8   29.40    6.40
  -4  30   8   16.10   18.20
  -3 -30   8  314.67   30.80
  -3  30   8  310.27   29.10
   3  30  -8  323.57   30.80
   3  30  -8  289.67   19.90
  -3  30   8  300.97   38.30
  -2 -30   8  211.08   25.30
   2  30  -8  193.38   24.50
  -2  30   8  178.08   25.70
  -2  30   8  190.68   30.30
   2  30  -8  218.78   21.40
  -1 -30   8   79.89   18.70
  -1  30   8   90.99   20.10
   1  30  -8   58.79   17.00
   1  30  -8   78.99   18.20
  -1  30   8   44.40   19.90
   0 -30   8  508.35   35.80
   0  30  -8  435.56   31.50
   0  30   8  451.45   37.90
   0  30   8  385.76   40.10
   1 -30   8  273.07   29.60
   1  30   8  298.47   37.40
   1  30   8  296.77   35.10
   2  30   8   75.09   23.30
   2  30   8   79.99   21.80
  -6 -31   8  -19.50   17.60
  -6  31   8  -18.20   21.80
  -6  31   8   12.20   14.90
  -5 -31   8  403.66   34.90
  -5  31   8  269.27   30.80
  -5  31   8  266.57   37.80
  -4 -31   8  322.47   32.70
   4  31  -8  293.67   33.10
  -4  31   8  304.87   39.30
  -4  31   8  307.17   30.10
  -3 -31   8   23.40   15.20
   3  31  -8   12.60   17.30
  -3  31   8    7.90   18.90
   3  31  -8   23.10   10.00
  -3  31   8   21.80   15.00
  -2 -31   8  335.17   31.30
  -2  31   8  433.66   41.20
  -2  31   8  346.07   32.60
   2  31  -8  288.27   29.40
   2  31  -8  341.47   24.30
  -1 -31   8  538.45   37.00
   1  31  -8  520.55   33.70
  -1  31   8  418.96   37.40
   1  31  -8  529.85   33.10
  -1  31   8  508.55   43.60
   0 -31   8   63.39   18.80
   0  31   8   65.19   20.80
   0  31   8   73.99   22.80
   0  31  -8   78.89   17.10
   1  31   8  217.58   34.40
   1  31   8  296.67   34.20
   2  31   8  552.34   44.90
   2  31   8  451.25   43.20
  -6 -32   8   31.10   19.30
  -6  32   8   21.70   21.80
  -6  32   8    0.90   15.50
  -5 -32   8   18.50   17.50
  -5  32   8  -13.10   14.70
  -5  32   8  -12.20   17.70
  -4 -32   8   -3.20   15.50
  -4  32   8  -32.20   16.70
  -4  32   8    8.30   13.80
  -3 -32   8   -6.50   15.60
   3  32  -8   16.30   17.80
   3  32  -8   15.30    8.60
  -3  32   8   -2.40   13.00
  -3  32   8   31.30   20.50
  -2 -32   8   28.40   16.90
  -2  32   8   16.50   20.90
   2  32  -8   11.40   12.40
  -2  32   8   21.30   15.20
   2  32  -8   26.10   16.70
  -1 -32   8    4.30   15.30
   1  32  -8   12.30   14.30
   1  32  -8   14.90   15.80
  -1  32   8  -13.60   16.40
  -1  32   8    4.30   16.70
   0 -32   8  -11.00   15.20
   0  32   8   11.80   15.00
   0  32   8   10.20   17.60
   1 -32   8    4.40   17.10
   1  32   8    5.70   16.40
   1  32   8   15.20   20.80
  -5 -33   8  331.87   34.50
  -5  33   8  296.27   30.50
  -5  33   8  296.27   43.60
  -4 -33   8  345.27   33.00
  -4  33   8  292.27   30.50
  -4  33   8  318.17   40.90
  -3 -33   8    2.00   15.40
  -3  33   8    1.70   17.30
  -3  33   8   14.80   14.90
  -2 -33   8  265.97   29.60
  -2  33   8  242.48   29.60
  -2  33   8  210.38   33.60
  -1  33   8  717.33   52.79
  -1  33   8  710.23   46.00
   0 -33   8    6.50   16.40
   0  33   8   52.29   19.40
   0  33   8   55.49   24.60
   1  33   8  279.77   36.10
   1  33   8  212.48   30.80
  -5 -34   8   95.39   21.80
  -5  34   8  108.39   30.20
  -5  34   8  115.59   21.20
  -4 -34   8   40.50   19.60
  -4  34   8   63.59   25.30
  -4  34   8   42.40   17.00
  -3 -34   8  317.57   31.10
  -3  34   8  337.67   31.80
  -3  34   8  316.07   42.40
  -2 -34   8   44.20   18.00
  -2  34   8   98.39   25.70
  -2  34   8  131.29   23.00
  -1 -34   8  -17.80   15.80
  -1  34   8   30.50   18.30
  -1  34   8   30.40   20.30
   0  34   8  202.28   31.10
   0  34   8  275.07   33.00
  -4 -35   8   55.69   18.90
  -4  35   8   44.00   16.80
  -4  35   8   49.60   23.30
  -3 -35   8    1.30   16.30
  -3  35   8   29.30   21.60
  -3  35   8   -3.40   15.00
  -2 -35   8   16.10   17.40
  -2  35   8   37.70   18.30
  -2  35   8   82.59   25.80
  -1 -35   8   -3.00   16.70
  -1  35   8   81.99   21.20
  -1  35   8   35.80   24.70
   0  35   8  -30.70   21.20
   0  35   8  -27.80   16.80
  -3  36   8  407.16   43.10
  -3  36   8  436.76   35.70
  -2  36   8  173.48   26.10
  -2  36   8  146.09   29.00
  -1 -36   8   -5.10   26.80
  -1  36   8   81.29   26.80
  -1  36   8   57.09   20.40
  -9   0   9   14.20   15.40
  -9   0   9   -3.40   16.60
  -8   0   9   -6.70   12.30
  -8   0   9   24.50   16.60
  -7   0   9    8.40   13.20
  -7   0   9    7.70   12.70
  -6   0   9    6.50   12.70
  -6   0   9   16.10   12.60
  -5   0   9   -3.40   10.00
  -5   0   9   19.10   12.00
  -4   0   9   -1.60    9.80
  -4   0   9   24.60   12.20
  -3   0   9    4.90   11.10
  -3   0   9   -2.10   10.20
  -2   0   9   15.30   11.50
  -2   0   9   13.70   11.40
  -1   0   9   32.60   13.70
  -1   0   9   14.50   11.60
   0   0   9   10.70   11.90
   0   0   9    5.60   11.90
   1   0   9   13.40   12.50
   1   0   9   -5.00   12.20
   2   0   9   24.70   14.60
   2   0   9    0.30   14.70
   3   0   9   -3.40   14.70
   3   0   9   19.20   14.90
   4   0   9   25.00   19.90
   5   0   9   -7.60   21.80
  -9  -1   9   20.30   17.80
  -9  -1   9  -12.70   16.40
  -9   1   9   18.80   16.80
  -9   1   9   21.20   17.40
  -8  -1   9  324.27   34.20
  -8  -1   9  375.16   32.50
  -8   1   9  301.07   32.50
  -8   1   9  353.16   32.90
  -7  -1   9  837.72   48.90
  -7  -1   9  795.52   45.80
  -7   1   9  813.22   46.00
  -7   1   9  810.82   47.70
  -6  -1   9  144.69   21.90
  -6  -1   9  166.98   25.60
  -6   1   9  147.59   25.60
  -6   1   9  129.39   21.80
  -5  -1   9  360.76   31.50
  -5  -1   9  338.97   29.30
  -5   1   9  368.16   31.30
  -5   1   9  282.97   26.60
  -4  -1   9 1079.09   54.29
  -4  -1   9 1090.19   51.39
  -4   1   9 1099.49   53.19
  -4   1   9 1005.40   53.09
  -3  -1   9  296.37   28.30
  -3  -1   9  296.07   28.60
  -3   1   9  291.97   26.60
  -3   1   9  284.37   27.70
  -2  -1   9  314.57   30.10
  -2  -1   9  318.87   29.30
  -2   1   9  307.87   29.10
  -2   1   9  354.16   30.70
  -1  -1   9 1818.32   73.09
  -1  -1   9 1655.83   68.29
  -1   1   9 1726.03   71.89
  -1   1   9 1784.62   71.49
   0  -1   9  665.63   41.80
   0  -1   9  661.33   43.80
   0   1   9  607.34   41.70
   0   1   9  664.23   42.70
   1  -1   9  185.38   26.80
   1  -1   9  207.18   28.90
   1   1   9  202.68   28.60
   1   1   9  183.58   26.00
   2  -1   9  946.81   56.09
   2  -1   9 1074.79   56.19
   2   1   9 1046.00   56.09
   2   1   9 1027.20   58.69
   3  -1   9  400.96   41.00
   3  -1   9  469.25   40.60
   3   1   9  469.15   40.60
   3   1   9  406.96   40.20
   4  -1   9   -2.90   17.00
   4   1   9    0.80   18.00
   5  -1   9  383.96   46.00
   5   1   9  464.55   44.80
  -9  -2   9  356.86   35.20
  -9  -2   9  363.16   34.90
  -9   2   9  429.66   38.10
  -9   2   9  382.76   37.60
  -8  -2   9  357.46   33.20
  -8  -2   9  378.76   36.80
  -8   2   9  364.96   34.80
  -8   2   9  348.17   32.90
  -7  -2   9   78.89   18.70
  -7  -2   9   63.19   18.50
  -7   2   9   88.19   20.20
  -7   2   9   58.89   16.20
  -6  -2   9  760.62   47.10
  -6  -2   9  691.03   42.30
  -6   2   9  862.81   48.80
  -6   2   9  829.82   46.50
  -5  -2   9  384.36   30.70
  -5  -2   9  356.06   31.40
  -5   2   9  339.87   30.50
  -5   2   9  345.57   30.60
  -4  -2   9   25.50   11.00
  -4  -2   9   36.80   15.30
  -4   2   9   36.00   13.00
  -4   2   9   48.80   16.80
  -3  -2   9 1216.58   55.39
  -3  -2   9 1157.48   56.69
  -3   2   9 1181.18   55.19
  -3   2   9 1244.78   58.39
  -2  -2   9  896.81   49.60
  -2  -2   9  818.12   45.20
  -2   2   9  840.92   47.40
  -2   2   9  843.72   46.00
  -1  -2   9  103.89   19.40
  -1  -2   9  120.69   22.30
  -1   2   9  111.19   20.50
  -1   2   9  104.79   19.70
   0  -2   9  392.86   32.10
   0  -2   9  365.36   32.00
   0   2   9  321.17   30.50
   0   2   9  350.86   30.80
   1  -2   9  754.82   46.50
   1  -2   9  711.43   44.60
   1   2   9  721.73   45.20
   1   2   9  766.52   47.40
   2  -2   9   12.40   13.70
   2  -2   9   21.80   15.70
   2   2   9    9.70   14.50
   2   2   9   29.30   15.80
   3  -2   9  191.08   29.40
   3  -2   9  214.18   31.10
   3   2   9  233.58   32.10
   3   2   9  207.68   30.80
   4  -2   9  426.26   40.20
   4   2   9  337.47   41.90
   5  -2   9   56.59   24.50
   5   2   9   98.79   26.20
  -9  -3   9   12.20   18.00
  -9  -3   9   42.10   18.80
  -9   3   9   17.30   19.20
  -9   3   9   10.80   16.10
  -8  -3   9   66.59   16.70
  -8  -3   9   62.29   18.20
  -8   3   9   35.10   15.40
  -8   3   9   43.60   17.50
  -7  -3   9  147.79   25.60
  -7  -3   9  103.19   20.00
  -7   3   9  114.39   23.10
  -7   3   9  109.89   20.90
  -6  -3   9   35.10   15.00
  -6  -3   9   27.80   14.40
  -6   3   9   28.60   14.70
  -6   3   9   39.90   15.90
  -5  -3   9   96.69   20.80
  -5  -3   9   35.10   14.50
  -5   3   9   41.10   15.20
  -5   3   9   40.70   15.80
  -4  -3   9  296.97   30.30
  -4  -3   9  307.47   26.50
  -4   3   9  284.67   29.00
  -4   3   9  328.37   30.70
  -3  -3   9   18.10   12.50
  -3  -3   9   32.40   13.50
  -3   3   9   20.70   13.00
  -3   3   9   31.90   13.50
  -2  -3   9  144.99   24.60
  -2  -3   9  109.49   19.90
  -2   3   9  114.39   21.20
  -2   3   9   83.19   18.00
  -1  -3   9  131.79   22.50
  -1  -3   9  125.09   22.30
  -1   3   9  151.08   23.70
  -1   3   9  137.69   22.20
   0  -3   9   22.70   11.70
   0  -3   9   17.70   12.70
   0   3   9   13.10   11.50
   0   3   9   15.60   11.40
   1  -3   9   31.50   14.50
   1  -3   9   28.80   14.80
   1   3   9    5.90   12.80
   1   3   9   14.30   14.90
   2  -3   9   77.09   20.70
   2  -3   9   14.60   15.80
   2   3   9   33.40   16.80
   2   3   9   40.70   16.80
   3  -3   9   28.20   16.50
   3   3   9    5.00   17.40
   3   3   9   51.39   18.70
   4  -3   9  -19.70   17.50
   4   3   9    1.70   17.20
   5  -3   9   40.10   23.50
   5   3   9   19.20   23.90
  -9  -4   9  666.93   45.60
  -9  -4   9  582.74   44.40
  -9   4   9  513.95   41.00
  -9   4   9  575.34   45.20
  -8  -4   9  253.07   29.50
  -8  -4   9  297.17   30.80
  -8   4   9  320.77   33.20
  -8   4   9  287.77   33.00
  -7  -4   9   92.89   19.20
  -7  -4   9   72.09   20.10
  -7   4   9   49.20   18.20
  -7   4   9   67.79   18.50
  -6  -4   9  735.73   42.30
  -6  -4   9  702.33   43.90
  -6   4   9  657.43   42.70
  -6   4   9  774.22   44.70
  -5  -4   9  648.24   43.00
  -5  -4   9  631.44   38.40
  -5   4   9  657.93   40.80
  -5   4   9  697.83   43.70
  -4  -4   9   23.90   13.20
  -4  -4   9   40.30   14.60
  -4   4   9   38.20   14.60
  -4   4   9   29.40   13.90
  -3  -4   9 1660.73   64.59
  -3  -4   9 1643.94   68.49
  -3   4   9 1532.35   66.79
  -3   4   9 1506.55   64.89
  -2  -4   9 1597.04   64.59
  -2  -4   9 1515.15   66.19
  -2   4   9 1558.94   67.29
  -2   4   9 1582.74   66.49
  -1  -4   9   72.29   17.10
  -1  -4   9   59.59   16.30
  -1   4   9   44.00   14.90
  -1   4   9   63.69   16.70
   0  -4   9  971.30   52.59
   0  -4   9  961.50   50.49
   0   4   9  900.81   49.99
   0   4   9  992.70   53.19
   1  -4   9 1315.67   62.39
   1  -4   9 1328.47   61.99
   1   4   9 1294.97   62.29
   1   4   9 1297.77   64.49
   2  -4   9  117.89   22.00
   2  -4   9   96.89   22.10
   2   4   9  127.09   24.10
   2   4   9  139.69   26.40
   3  -4   9  371.96   38.30
   3   4   9  398.96   38.30
   3   4   9  361.86   38.10
   4  -4   9  720.43   52.49
   4   4   9  638.34   52.09
   5  -4   9   11.50   24.30
   5   4   9   17.00   21.00
  -9  -5   9    9.70   15.00
  -9  -5   9   44.40   18.50
  -9   5   9   15.50   16.20
  -9   5   9   17.20   14.10
  -8  -5   9   41.50   19.20
  -8  -5   9   52.39   18.40
  -8   5   9   85.99   21.00
  -8   5   9   89.69   22.40
  -7  -5   9  352.66   32.80
  -7  -5   9  363.66   31.00
  -7   5   9  405.96   36.20
  -7   5   9  400.36   35.00
  -6  -5   9   63.09   16.60
  -6  -5   9   32.60   14.60
  -6   5   9   51.49   15.50
  -6   5   9   40.00   15.10
  -5  -5   9  124.79   21.80
  -5  -5   9  123.79   20.60
  -5   5   9  153.88   23.30
  -5   5   9  111.79   21.20
  -4  -5   9  396.76   30.30
  -4  -5   9  366.46   31.80
  -4   5   9  402.16   32.60
  -4   5   9  391.36   32.00
  -3  -5   9   57.99   15.70
  -3  -5   9   34.80   13.40
  -3   5   9   65.69   16.80
  -3   5   9   40.70   16.00
  -2  -5   9   58.39   15.90
  -2  -5   9   45.10   14.60
  -2   5   9   35.50   13.40
  -2   5   9   42.10   15.60
  -1  -5   9  373.66   31.20
  -1  -5   9  400.76   33.50
  -1   5   9  373.16   32.30
  -1   5   9  360.76   30.70
   0  -5   9  277.07   27.90
   0  -5   9  287.77   28.60
   0   5   9  230.98   27.10
   0   5   9  259.27   27.50
   1  -5   9    8.80   11.40
   1  -5   9   41.70   16.20
   1   5   9   30.50   16.80
   1   5   9   25.50   13.70
   2  -5   9  416.46   35.40
   2  -5   9  370.46   36.30
   2   5   9  394.76   39.00
   2   5   9  320.67   32.70
   3  -5   9  125.79   27.80
   3   5   9  111.49   24.00
   3   5   9  100.39   23.20
   4  -5   9    9.60   21.10
   4   5   9   10.20   18.40
   5  -5   9  185.78   34.00
   5   5   9  184.78   34.10
  -9  -6   9   69.39   20.80
  -9  -6   9  108.09   24.80
  -9   6   9   64.39   21.40
  -9   6   9   73.79   20.60
  -8  -6   9  133.29   23.80
  -8  -6   9  101.59   21.50
  -8   6   9  128.19   22.60
  -8   6   9  118.99   24.60
  -7  -6   9   20.40   13.50
  -7  -6   9   28.20   16.30
  -7   6   9   15.30   11.80
  -7   6   9   54.19   18.30
  -6  -6   9  258.07   25.80
  -6  -6   9  226.38   30.50
  -6   6   9  195.88   27.60
  -6   6   9  220.38   26.10
  -5  -6   9  184.28   21.50
  -5  -6   9  101.29   20.00
  -5   6   9  139.09   23.70
  -5   6   9  167.18   25.70
  -4  -6   9   17.20   10.90
  -4  -6   9    4.90   11.80
  -4   6   9   37.10   13.70
  -4   6   9   16.70   13.50
  -3  -6   9  643.24   41.10
  -3  -6   9  657.23   39.20
  -3   6   9  694.43   43.40
  -3   6   9  720.03   43.70
  -2  -6   9  236.48   27.10
  -2  -6   9  208.68   23.70
  -2   6   9  224.78   25.90
  -2   6   9  172.58   24.90
  -1  -6   9   26.50   12.20
  -1  -6   9   10.70   11.50
  -1   6   9   19.80   12.00
  -1   6   9   15.50   13.40
   0  -6   9  263.37   26.70
   0  -6   9  269.97   29.80
   0   6   9  274.17   28.00
   0   6   9  265.17   28.40
   1  -6   9  428.76   35.00
   1  -6   9  444.56   35.80
   1   6   9  425.16   37.80
   1   6   9  488.85   39.30
   2  -6   9    6.20   15.10
   2  -6   9   36.00   15.60
   2   6   9   16.40   16.50
   2   6   9   23.30   14.80
   3  -6   9  160.48   26.50
   3   6   9  111.49   24.20
   3   6   9  105.19   21.70
   4  -6   9  225.58   34.40
   4   6   9  289.47   38.30
   5  -6   9   49.99   26.60
   5   6   9   46.60   23.80
  -9  -7   9   63.39   20.10
  -9  -7   9   33.10   17.10
  -9   7   9   24.10   16.80
  -9   7   9    1.10   19.10
  -8  -7   9  388.86   35.60
  -8  -7   9  407.66   32.90
  -8   7   9  382.06   35.20
  -8   7   9  329.57   31.70
  -7  -7   9 1054.39   51.19
  -7  -7   9 1175.18   58.09
  -7   7   9 1029.40   55.59
  -7   7   9 1119.29   57.89
  -6  -7   9   97.09   18.80
  -6  -7   9  135.49   23.20
  -6   7   9  129.39   23.10
  -6   7   9  135.59   22.50
  -5  -7   9  521.25   34.10
  -5  -7   9  549.95   39.20
  -5   7   9  528.15   37.90
  -5   7   9  544.65   37.90
  -4  -7   9 1325.57   56.69
  -4  -7   9 1382.26   62.09
  -4   7   9 1410.46   62.59
  -4   7   9 1295.37   61.39
  -3  -7   9  180.28   24.00
  -3  -7   9  190.38   26.50
  -3   7   9  159.68   24.30
  -3   7   9  234.68   25.90
  -2  -7   9  371.86   31.60
  -2  -7   9  387.36   29.60
  -2   7   9  408.76   32.60
  -2   7   9  462.95   36.00
  -1  -7   9 1404.46   63.09
  -1  -7   9 1359.36   59.69
  -1   7   9 1386.06   62.89
  -1   7   9 1312.47   62.09
   0  -7   9  466.95   36.00
   0  -7   9  492.65   36.40
   0   7   9  456.55   36.80
   0   7   9  495.35   38.00
   1  -7   9   23.20   14.30
   1  -7   9   50.69   16.50
   1   7   9   39.30   17.20
   1   7   9   39.60   16.30
   2  -7   9  728.63   46.50
   2  -7   9  753.92   47.90
   2   7   9  791.72   49.20
   2   7   9  780.62   50.09
   3  -7   9  420.06   37.50
   3   7   9  445.26   39.40
   3   7   9  467.85   43.40
   4  -7   9    4.20   20.40
   4   7   9    6.80   19.90
   4   7   9  -11.20   19.50
  -9  -8   9   33.00   19.00
  -9  -8   9   59.49   18.30
  -9   8   9   49.10   20.10
  -9   8   9   31.00   16.70
  -8  -8   9   52.49   19.00
  -8  -8   9   71.79   18.70
  -8   8   9   71.19   19.50
  -8   8   9   89.69   23.10
  -7  -8   9   54.69   17.50
  -7  -8   9   66.39   17.10
  -7   8   9    3.30   13.70
  -7   8   9    5.40   13.70
  -6  -8   9   75.59   19.20
  -6  -8   9   90.09   18.90
  -6   8   9   79.39   19.60
  -6   8   9   54.99   17.20
  -5  -8   9   96.99   18.20
  -5  -8   9  112.49   21.00
  -5   8   9   65.79   16.60
  -5   8   9   82.09   19.60
  -4  -8   9   15.10   13.00
  -4  -8   9   12.20   11.00
  -4   8   9   29.40   15.70
  -4   8   9   17.00   12.50
  -3  -8   9  112.39   21.20
  -3  -8   9  116.79   18.40
  -3   8   9  116.29   21.30
  -3   8   9  122.69   22.40
  -2  -8   9  165.98   23.50
  -2  -8   9  231.88   29.80
  -2   8   9  185.38   26.40
  -2   8   9  215.18   28.30
  -1  -8   9  126.09   21.70
  -1  -8   9  140.19   21.30
  -1   8   9   75.49   18.50
  -1   8   9  154.78   24.90
   0  -8   9   15.00   12.00
   0  -8   9    4.10   11.00
   0   8   9   15.30   14.60
   0   8   9   15.10   11.50
   1  -8   9  132.59   24.40
   1  -8   9   71.89   18.30
   1   8   9  101.59   21.20
   1   8   9  116.59   23.90
   2  -8   9   16.10   15.70
   2  -8   9   13.10   13.90
   2   8   9    7.20   13.50
   2   8   9   -4.40   12.70
   3  -8   9   38.00   18.20
   3   8   9   49.90   21.50
   3   8   9   65.49   20.60
   4  -8   9   92.69   26.40
   4   8   9  109.29   25.60
   4   8   9   62.49   23.10
  -9  -9   9   49.70   20.50
  -9  -9   9   21.10   17.30
  -9   9   9   10.60   16.50
  -9   9   9   -7.90   19.80
  -8  -9   9  164.78   28.00
  -8  -9   9  201.08   26.30
  -8   9   9  141.79   24.10
  -8   9   9  176.18   28.00
  -7  -9   9  362.26   31.40
  -7  -9   9  414.26   35.40
  -7   9   9  386.96   37.20
  -7   9   9  437.06   35.60
  -6  -9   9   30.90   13.30
  -6  -9   9   19.50   13.30
  -6   9   9   20.50   12.50
  -6   9   9   24.80   16.10
  -5  -9   9  230.18   23.60
  -5  -9   9  238.28   28.30
  -5   9   9  261.27   27.30
  -5   9   9  221.38   25.80
  -4  -9   9  557.94   34.40
  -4  -9   9  491.85   36.20
  -4   9   9  470.25   35.00
  -4   9   9  464.15   37.50
  -3  -9   9  157.58   22.20
  -3  -9   9  203.58   27.80
  -3   9   9  183.68   26.10
  -3   9   9  190.38   26.50
  -2  -9   9  109.89   19.90
  -2  -9   9   98.39   19.90
  -2   9   9   95.79   19.60
   2   9  -9  115.09   24.30
  -2   9   9   94.69   19.80
  -1  -9   9  761.92   43.10
  -1  -9   9  696.33   43.80
  -1   9   9  702.23   44.50
  -1   9   9  684.43   45.20
   1   9  -9  706.23   39.30
   0  -9   9  365.56   34.00
   0  -9   9  400.06   32.70
   0   9   9  367.46   32.90
   0   9  -9  452.15   39.40
   0   9   9  408.56   36.00
   1  -9   9   35.20   17.80
   1  -9   9   30.50   16.10
   1   9   9   27.60   13.80
   1   9   9   45.40   18.00
   2  -9   9  471.15   38.20
   2   9   9  488.15   40.60
   2   9   9  512.35   42.00
   3  -9   9  239.78   33.00
   3   9   9  250.47   34.10
   3   9   9  283.67   33.90
   4  -9   9   44.90   23.50
   4   9   9   29.70   19.70
   4   9   9   -5.10   17.90
  -9 -10   9  459.95   40.00
  -9 -10   9  477.65   38.60
  -9  10   9  524.15   42.10
  -9  10   9  435.96   40.60
  -8 -10   9  414.76   33.80
  -8 -10   9  393.56   36.50
  -8  10   9  475.95   38.70
  -8  10   9  385.66   39.20
  -7 -10   9   33.30   16.20
  -7 -10   9   -0.50   12.90
  -7  10   9    6.70   14.20
  -7  10   9   11.70   11.90
  -6 -10   9  669.03   38.80
  -6 -10   9  728.73   45.90
  -6  10   9  759.72   46.70
  -6  10   9  706.33   44.50
  -5 -10   9  551.44   35.50
  -5 -10   9  618.04   39.80
  -5  10   9  526.25   38.50
   5  10  -9  496.25   33.40
  -5  10   9  576.64   40.20
  -4 -10   9   -0.20   10.20
  -4 -10   9   21.90   12.80
   4  10  -9  -16.50   11.40
  -4  10   9  -10.30   10.70
  -4  10   9   -8.50   10.80
  -3 -10   9  879.61   44.50
  -3 -10   9  929.31   49.00
  -3  10   9  891.51   49.30
  -3  10   9  827.92   47.50
  -2 -10   9  655.13   41.40
  -2 -10   9  613.04   37.80
  -2  10   9  752.82   45.50
   2  10  -9  589.14   36.20
  -2  10   9  608.54   41.30
  -1 -10   9    2.10   10.80
  -1 -10   9  -10.40   11.50
  -1  10   9   10.60   11.60
   1  10  -9   -3.30   13.10
  -1  10   9   -8.50   10.40
   0 -10   9  573.54   38.00
   0 -10   9  647.74   42.90
   0  10  -9  560.34   35.80
   0  10   9  592.74   41.50
   0  10   9  695.23   43.70
   1 -10   9  638.14   41.10
   1 -10   9  583.54   42.00
   1  10   9  616.64   43.00
   1  10   9  658.33   45.40
   2 -10   9   45.10   17.80
   2  10   9   38.50   17.90
   2  10   9   47.70   18.70
   3 -10   9  267.47   32.10
   3  10   9  317.97   33.60
   3  10   9  250.07   34.60
   4 -10   9  625.44   49.70
   4  10   9  659.03   50.49
   4  10   9  656.73   51.99
  -9 -11   9    0.20   16.20
  -9 -11   9    1.40   17.70
  -9  11   9   27.10   19.20
  -9  11   9   29.40   16.50
  -8 -11   9    1.00   16.00
  -8 -11   9   11.00   14.00
  -8  11   9   18.20   15.00
  -8  11   9   26.90   17.10
  -7 -11   9   16.30   13.70
  -7 -11   9   -6.20   13.20
  -7  11   9   -6.40   13.50
  -7  11   9    7.30   16.00
  -6 -11   9   18.50   12.20
  -6 -11   9   19.80   13.40
  -6  11   9    7.80   10.80
  -6  11   9   26.00   16.10
   6  11  -9   27.00   17.30
  -5 -11   9   -7.90   10.90
  -5 -11   9    9.10   11.10
  -5  11   9   33.50   15.70
   5  11  -9    5.40   12.50
  -5  11   9   10.90   10.90
  -4 -11   9  113.99   18.30
  -4 -11   9  101.19   19.80
  -4  11   9   69.99   17.50
  -4  11   9   77.89   18.30
   4  11  -9   76.29   17.10
  -3 -11   9   43.20   15.50
  -3 -11   9   42.60   14.20
  -3  11   9   55.09   16.40
  -3  11   9   26.50   13.40
  -2 -11   9   -3.40   12.50
  -2 -11   9   10.30   10.80
   2  11  -9    3.40   12.00
  -2  11   9   15.50   12.80
  -2  11   9    2.10   12.40
  -1 -11   9   26.90   12.20
  -1 -11   9   17.00   12.20
  -1  11   9   39.60   14.50
  -1  11   9   29.60   13.90
   1  11  -9   21.90   15.40
   0 -11   9   42.40   15.70
   0 -11   9   58.99   16.40
   0  11  -9   28.70   14.10
   0  11   9   28.60   14.00
   0  11   9   46.80   16.20
   1 -11   9   23.40   15.10
   1 -11   9   62.49   18.20
   1  11   9   40.30   15.80
   1  11   9   78.69   20.00
  -1  11  -9   -1.40   16.50
   2 -11   9    8.90   14.30
   2  11   9   13.10   16.50
   2  11   9    8.20   16.00
   3 -11   9   -7.60   16.80
   3  11   9    8.30   17.00
   3  11   9    7.60   15.10
   4 -11   9   21.40   19.70
   4  11   9  -19.80   19.20
   4  11   9   37.40   19.40
  -9 -12   9  441.46   42.80
  -9 -12   9  444.16   35.60
  -9  12   9  412.16   37.20
  -9  12   9  394.66   42.00
  -8 -12   9  430.76   40.10
  -8 -12   9  347.57   29.50
  -8  12   9  367.76   35.40
  -8  12   9  342.17   39.00
  -7 -12   9   74.79   17.80
  -7 -12   9   72.19   19.70
  -7  12   9   89.89   21.50
  -7  12   9   50.79   16.80
  -6 -12   9  506.35   37.30
  -6 -12   9  444.96   31.00
  -6  12   9  499.65   36.30
   6  12  -9  404.76   31.30
  -6  12   9  371.76   34.90
  -5 -12   9  348.27   27.60
  -5 -12   9  360.56   33.00
  -5  12   9  337.87   31.80
   5  12  -9  367.66   27.90
  -5  12   9  337.07   30.00
  -4 -12   9    1.10   10.10
  -4 -12   9   10.50   14.10
  -4  12   9    4.90   12.20
   4  12  -9   -4.10   11.90
  -4  12   9   -3.90   10.10
  -3 -12   9  614.44   40.80
  -3 -12   9  615.84   36.80
   3  12  -9  568.64   35.60
  -3  12   9  629.14   42.70
  -3  12   9  625.04   41.40
   3  12  -9  637.14   57.59
  -2 -12   9  394.46   30.00
  -2 -12   9  304.87   30.70
   2  12  -9  315.97   27.10
  -2  12   9  327.37   30.30
  -2  12   9  293.57   31.00
  -1 -12   9   -0.50   10.00
  -1 -12   9    6.70   11.00
  -1  12   9    6.10   11.30
   1  12  -9    7.30   13.20
  -1  12   9    5.80   11.00
   0 -12   9  490.65   36.90
   0 -12   9  555.14   37.20
   0  12  -9  502.55   34.70
   0  12   9  472.75   37.70
   0  12   9  476.45   38.90
   1 -12   9  789.32   46.00
   1 -12   9  782.62   47.70
   1  12   9  805.22   50.89
  -1  12  -9  774.42   42.10
   1  12   9  766.52   48.40
   2 -12   9  102.99   22.30
   2  12   9  110.59   23.70
   2  12   9  101.39   24.10
   3 -12   9  196.18   32.00
   3  12   9  169.38   29.70
   3  12   9  197.88   30.30
   4 -12   9  495.55   43.70
   4  12   9  495.55   47.00
   4  12   9  381.56   39.50
  -9 -13   9   49.60   21.70
  -9 -13   9   42.70   18.60
  -9  13   9   27.30   17.40
  -9  13   9   14.70   20.50
  -8 -13   9  187.88   24.60
  -8 -13   9  175.28   29.00
  -8  13   9  218.88   29.50
  -8  13   9  180.18   30.60
  -7 -13   9  416.86   31.00
  -7 -13   9  401.26   37.70
  -7  13   9  365.76   35.30
  -7  13   9  410.96   34.20
  -6 -13   9   70.99   16.00
  -6 -13   9   60.09   19.60
  -6  13   9   87.09   19.90
   6  13  -9   67.39   17.60
  -6  13   9   20.70   16.70
  -5 -13   9  128.99   19.30
  -5 -13   9  153.28   24.70
  -5  13   9  134.89   25.60
   5  13  -9  137.39   20.40
  -5  13   9  175.28   25.20
  -4 -13   9 1099.49   55.79
  -4 -13   9 1068.09   48.00
  -4  13   9 1030.80   56.59
   4  13  -9 1020.80   45.20
  -4  13   9 1064.79   53.59
  -3 -13   9  317.37   26.30
  -3 -13   9  303.97   29.10
  -3  13   9  268.17   29.00
  -3  13   9  244.38   27.00
   3  13  -9  259.17   26.80
   3  13  -9  253.57   28.70
  -2 -13   9  385.66   30.20
  -2 -13   9  431.86   33.50
   2  13  -9  419.86   32.00
  -2  13   9  438.46   35.90
  -2  13   9  420.96   35.80
  -1 -13   9  452.65   34.70
  -1 -13   9  478.85   33.40
  -1  13   9  472.35   37.60
  -1  13   9  478.45   38.50
   1  13  -9  488.65   34.20
   0 -13   9  504.65   35.10
   0 -13   9  472.75   36.10
   0  13   9  495.85   38.70
   0  13   9  498.85   38.70
   0  13  -9  513.65   35.20
   1 -13   9    5.70   13.70
   1  13   9    8.30   14.90
  -1  13  -9   38.00   14.80
   1  13   9   -4.40   12.20
   2 -13   9  366.86   35.90
   2  13   9  331.67   33.50
   2  13   9  280.97   32.60
   3 -13   9  200.18   32.10
   3  13   9  170.58   30.60
   3  13   9  175.08   28.50
   4 -13   9    3.40   20.00
   4  13   9   -8.70   19.90
   4  13   9   12.50   20.50
  -9 -14   9   -7.50   16.50
  -9 -14   9   15.10   17.40
  -9  14   9    7.30   19.40
  -9  14   9   12.20   16.00
  -8 -14   9   21.30   16.10
  -8 -14   9   -6.90   13.80
  -8  14   9   14.40   16.90
  -8  14   9   10.90   15.40
  -7 -14   9    5.00   12.80
  -7 -14   9   35.00   17.10
  -7  14   9   10.70   13.80
   7  14  -9   23.30   16.30
  -7  14   9   14.60   17.30
  -6 -14   9   12.40   11.90
  -6 -14   9   23.60   15.80
  -6  14   9   31.40   15.00
   6  14  -9   30.50   14.00
  -6  14   9    9.20   13.90
  -5 -14   9    8.50   11.40
  -5 -14   9   17.10   12.20
  -5  14   9  -10.20   11.10
  -5  14   9   19.90   13.50
   5  14  -9   17.50   13.30
  -4 -14   9   17.60   12.00
  -4 -14   9   22.10   14.40
  -4  14   9   29.40   12.10
   4  14  -9   30.60   14.00
  -4  14   9   18.80   13.70
  -3 -14   9    4.60   11.00
  -3 -14   9    8.80   11.60
   3  14  -9   13.80   15.10
  -3  14   9   21.80   12.90
  -3  14   9   10.20   10.80
   3  14  -9  -14.00   12.80
  -2 -14   9   -2.50   11.10
  -2 -14   9   17.50   11.00
   2  14  -9   15.00   14.00
  -2  14   9   18.40   13.50
  -2  14   9    8.90   11.50
  -1 -14   9   14.70   11.60
  -1 -14   9   17.30   12.90
  -1  14   9  -12.40   12.50
   1  14  -9    8.70   14.10
  -1  14   9   16.70   12.50
   0 -14   9   49.30   16.80
   0 -14   9   36.00   13.30
   0  14   9   28.30   16.10
   0  14   9   40.50   18.10
   0  14  -9   31.80   16.40
   1 -14   9   37.20   17.90
   1  14   9   12.60   16.20
  -1  14  -9   25.10   16.00
   1  14   9   34.80   14.50
   2 -14   9   11.20   15.60
  -2  14  -9  -21.00   19.20
   2  14   9   17.70   14.20
   2  14   9   -0.70   14.40
   3 -14   9   -8.40   16.00
   3  14   9   34.60   19.80
   3  14   9   19.00   19.10
   4 -14   9   33.10   21.10
   4  14   9   72.39   25.90
   4  14   9   72.39   24.90
  -9 -15   9   23.90   18.20
  -9 -15   9   39.30   19.50
  -9  15   9    8.50   16.60
  -9  15   9   44.00   21.90
  -8 -15   9  157.18   26.40
  -8 -15   9  174.58   23.10
  -8  15   9  149.29   27.40
  -8  15   9  121.49   24.10
  -7 -15   9  561.94   43.50
  -7 -15   9  661.23   36.90
   7  15  -9  598.84   36.60
  -7  15   9  602.04   41.60
  -6 -15   9   29.90   16.20
  -6 -15   9   27.00   13.30
  -6  15   9   32.30   16.60
   6  15  -9   34.70   15.60
  -6  15   9   43.20   15.60
  -5 -15   9  141.49   20.90
  -5 -15   9  131.39   22.50
  -5  15   9  176.38   28.70
   5  15  -9   92.99   17.70
  -5  15   9  126.99   22.60
  -4 -15   9  783.32   39.90
  -4 -15   9  788.72   46.70
  -4  15   9  726.93   48.10
   4  15  -9  708.03   37.40
  -4  15   9  710.23   43.40
  -3 -15   9  321.77   27.00
  -3 -15   9  314.37   29.30
  -3  15   9  342.97   34.10
   3  15  -9  271.37   29.20
   3  15  -9  350.56   28.60
  -3  15   9  386.56   33.10
  -2 -15   9  139.69   22.00
  -2 -15   9  134.09   20.80
  -2  15   9   74.89   17.50
   2  15  -9  138.09   22.20
  -2  15   9   97.19   22.00
  -1 -15   9 1661.63   66.49
  -1 -15   9 1722.53   70.69
  -1  15   9 1813.82   75.09
   1  15  -9 1742.93   65.99
  -1  15   9 1696.73   74.29
   0 -15   9  177.48   26.90
   0 -15   9  169.48   24.40
   0  15   9  210.08   29.70
   0  15   9  149.59   24.90
   0  15  -9  188.58   24.00
   1 -15   9   61.69   18.60
   1  15   9   29.80   17.50
   1  15   9   63.09   19.70
  -1  15  -9   60.29   17.50
   2 -15   9  579.74   43.50
   2  15   9  571.44   46.10
   2  15   9  780.42   51.79
  -2  15  -9  599.84   41.30
   3 -15   9  392.56   39.20
   3  15   9  343.87   42.10
   3  15   9  289.07   37.30
   4 -15   9    7.70   20.80
   4  15   9  -38.60   20.10
   4  15   9   -2.60   18.20
  -8 -16   9  109.79   23.40
  -8 -16   9   84.19   18.80
  -8  16   9  105.99   25.80
  -8  16   9  120.89   22.20
  -7 -16   9    6.20   12.30
  -7 -16   9   -9.00   15.60
  -7  16   9   10.10   15.60
  -7  16   9    2.50   13.10
  -6 -16   9  350.36   27.60
  -6 -16   9  404.66   36.60
  -6  16   9  367.26   33.70
  -6  16   9  403.06   38.40
   6  16  -9  409.96   30.00
  -5 -16   9  235.38   26.60
  -5 -16   9  219.58   22.90
  -5  16   9  157.18   24.80
  -5  16   9  232.08   30.70
   5  16  -9  204.98   23.50
  -4 -16   9   28.70   12.40
  -4 -16   9    3.90   13.10
   4  16  -9   11.20   12.90
  -4  16   9   27.90   14.70
  -4  16   9   16.50   11.60
  -3 -16   9  281.17   27.90
  -3 -16   9  219.08   23.10
  -3  16   9  234.68   27.10
   3  16  -9  169.18   22.60
   3  16  -9  206.98   26.30
  -3  16   9  198.98   28.30
  -2 -16   9  776.82   45.20
  -2 -16   9  813.42   43.30
  -2  16   9  847.42   48.10
  -2  16   9  895.41   51.29
   2  16  -9  739.53   42.80
  -1 -16   9   20.80   13.50
  -1 -16   9   31.20   14.60
  -1  16   9   17.50   14.30
  -1  16   9   14.10   14.40
   1  16  -9    6.70   15.00
   0 -16   9  450.85   34.80
   0 -16   9  436.86   36.50
   0  16   9  449.26   36.80
   0  16  -9  384.76   30.50
   0  16   9  455.45   38.00
   1 -16   9  287.97   29.60
   1  16   9  260.17   30.40
   1  16   9  294.37   31.90
  -1  16  -9  244.58   29.30
   2 -16   9   33.90   18.80
   2  16   9   23.90   18.90
   2  16   9   22.00   16.00
  -2  16  -9   60.49   19.80
   3 -16   9  184.18   30.40
   3  16   9  156.08   28.80
   3  16   9  124.99   26.30
   4 -16   9  351.56   40.00
   4  16   9  432.46   44.80
   4  16   9  467.65   48.30
  -8 -17   9   31.70   16.00
  -8 -17   9   21.50   17.10
  -8  17   9   23.90   16.40
  -8  17   9    7.60   18.40
  -7 -17   9   27.30   18.40
  -7 -17   9   15.40   13.40
  -7  17   9   13.50   14.50
  -7  17   9   18.80   16.00
  -6 -17   9   41.00   13.50
  -6 -17   9   29.00   17.50
  -6  17   9   17.40   15.50
   6  17  -9   32.90   14.70
  -6  17   9   14.50   13.30
  -5 -17   9   12.00   13.00
  -5 -17   9   36.70   12.60
  -5  17   9   -4.90   11.90
   5  17  -9   -6.90   12.70
  -5  17   9    9.00   15.10
  -4 -17   9  166.68   26.30
  -4 -17   9  124.19   19.30
  -4  17   9  118.29   24.20
   4  17  -9  111.49   18.50
  -4  17   9  108.19   20.20
  -3 -17   9   11.10   11.90
  -3 -17   9    3.70   10.20
  -3  17   9    4.10   11.90
   3  17  -9    0.90   12.40
   3  17  -9   17.20   15.70
  -3  17   9    1.30   11.80
  -2 -17   9  215.08   28.10
  -2 -17   9  208.18   22.70
   2  17  -9  200.98   24.10
  -2  17   9  194.58   29.00
  -2  17   9  186.78   26.40
  -1 -17   9    2.10   13.40
  -1 -17   9    5.80   10.90
   1  17  -9   17.50   15.30
  -1  17   9    2.90   12.90
  -1  17   9   -1.00   12.10
   0 -17   9   46.00   17.70
   0  17   9   22.20   17.40
   0  17   9   37.70   17.50
   0  17  -9   41.60   16.40
   1 -17   9   27.20   17.80
   1  17   9   35.20   18.10
   1  17   9   11.60   14.00
  -1  17  -9   11.60   16.10
   2 -17   9  151.98   27.80
   2  17   9  119.69   25.50
  -2  17  -9  102.19   21.80
   2  17   9  136.39   26.00
   3 -17   9  144.49   27.00
   3  17   9   56.29   23.00
   3  17   9  102.09   25.90
   4 -17   9    4.00   21.70
   4  17   9   18.30   21.40
   4  17   9   -4.10   19.10
  -8 -18   9  330.07   28.60
  -8 -18   9  300.97   34.60
  -8  18   9  282.27   38.10
  -8  18   9  339.07   34.20
  -7 -18   9   84.09   22.70
  -7 -18   9   65.19   15.80
  -7  18   9   65.29   20.20
  -7  18   9   46.60   16.40
  -6 -18   9  639.94   35.50
  -6 -18   9  683.83   45.50
   6  18  -9  631.24   34.60
  -6  18   9  651.13   41.60
  -6  18   9  717.23   48.40
  -5 -18   9  619.74   34.20
  -5 -18   9  638.04   42.10
  -5  18   9  594.04   39.70
   5  18  -9  558.84   32.50
  -5  18   9  685.23   46.60
  -4 -18   9   17.30   11.50
  -4 -18   9   -2.70   13.10
  -4  18   9    2.30   14.70
  -4  18   9    7.40   11.50
   4  18  -9    5.20   12.70
  -3 -18   9  646.24   41.80
  -3 -18   9  598.54   35.00
  -3  18   9  595.54   39.90
   3  18  -9  587.14   34.60
   3  18  -9  597.44   39.90
  -3  18   9  533.55   41.30
  -2 -18   9  727.43   44.20
  -2 -18   9  715.73   39.40
  -2  18   9  737.13   45.10
  -2  18   9  693.53   46.40
   2  18  -9  629.14   44.60
   2  18  -9  695.73   40.80
  -1 -18   9   20.60   11.90
  -1 -18   9   23.00   15.20
  -1  18   9   10.60   13.60
   1  18  -9   10.40   14.60
  -1  18   9   -8.50   12.50
   0 -18   9  874.51   47.80
   0  18  -9  772.12   42.90
   0  18   9  756.62   48.80
   0  18   9  750.52   48.80
   1 -18   9  814.92   48.60
  -1  18  -9  741.03   43.20
   1  18   9  862.71   52.19
   1  18   9  806.12   50.99
   2 -18   9   42.60   18.60
  -2  18  -9   41.70   21.10
   2  18   9   26.40   18.60
   2  18   9   10.10   18.30
   3 -18   9  259.57   34.20
   3  18   9  212.28   34.30
  -3  18  -9  228.18   33.50
   3  18   9  234.28   34.50
  -8 -19   9  111.39   25.70
  -8 -19   9  108.19   19.50
  -8  19   9  146.39   26.70
  -8  19   9   48.30   23.10
  -7 -19   9  216.98   23.10
  -7 -19   9  150.48   28.00
  -7  19   9  168.68   26.40
  -7  19   9  200.78   32.30
  -6 -19   9    7.60   16.20
  -6 -19   9    3.70   11.70
  -6  19   9   24.30   16.70
   6  19  -9   21.00   14.40
  -6  19   9    7.20   13.50
  -5 -19   9  104.29   17.00
  -5 -19   9  104.89   22.00
  -5  19   9  106.89   25.40
  -5  19   9   74.39   18.70
   5  19  -9   86.79   16.50
  -4 -19   9  320.77   31.90
  -4 -19   9  267.57   24.40
  -4  19   9  289.67   32.00
   4  19  -9  219.78   23.90
  -4  19   9  268.27   29.80
  -3 -19   9  130.29   19.70
  -3 -19   9   97.99   21.00
   3  19  -9  111.89   18.50
   3  19  -9   96.09   21.70
  -3  19   9   88.19   18.70
  -3  19   9  103.59   22.60
  -2 -19   9   71.19   18.70
  -2 -19   9   65.39   16.50
   2  19  -9   28.10   17.20
   2  19  -9   65.69   18.30
  -2  19   9   64.39   21.20
  -2  19   9   48.90   15.50
  -1 -19   9  277.47   30.30
  -1  19   9  258.67   29.80
   1  19  -9  259.57   28.20
  -1  19   9  237.58   27.90
   0 -19   9  241.08   30.10
   0  19   9  192.88   27.60
   0  19  -9  228.78   27.00
   0  19   9  200.88   30.10
   1 -19   9   14.00   15.50
   1  19   9    4.60   14.90
  -1  19  -9   -8.30   16.80
   1  19   9   24.60   16.90
   2 -19   9   72.19   22.60
  -2  19  -9  122.49   24.20
   2  19   9   78.29   21.70
   2  19   9   91.39   23.50
   3 -19   9   86.59   23.40
   3  19   9   98.39   26.20
   3  19   9   85.49   23.40
  -8 -20   9   89.39   25.80
  -8 -20   9   73.99   17.00
  -8  20   9   67.49   22.30
  -8  20   9   80.39   21.40
  -7 -20   9  -20.90   12.10
  -7 -20   9  -22.40   14.20
  -7  20   9   14.20   17.60
  -7  20   9    6.00   15.60
  -6 -20   9  185.58   20.80
  -6 -20   9  160.88   25.40
   6  20  -9  162.18   20.20
  -6  20   9   97.59   23.90
  -6  20   9  186.48   27.10
  -5 -20   9  183.98   21.60
  -5 -20   9  170.18   27.40
   5  20  -9  197.68   21.50
  -5  20   9  167.48   26.40
  -5  20   9  185.98   30.60
  -4 -20   9   15.50   11.70
  -4 -20   9    6.70   14.60
  -4  20   9   19.00   14.30
   4  20  -9    3.00   12.90
   4  20  -9   -0.70   15.10
  -4  20   9    5.80   13.30
  -3 -20   9  274.77   29.20
  -3 -20   9  215.18   23.30
   3  20  -9  193.88   24.70
  -3  20   9  177.68   26.60
   3  20  -9  203.08   23.80
  -3  20   9  198.88   30.20
  -2 -20   9  111.49   20.20
  -2 -20   9  106.39   18.40
  -2  20   9  105.99   21.80
   2  20  -9  112.29   20.30
  -2  20   9   97.09   23.00
   2  20  -9  114.79   20.70
  -1 -20   9   -3.20   12.90
   1  20  -9   28.70   14.40
  -1  20   9   -0.40   14.60
  -1  20   9   -4.10   12.40
   0 -20   9  246.78   29.10
   0  20   9  296.87   32.20
   0  20   9  256.87   29.90
   0  20  -9  263.47   28.50
   1 -20   9  170.78   26.40
   1  20   9  156.68   27.80
  -1  20  -9  141.29   23.20
   1  20   9  144.79   27.10
   2 -20   9   -6.30   17.70
   2  20   9    8.20   18.90
  -2  20  -9    8.40   18.80
   2  20   9   -7.00   17.00
   3 -20   9   32.30   21.50
   3  20   9   25.30   19.90
   3  20   9   44.20   23.30
  -8 -21   9  341.97   39.80
  -8 -21   9  375.86   28.00
  -8  21   9  367.46   35.80
  -7 -21   9  790.42   49.00
  -7 -21   9  691.63   35.20
  -7  21   9  716.53   51.89
  -7  21   9  620.14   43.60
  -6 -21   9   12.90   15.80
  -6 -21   9   29.60   12.80
  -6  21   9   38.00   18.40
   6  21  -9   30.80   14.50
  -6  21   9   13.50   15.20
  -5 -21   9  267.97   31.40
  -5 -21   9  216.48   22.10
   5  21  -9  267.27   23.70
  -5  21   9  264.67   29.60
  -5  21   9  208.88   33.80
  -4 -21   9  792.62   47.70
  -4 -21   9  822.52   39.50
   4  21  -9  759.82   37.60
  -4  21   9  749.82   45.90
   4  21  -9  723.53   42.90
  -4  21   9  885.21   53.69
  -3 -21   9  245.38   26.90
  -3 -21   9  203.38   22.40
   3  21  -9  196.08   23.00
  -3  21   9  228.68   33.60
   3  21  -9  143.59   23.70
  -3  21   9  175.48   25.40
  -2 -21   9  211.58   27.50
  -2 -21   9  188.98   23.50
   2  21  -9  158.58   23.90
  -2  21   9  134.89   24.70
  -2  21   9  246.88   29.20
   2  21  -9  167.18   22.30
  -1 -21   9  875.51   49.00
   1  21  -9  907.01   46.50
  -1  21   9  825.52   52.09
  -1  21   9  944.61   53.29
   0 -21   9  473.95   38.30
   0  21   9  551.04   44.70
   0  21  -9  507.65   36.40
   0  21   9  553.34   41.50
   1 -21   9   98.39   22.60
   1  21   9  102.49   21.90
  -1  21  -9   70.19   20.70
   1  21   9  101.99   25.10
   2 -21   9  816.62   50.89
  -2  21  -9  718.43   45.20
   2  21   9  869.41   54.69
   3 -21   9  428.26   40.40
   3  21   9  416.06   43.30
   3  21   9  399.96   40.30
  -7 -22   9   13.20   12.80
  -7 -22   9   19.80   18.80
  -7  22   9   18.10   19.60
  -7  22   9   40.80   18.10
  -6 -22   9   99.89   23.00
  -6 -22   9  102.59   16.60
  -6  22   9   88.29   20.60
  -6  22   9   98.99   24.70
   6  22  -9   86.49   15.80
  -5 -22   9   51.69   18.30
  -5 -22   9   56.69   14.20
  -5  22   9   63.99   19.40
   5  22  -9   62.19   14.50
  -5  22   9   20.40   19.40
  -4 -22   9    0.80   15.40
  -4 -22   9   19.50   11.60
  -4  22   9   31.90   16.10
   4  22  -9   13.50   18.60
   4  22  -9    7.20   12.90
  -4  22   9    2.00   14.20
  -3 -22   9   72.79   19.80
  -3 -22   9   93.79   17.20
  -3  22   9  105.29   20.40
   3  22  -9   75.89   17.10
   3  22  -9   82.89   21.00
  -3  22   9   73.89   22.20
  -2 -22   9  123.89   22.80
   2  22  -9  127.89   21.30
   2  22  -9  108.09   21.00
  -2  22   9  108.49   21.60
  -2  22   9   95.79   22.00
  -1 -22   9   -4.10   14.30
  -1  22   9   -8.20   13.60
  -1  22   9   19.80   14.80
   1  22  -9    9.00   15.60
   0 -22   9   17.30   16.10
   0  22   9   23.80   18.50
   0  22  -9    0.50   15.30
   0  22   9   13.10   17.10
   1 -22   9   15.60   16.30
   1  22   9   41.30   18.80
  -1  22  -9    0.30   17.30
   1  22   9   41.60   16.10
   2 -22   9    9.70   17.90
   2  22   9   17.70   17.40
   2  22   9    0.50   17.50
  -2  22  -9   27.60   29.40
   3 -22   9   12.80   21.10
   3  22   9   66.89   24.70
   3  22   9   24.40   20.80
  -7 -23   9  457.75   40.90
  -7 -23   9  403.26   26.40
  -7  23   9  391.46   43.70
  -7  23   9  395.86   35.20
  -6 -23   9   34.90   13.00
  -6 -23   9   54.99   18.80
  -6  23   9   53.89   22.80
  -6  23   9   53.19   18.00
  -5 -23   9  156.38   19.20
  -5 -23   9  188.48   28.70
  -5  23   9  193.88   27.30
   5  23  -9  144.09   18.60
  -5  23   9  141.39   29.80
  -4 -23   9  489.75   37.20
  -4 -23   9  508.25   30.30
   4  23  -9  522.15   31.00
   4  23  -9  500.75   39.70
  -4  23   9  472.65   41.10
  -4  23   9  540.45   39.90
  -3 -23   9   74.79   18.80
   3  23  -9   67.49   16.70
  -3  23   9   73.69   19.30
   3  23  -9   62.19   20.10
  -3  23   9   56.19   22.40
  -2 -23   9  144.09   23.80
  -2  23   9  155.18   27.90
   2  23  -9  140.39   21.60
   2  23  -9  161.48   25.20
  -2  23   9  108.69   22.00
  -1 -23   9  470.75   36.30
   1  23  -9  422.56   35.90
  -1  23   9  421.96   41.00
  -1  23   9  453.35   38.80
   0 -23   9   73.89   20.90
   0  23   9   72.59   21.40
   0  23  -9  104.89   20.70
   0  23   9  107.49   23.80
   1 -23   9  184.58   27.30
   1  23   9  152.58   28.70
  -1  23  -9  158.58   24.50
   1  23   9  157.08   28.80
   2 -23   9  506.45   43.00
   2  23   9  519.85   46.30
   2  23   9  449.56   44.00
  -7 -24   9   19.10   19.40
  -7 -24   9   -2.40   11.60
  -7  24   9   34.20   20.40
  -7  24   9    8.40   16.40
  -6 -24   9  724.33   47.90
  -6 -24   9  628.74   31.10
  -6  24   9  610.64   43.50
  -6  24   9  607.74   48.90
  -5 -24   9  487.85   38.00
  -5 -24   9  452.55   27.40
  -5  24   9  487.45   42.40
   5  24  -9  470.15   27.90
  -5  24   9  514.25   39.50
  -4 -24   9   11.60   15.30
  -4 -24   9   20.70   11.50
   4  24  -9  -17.40   15.90
  -4  24   9   13.60   15.40
   4  24  -9   16.40   13.10
  -4  24   9   13.10   15.80
  -3 -24   9  759.22   46.20
   3  24  -9  735.33   44.20
  -3  24   9  753.62   52.39
   3  24  -9  622.24   35.20
  -3  24   9  767.12   47.30
  -2 -24   9  672.03   43.90
   2  24  -9  598.84   36.50
  -2  24   9  673.83   45.10
  -2  24   9  639.94   48.80
   2  24  -9  663.83   42.00
  -1 -24   9    0.60   14.70
  -1  24   9    1.90   14.20
  -1  24   9   43.80   20.30
   1  24  -9   20.20   17.00
   0 -24   9  276.47   30.70
   0  24  -9  237.28   27.90
   0  24   9  249.08   35.40
   0  24   9  236.58   32.20
   1 -24   9  673.53   45.70
   1  24   9  710.53   51.69
   1  24   9  622.04   48.40
  -1  24  -9  622.54   42.30
   2 -24   9   73.49   24.00
   2  24   9  107.19   24.40
   2  24   9   89.69   27.00
  -7 -25   9    0.40   11.00
  -7 -25   9    3.00   19.50
  -7  25   9  -24.40   18.70
  -7  25   9   22.60   16.80
  -6 -25   9   18.50   19.00
  -6 -25   9   27.20   12.10
  -6  25   9   24.00   19.50
  -6  25   9   13.50   16.30
  -5 -25   9    5.40   11.00
  -5 -25   9    4.90   16.50
   5  25  -9   20.10   12.10
  -5  25   9    5.80   14.80
  -5  25   9   -7.80   16.60
  -4 -25   9  -13.90   14.40
  -4  25   9   10.20   16.30
  -4  25   9    3.30   13.90
   4  25  -9   28.90   20.90
   4  25  -9   -5.10   11.90
  -3 -25   9   -4.40   14.70
   3  25  -9   12.80   18.40
  -3  25   9    3.20   14.20
   3  25  -9   17.80   14.70
  -3  25   9   15.00   17.60
  -2 -25   9  -14.50   14.60
   2  25  -9   12.40   17.80
  -2  25   9    9.90   16.00
   2  25  -9   -1.50   15.50
  -2  25   9   18.10   18.20
  -1 -25   9   20.50   15.50
   1  25  -9   14.60   16.20
  -1  25   9    7.40   13.10
  -1  25   9    9.30   19.30
   0 -25   9   12.30   15.70
   0  25   9   -7.30   16.60
   0  25   9   -5.30   13.70
   0  25  -9    3.60   17.30
   1 -25   9   -4.60   17.60
   1  25   9    4.70   20.80
   1  25   9   -8.80   17.40
   2 -25   9   15.40   18.70
   2  25   9   -3.80   20.40
   2  25   9   26.60   18.80
  -6 -26   9  573.84   44.80
  -6  26   9  495.95   39.70
  -5 -26   9  350.56   36.00
  -5  26   9  322.87   34.00
   5  26  -9  376.76   32.20
  -5  26   9  365.76   39.10
  -4 -26   9   37.00   16.40
   4  26  -9   45.30   21.60
  -4  26   9   38.90   17.70
   4  26  -9   14.50   13.00
  -4  26   9  -23.20   18.10
  -3 -26   9  447.86   36.50
  -3  26   9  416.36   37.30
  -3  26   9  411.16   42.70
   3  26  -9  449.56   30.00
   3  26  -9  409.76   37.60
  -2 -26   9  424.86   35.80
   2  26  -9  359.16   35.40
   2  26  -9  428.86   31.50
  -2  26   9  418.66   42.40
  -2  26   9  397.46   36.00
  -1 -26   9    2.10   15.70
   1  26  -9   -7.50   16.10
  -1  26   9   -7.80   15.70
  -1  26   9   -3.40   18.70
   0 -26   9  409.56   36.60
   0  26   9  407.46   38.90
   0  26   9  381.16   39.10
   0  26  -9  398.16   34.00
   1 -26   9  456.05   40.00
   1  26   9  426.66   44.60
   1  26   9  488.85   43.20
   2 -26   9   25.80   20.90
   2  26   9   54.49   23.40
   2  26   9   50.79   23.90
  -6 -27   9  170.48   28.20
  -6  27   9  116.39   29.60
  -6  27   9  146.59   25.40
  -5 -27   9  162.78   26.50
  -5  27   9  164.78   32.70
  -5  27   9  101.29   22.40
  -4 -27   9  795.92   47.30
   4  27  -9  662.03   46.50
   4  27  -9  659.13   32.00
  -4  27   9  666.63   45.30
  -4  27   9  632.54   51.59
  -3 -27   9   45.10   17.30
  -3  27   9   33.50   21.30
   3  27  -9   61.99   16.30
  -3  27   9   87.99   21.30
   3  27  -9   66.69   20.90
  -2 -27   9  123.19   23.80
  -2  27   9   88.69   25.60
   2  27  -9  105.39   19.40
  -2  27   9  100.19   23.00
   2  27  -9  100.09   22.30
  -1 -27   9  261.57   30.80
  -1  27   9  309.57   37.10
   1  27  -9  409.36   35.50
  -1  27   9  335.07   42.00
   0 -27   9   85.49   23.30
   0  27   9  102.69   26.20
   0  27   9  106.49   24.20
   1 -27   9   21.80   18.70
   1  27   9   48.10   20.00
   1  27   9  -17.20   21.20
  -6 -28   9   50.99   22.20
  -6  28   9   14.40   21.20
  -6  28   9   81.69   22.20
  -5 -28   9    1.00   17.70
  -5  28   9  -36.00   14.60
  -5  28   9   -8.40   18.40
  -4 -28   9   44.70   20.10
   4  28  -9   27.60   22.30
  -4  28   9    2.60   18.20
  -4  28   9   17.00   17.00
  -3 -28   9   -2.20   15.90
  -3  28   9   16.60   19.20
   3  28  -9   49.90   21.40
   3  28  -9   33.60   15.50
  -3  28   9   41.50   17.20
  -2 -28   9    4.70   16.60
   2  28  -9   12.70   18.80
  -2  28   9   34.00   19.20
  -2  28   9   13.00   15.60
   2  28  -9    5.30   16.10
  -1 -28   9   -3.70   15.90
   1  28  -9    1.20   26.70
  -1  28   9   11.60   19.90
  -1  28   9   -8.70   15.50
   0 -28   9   52.29   21.70
   0  28   9   80.29   22.90
   0  28   9    5.70   18.50
   1 -28   9   86.49   24.00
   1  28   9   81.89   27.20
   1  28   9   98.79   24.10
  -5 -29   9  182.28   30.30
  -5  29   9  199.58   27.30
  -5  29   9  189.88   34.30
  -4 -29   9  613.84   44.20
  -4  29   9  556.94   42.60
  -3 -29   9  185.08   27.70
  -3  29   9  138.69   28.80
  -3  29   9  174.78   27.50
  -2 -29   9  105.49   22.80
  -2  29   9   95.69   27.10
  -2  29   9   96.19   22.70
   2  29  -9   91.09   23.00
  -1 -29   9  552.14   40.80
  -1  29   9  590.34   44.50
  -1  29   9  534.55   48.00
   0 -29   9  263.07   31.80
   0  29   9  206.98   31.50
   0  29   9  254.17   37.60
   1  29   9   78.49   27.70
   1  29   9  147.99   28.40
  -5 -30   9  133.79   26.20
  -5  30   9  158.68   31.70
  -5  30   9  143.29   26.30
  -4 -30   9   -8.90   18.30
  -4  30   9   25.60   22.80
  -4  30   9    4.30   16.60
  -3 -30   9  100.89   23.40
  -3  30   9   79.69   21.80
  -3  30   9  151.18   32.20
  -2 -30   9  256.37   31.80
  -2  30   9  233.38   38.60
  -2  30   9  184.28   28.30
  -1 -30   9   21.70   19.80
  -1  30   9   37.20   18.40
  -1  30   9    6.40   19.20
   0 -30   9   62.39   21.10
   0  30   9   80.59   24.80
   0  30   9   64.79   24.70
  -4 -31   9  109.99   25.50
  -4  31   9  160.58   32.20
  -4  31   9  157.38   26.10
  -3 -31   9   13.10   19.10
  -3  31   9    5.20   16.70
  -3  31   9    1.50   20.70
  -2 -31   9   28.10   20.30
  -2  31   9   86.39   28.00
  -2  31   9   64.89   21.70
  -1 -31   9  179.58   27.90
  -1  31   9  116.79   29.30
  -1  31   9  111.19   24.50
  -3 -32   9  406.86   39.60
  -3  32   9  270.97   41.80
  -3  32   9  347.47   35.20
  -2 -32   9  432.36   38.90
  -2  32   9  459.85   45.00
  -2  32   9  463.85   39.20
  -1 -32   9  -45.50   18.30
  -1  32   9  -10.20   23.20
  -1  32   9   -5.60   17.90
  -9   0  10  615.14   49.20
  -8   0  10  622.34   45.20
  -8   0  10  666.63   47.30
  -7   0  10   34.90   17.20
  -7   0  10   19.20   15.00
  -6   0  10  547.95   41.60
  -6   0  10  536.25   39.70
  -5   0  10  767.92   46.30
  -5   0  10  787.62   50.49
  -4   0  10  426.76   35.40
  -4   0  10  421.96   37.00
  -3   0  10  579.24   40.90
  -3   0  10  460.15   40.10
  -2   0  10 1336.37   66.69
  -2   0  10 1348.57   63.29
  -1   0  10  371.06   35.50
  -1   0  10  418.36   36.70
   0   0  10  343.57   33.40
   0   0  10  377.86   35.80
   1   0  10  837.72   52.89
   1   0  10  713.93   50.09
   2   0  10  372.96   41.50
   2   0  10  321.47   37.00
   3   0  10   18.20   18.00
   3   0  10   17.90   20.20
  -9  -1  10   84.59   24.40
  -9   1  10   40.90   22.10
  -8  -1  10   43.30   19.80
  -8  -1  10   49.30   20.60
  -8   1  10   51.29   18.50
  -8   1  10   65.79   19.90
  -7  -1  10  176.38   27.30
  -7  -1  10  219.78   30.30
  -7   1  10  208.08   29.90
  -7   1  10  224.88   30.90
  -6  -1  10   53.89   18.60
  -6  -1  10   56.89   18.00
  -6   1  10   32.80   16.20
  -6   1  10   87.99   21.50
  -5  -1  10  -14.60   12.90
  -5  -1  10   11.00   15.30
  -5   1  10   -5.60   14.00
  -5   1  10   12.30   13.50
  -4  -1  10   84.49   20.80
  -4  -1  10   75.19   19.20
  -4   1  10   88.69   20.90
  -4   1  10  106.89   20.90
  -3  -1  10  122.49   25.60
  -3  -1  10  114.89   21.90
  -3   1  10  105.69   22.20
  -3   1  10  124.49   23.00
  -2  -1  10   39.70   16.20
  -2  -1  10   58.39   19.10
  -2   1  10   43.60   17.70
  -2   1  10   46.20   17.00
  -1  -1  10   61.19   20.30
  -1  -1  10   67.19   19.70
  -1   1  10   54.99   17.70
  -1   1  10   72.39   19.40
   0  -1  10  190.78   30.40
   0  -1  10  196.18   28.90
   0   1  10  112.09   23.50
   0   1  10  169.08   28.10
   1  -1  10   14.60   18.40
   1  -1  10   12.80   14.70
   1   1  10    9.70   17.90
   1   1  10   25.30   16.50
   2  -1  10   81.59   23.30
   2  -1  10  105.09   24.20
   2   1  10  100.79   23.20
   2   1  10  139.59   27.50
   3  -1  10  115.79   30.50
   3   1  10  128.89   29.80
   3   1  10   97.19   24.70
  -8  -2  10  305.87   34.80
  -8  -2  10  328.77   37.70
  -8   2  10  317.37   36.10
  -8   2  10  361.36   36.30
  -7  -2  10   20.50   16.30
  -7  -2  10   46.20   19.30
  -7   2  10   30.10   17.10
  -7   2  10   45.50   17.60
  -6  -2  10  115.69   22.80
  -6  -2  10  174.18   28.70
  -6   2  10  165.58   27.00
  -6   2  10  167.08   28.80
  -5  -2  10  528.35   42.80
  -5  -2  10  547.05   39.50
  -5   2  10  552.84   39.50
  -5   2  10  499.15   39.90
  -4  -2  10   82.99   18.50
  -4  -2  10   71.59   19.40
  -4   2  10   81.29   18.80
  -4   2  10  104.49   22.20
  -3  -2  10  180.88   29.80
  -3  -2  10  145.59   23.80
  -3   2  10  177.38   25.90
  -3   2  10  175.38   27.10
  -2  -2  10  379.86   34.80
  -2  -2  10  446.36   37.90
  -2   2  10  383.96   33.80
  -2   2  10  343.37   36.20
  -1  -2  10   49.60   16.40
  -1  -2  10   52.79   17.60
  -1   2  10   42.50   18.20
  -1   2  10   59.19   18.50
   0  -2  10   26.20   15.40
   0  -2  10    2.50   16.20
   0   2  10   21.90   15.60
   0   2  10   50.39   19.30
   1  -2  10  391.46   37.50
   1  -2  10  375.06   36.00
   1   2  10  381.26   37.90
   1   2  10  341.97   36.20
   2  -2  10  228.08   35.00
   2  -2  10  215.08   33.90
   2   2  10  165.38   29.50
   2   2  10  199.78   33.20
   3  -2  10   35.20   20.90
   3   2  10   51.99   21.70
   3   2  10   25.90   21.30
  -8  -3  10   37.70   18.70
  -8  -3  10   63.59   20.90
  -8   3  10   55.89   19.20
  -8   3  10   84.89   24.00
  -7  -3  10  943.01   56.59
  -7  -3  10  918.51   52.19
  -7   3  10  962.70   54.59
  -7   3  10  935.21   55.09
  -6  -3  10  611.54   45.20
  -6  -3  10  509.95   39.90
  -6   3  10  635.94   44.60
  -6   3  10  580.64   41.80
  -5  -3  10    3.70   14.10
  -5  -3  10   12.20   15.70
  -5   3  10   18.30   15.90
  -5   3  10    2.20   14.40
  -4  -3  10  689.33   46.90
  -4  -3  10  706.63   42.80
  -4   3  10  669.13   45.50
  -4   3  10  661.33   43.70
  -3  -3  10  757.02   48.10
  -3  -3  10  762.22   44.80
  -3   3  10  723.43   47.50
  -3   3  10  689.73   45.00
  -2  -3  10   -9.80   12.80
  -2  -3  10   -3.90   13.20
  -2   3  10   -4.60   12.30
  -2   3  10   15.20   14.20
  -1  -3  10  569.24   41.00
  -1  -3  10  646.14   44.70
  -1   3  10  621.34   42.50
  -1   3  10  593.24   43.70
   0  -3  10  715.53   47.80
   0  -3  10  621.14   45.10
   0   3  10  666.73   47.10
   0   3  10  719.73   49.60
   1  -3  10   -8.50   16.70
   1  -3  10   18.00   16.30
   1   3  10   -6.80   13.60
   1   3  10   19.60   16.70
   2  -3  10  545.35   47.70
   2  -3  10  489.65   41.80
   2   3  10  559.04   48.20
   2   3  10  542.35   43.90
   3  -3  10  521.75   46.20
   3   3  10  574.14   50.99
  -8  -4  10   22.90   16.60
  -8  -4  10   18.70   18.40
  -8   4  10   63.09   22.20
  -8   4  10   19.80   16.00
  -7  -4  10    9.60   16.10
  -7  -4  10    3.30   14.30
  -7   4  10   40.20   19.70
  -7   4  10   33.80   15.70
  -6  -4  10   95.59   21.90
  -6  -4  10   99.59   20.70
  -6   4  10  110.19   23.00
  -6   4  10  140.29   24.70
  -5  -4  10   63.49   17.40
  -5  -4  10   46.00   17.20
  -5   4  10   58.89   18.50
  -5   4  10   52.69   19.60
  -4  -4  10   29.10   13.30
  -4  -4  10   21.30   15.70
  -4   4  10   -0.30   13.40
  -4   4  10   33.00   14.90
  -3  -4  10   13.70   13.30
  -3  -4  10   17.90   13.50
  -3   4  10   23.20   15.40
  -3   4  10   15.20   15.10
  -2  -4  10   48.10   18.70
  -2  -4  10   52.19   17.30
  -2   4  10   32.00   18.40
  -2   4  10   39.30   16.20
  -1  -4  10   98.79   21.80
  -1  -4  10   61.99   20.40
  -1   4  10   83.19   20.50
  -1   4  10   92.09   21.20
   0  -4  10   12.10   13.90
   0  -4  10    0.10   13.90
   0   4  10   12.80   14.90
   0   4  10   10.00   15.60
   1  -4  10   72.59   20.40
   1  -4  10  101.59   23.70
   1   4  10   66.99   20.60
   1   4  10   87.59   21.80
   2  -4  10   20.10   16.10
   2  -4  10   -6.10   16.70
   2   4  10    4.20   17.20
   2   4  10    1.80   14.90
   3  -4  10  -13.80   20.60
   3   4  10    7.30   18.70
   3   4  10   37.40   20.20
  -8  -5  10   51.59   19.50
  -8  -5  10  109.19   25.30
  -8   5  10   46.30   17.40
  -8   5  10   32.80   20.20
  -7  -5  10  687.13   44.30
  -7  -5  10  691.43   48.10
  -7   5  10  682.33   46.60
  -7   5  10  710.83   48.90
  -6  -5  10  444.36   36.20
  -6  -5  10  435.36   38.10
  -6   5  10  470.55   40.70
  -6   5  10  459.85   37.90
  -5  -5  10   27.40   17.20
  -5  -5  10   51.19   17.00
  -5   5  10   13.90   15.70
  -5   5  10   28.50   15.70
  -4  -5  10  721.33   42.80
  -4  -5  10  714.73   47.00
  -4   5  10  748.23   48.20
  -4   5  10  702.23   45.50
  -3  -5  10  616.54   41.40
  -3  -5  10  619.34   45.10
  -3   5  10  668.33   46.50
  -3   5  10  621.94   43.20
  -2  -5  10   -9.10   13.10
  -2  -5  10    8.40   13.10
  -2   5  10   16.20   15.60
  -2   5  10   -1.20   14.40
  -1  -5  10  411.86   34.50
  -1  -5  10  398.46   36.00
  -1   5  10  448.56   39.10
  -1   5  10  433.26   36.90
   0  -5  10  592.14   42.00
   0  -5  10  568.84   44.70
   0   5  10  533.95   41.50
   0   5  10  595.94   44.40
   1  -5  10   26.40   19.60
   1  -5  10   -9.60   14.00
   1   5  10   31.10   18.90
   1   5  10   11.50   16.60
   2  -5  10  321.67   40.60
   2  -5  10  320.17   36.00
   2   5  10  311.97   36.80
   2   5  10  309.37   35.70
   3  -5  10  376.66   43.60
   3   5  10  381.06   39.90
   3   5  10  376.06   45.20
  -8  -6  10  523.45   40.80
  -8  -6  10  469.65   41.20
  -8   6  10  502.85   42.90
  -8   6  10  534.95   42.50
  -7  -6  10   45.60   17.80
  -7  -6  10   51.19   20.60
  -7   6  10   57.89   20.20
  -7   6  10   61.99   19.30
  -6  -6  10  487.65   42.00
  -6  -6  10  475.25   37.10
  -6   6  10  528.95   42.40
  -6   6  10  527.35   40.50
  -5  -6  10  743.73   44.50
  -5  -6  10  727.23   47.50
  -5   6  10  709.73   46.40
  -5   6  10  681.93   46.20
  -4  -6  10   94.29   22.50
  -4  -6  10  141.09   23.30
  -4   6  10  151.08   25.70
  -4   6  10  100.99   21.40
  -3  -6  10  236.08   30.10
  -3  -6  10  199.58   28.30
  -3   6  10  198.08   29.80
  -3   6  10  183.78   28.10
  -2  -6  10  674.13   46.10
  -2  -6  10  578.24   39.60
  -2   6  10  580.64   42.10
  -2   6  10  611.84   45.40
  -1  -6  10  260.07   28.30
  -1  -6  10  241.78   32.70
  -1   6  10  196.88   28.80
  -1   6  10  233.88   32.10
   0  -6  10  170.68   28.50
   0  -6  10  193.58   28.10
   0   6  10  134.29   26.40
   0   6  10  190.28   29.60
   1  -6  10  709.63   51.19
   1  -6  10  735.33   48.00
   1   6  10  782.72   53.59
   1   6  10  678.63   48.00
   2  -6  10  143.29   28.40
   2  -6  10  158.78   27.60
   2   6  10  147.89   30.40
   2   6  10  152.38   29.00
   3  -6  10   65.09   24.90
   3   6  10   77.19   25.90
   3   6  10   78.59   23.60
  -8  -7  10  -13.90   17.90
  -8  -7  10   62.59   19.70
  -8   7  10   13.80   17.50
  -8   7  10   22.50   19.40
  -7  -7  10   23.40   18.00
  -7  -7  10   51.59   17.80
  -7   7  10   15.50   15.90
  -7   7  10   31.40   17.50
  -6  -7  10   15.10   15.10
  -6  -7  10   33.70   16.00
  -6   7  10   14.40   14.60
  -6   7  10   31.10   16.20
  -5  -7  10   22.30   14.10
  -5  -7  10  -12.30   14.70
  -5   7  10   18.80   14.00
  -5   7  10   -0.90   13.20
  -4  -7  10   16.60   14.00
  -4  -7  10   48.90   17.00
  -4   7  10   20.60   15.90
  -4   7  10   20.90   14.20
  -3  -7  10   -0.20   15.10
  -3  -7  10   -3.10   12.00
  -3   7  10   10.50   13.80
  -3   7  10   -7.30   12.30
  -2  -7  10    8.70   13.10
  -2  -7  10   -1.70   11.10
  -2   7  10   18.10   15.50
  -2   7  10    9.30   14.20
  -1  -7  10  -14.40   13.40
  -1  -7  10   -6.40   13.50
  -1   7  10   -3.20   14.00
  -1   7  10   17.20   15.60
   0  -7  10    6.20   15.00
   0  -7  10    4.40   16.10
   0   7  10   -9.10   14.70
   0   7  10  -17.70   12.90
   1  -7  10   -0.50   15.80
   1  -7  10   24.10   16.40
   1   7  10    2.30   14.80
   1   7  10   -1.70   17.10
   2  -7  10  -17.60   16.00
   2  -7  10  -17.20   18.10
   2   7  10    8.90   17.50
   2   7  10    0.90   19.10
   3  -7  10  -21.00   18.80
   3   7  10    6.60   19.10
   3   7  10  -15.80   17.00
  -8  -8  10  460.85   38.50
  -8  -8  10  514.25   43.00
  -8   8  10  460.65   40.00
  -8   8  10  429.86   42.60
  -7  -8  10  103.49   25.60
  -7  -8  10   74.99   19.40
  -7   8  10   86.69   21.50
  -7   8  10   50.89   18.90
  -6  -8  10  360.96   31.10
  -6  -8  10  341.27   36.60
  -6   8  10  312.37   33.20
  -6   8  10  282.97   31.40
  -5  -8  10  678.23   46.70
  -5  -8  10  804.32   45.90
  -5   8  10  784.22   48.90
  -5   8  10  732.23   48.90
  -4  -8  10  143.79   26.70
  -4  -8  10  124.69   22.80
  -4   8  10  160.28   25.50
  -4   8  10  144.49   26.00
  -3  -8  10  282.27   30.70
  -3  -8  10  268.67   28.50
  -3   8  10  334.97   33.70
  -3   8  10  280.17   31.00
  -2  -8  10  847.42   48.30
  -2  -8  10  930.01   54.39
  -2   8  10  797.72   49.60
  -2   8  10  827.82   50.89
  -1  -8  10  161.88   26.00
  -1  -8  10  145.99   25.20
  -1   8  10  144.89   26.30
  -1   8  10  144.39   26.50
   0  -8  10  198.18   30.00
   0  -8  10  238.68   31.90
   0   8  10  177.18   27.90
   0   8  10  149.69   28.90
   1  -8  10  849.81   54.39
   1  -8  10  893.31   52.79
   1   8  10  893.91   57.59
   1   8  10  849.72   54.09
   2  -8  10  203.98   31.90
   2   8  10  282.17   38.00
   2   8  10  302.47   39.80
   3  -8  10   65.89   24.40
   3   8  10   62.29   22.30
   3   8  10    5.10   20.30
  -8  -9  10   39.60   19.00
  -8  -9  10   81.29   24.60
  -8   9  10   40.40   20.70
  -8   9  10   85.59   25.00
  -7  -9  10  479.15   40.60
  -7  -9  10  547.45   38.40
  -7   9  10  532.65   43.30
  -7   9  10  472.05   42.50
  -6  -9  10  231.68   26.80
  -6  -9  10  202.88   30.20
  -6   9  10  186.38   29.50
  -6   9  10  212.28   30.90
  -5  -9  10   71.79   19.00
  -5  -9  10   77.39   22.10
  -5   9  10   92.09   21.40
  -5   9  10   84.99   19.80
  -4  -9  10  683.53   46.00
  -4  -9  10  662.23   41.50
  -4   9  10  651.13   45.20
  -4   9  10  701.33   47.50
  -3  -9  10  284.57   28.90
  -3  -9  10  302.57   34.10
  -3   9  10  272.27   32.50
  -3   9  10  308.57   33.20
  -2  -9  10   32.50   14.30
  -2  -9  10   -5.10   15.00
  -2   9  10   57.29   17.00
  -2   9  10   22.50   15.90
  -1  -9  10  325.87   35.30
  -1  -9  10  388.46   33.10
  -1   9  10  400.36   38.90
  -1   9  10  394.56   37.80
   0  -9  10  276.07   31.20
   0  -9  10  243.08   32.70
   0   9  10  258.17   35.30
   0   9  10  235.98   32.60
   1  -9  10    6.40   14.60
   1  -9  10   -1.70   17.40
   1   9  10   33.50   19.00
   1   9  10   21.40   15.30
   2  -9  10  258.87   35.80
   2   9  10  245.68   35.80
   2   9  10  179.88   31.30
   3  -9  10  439.06   43.90
   3   9  10  494.15   45.10
   3   9  10  375.86   47.00
  -8 -10  10   48.00   19.80
  -8 -10  10   57.29   19.80
  -8  10  10   52.09   21.30
  -8  10  10   54.29   21.60
  -7 -10  10    1.40   15.10
  -7 -10  10   17.30   16.10
  -7  10  10   12.80   18.90
  -7  10  10   22.00   15.60
  -6 -10  10   57.59   18.50
  -6 -10  10   30.40   14.70
  -6  10  10   -6.70   17.50
  -6  10  10   24.80   14.50
  -5 -10  10   33.60   16.80
  -5 -10  10   34.00   14.70
  -5  10  10    5.90   15.30
  -5  10  10   18.60   16.10
  -4 -10  10   36.30   16.00
  -4 -10  10   38.90   17.10
  -4  10  10   30.60   16.40
  -4  10  10   38.60   16.90
  -3 -10  10   88.29   21.30
  -3 -10  10   77.99   22.30
  -3  10  10  112.89   24.40
  -3  10  10  111.09   22.20
  -2 -10  10   20.80   15.40
  -2 -10  10   27.30   15.70
  -2  10  10   35.80   18.10
  -2  10  10   22.80   16.40
  -1 -10  10   27.90   18.00
  -1 -10  10   48.60   16.80
  -1  10  10   40.90   18.00
  -1  10  10   44.70   19.50
   0 -10  10   32.50   17.40
   0 -10  10   48.10   17.40
   0  10  10   76.59   23.60
   0  10  10   24.00   15.60
   1 -10  10  197.88   31.20
   1 -10  10  123.09   24.80
   1  10  10  159.58   27.90
   1  10  10  177.28   31.90
   2 -10  10   36.70   19.60
   2  10  10   78.19   24.20
   2  10  10   75.29   24.80
   3 -10  10   20.10   24.70
   3  10  10   25.50   22.80
   3  10  10   43.40   20.60
  -8 -11  10  146.59   25.60
  -8 -11  10  132.79   27.20
  -8  11  10  130.99   26.90
  -8  11  10  128.79   29.00
  -7 -11  10  655.23   49.00
  -7 -11  10  574.74   40.10
  -7  11  10  618.14   46.00
  -7  11  10  656.33   47.80
  -6 -11  10  353.26   37.80
  -6 -11  10  376.16   32.30
  -6  11  10  333.67   35.90
  -6  11  10  385.66   37.40
  -5 -11  10   18.20   16.80
  -5 -11  10    1.20   14.20
  -5  11  10   -6.00   16.30
  -5  11  10    0.30   13.40
  -4 -11  10  932.01   48.80
  -4 -11  10  943.51   55.39
  -4  11  10  948.51   55.29
  -4  11  10  998.70   56.79
  -3 -11  10  659.33   41.70
  -3 -11  10  722.13   47.20
  -3  11  10  730.63   47.60
  -3  11  10  693.53   48.10
  -2 -11  10   28.30   16.60
  -2 -11  10   10.60   14.60
  -2  11  10   38.00   15.80
  -2  11  10   32.20   16.30
  -1 -11  10  719.93   43.70
  -1 -11  10  732.83   47.60
  -1  11  10  724.73   48.50
  -1  11  10  690.53   49.40
   0 -11  10  652.33   45.20
   0 -11  10  729.73   50.29
   0  11  10  637.84   47.00
   0  11  10  727.63   48.50
   1 -11  10   47.50   19.20
   1 -11  10   -5.50   16.40
   1  11  10    6.30   16.10
   1  11  10   -1.70   17.00
   2 -11  10  486.45   42.30
   2  11  10  548.05   45.70
   2  11  10  460.65   43.10
   3 -11  10  591.44   50.39
   3  11  10  481.95   44.80
   3  11  10  401.16   47.40
  -8 -12  10   93.29   25.30
  -8 -12  10   54.49   19.90
  -8  12  10  100.79   23.00
  -8  12  10   72.39   23.50
  -7 -12  10    3.70   15.30
  -7 -12  10    9.10   16.50
  -7  12  10  -15.30   14.20
  -7  12  10   29.90   19.70
  -6 -12  10   77.19   19.80
  -6 -12  10  110.89   23.60
  -6  12  10   85.89   22.30
  -6  12  10   89.89   21.70
  -5 -12  10  389.16   38.20
  -5 -12  10  400.16   32.60
  -5  12  10  380.56   37.10
  -5  12  10  304.57   34.40
  -4 -12  10  137.59   23.90
  -4 -12  10  170.58   25.50
  -4  12  10   85.49   21.60
  -4  12  10   99.39   24.70
  -3 -12  10  193.28   29.30
  -3 -12  10  207.58   27.50
  -3  12  10  189.58   28.40
  -3  12  10  205.98   28.60
  -2 -12  10  176.38   29.50
  -2 -12  10  123.79   21.80
  -2  12  10   86.59   22.20
  -2  12  10  134.29   25.00
  -1 -12  10  120.79   23.50
  -1 -12  10   95.39   22.00
  -1  12  10  114.29   25.10
  -1  12  10  112.29   24.80
   0 -12  10    7.80   17.60
   0 -12  10   18.40   13.90
   0  12  10   35.00   17.30
   0  12  10   15.00   15.90
   1 -12  10  172.98   30.70
   1  12  10  179.08   30.60
   1  12  10  173.58   29.30
   2 -12  10   54.99   22.50
   2  12  10   90.59   24.80
   2  12  10  108.39   28.10
   3 -12  10   -1.80   23.00
   3  12  10   84.59   26.70
   3  12  10   28.70   23.10
  -8 -13  10   19.80   16.90
  -8 -13  10   23.70   22.20
  -8  13  10   17.10   19.90
  -8  13  10   27.70   19.00
  -7 -13  10  163.28   28.00
  -7 -13  10  169.58   24.70
  -7  13  10  102.19   25.30
  -7  13  10  202.18   31.20
  -6 -13  10   44.30   16.00
  -6 -13  10   39.60   18.00
  -6  13  10   43.40   16.60
  -6  13  10   49.20   19.30
  -5 -13  10   41.20   18.80
  -5 -13  10   37.20   15.20
  -5  13  10   21.00   15.90
  -5  13  10    5.50   15.10
  -4 -13  10  128.09   23.60
  -4 -13  10  145.79   23.10
  -4  13  10  122.39   24.60
  -4  13  10  133.39   25.70
  -3 -13  10  154.38   23.60
  -3 -13  10  183.38   29.40
  -3  13  10  162.28   28.00
  -3  13  10  157.68   27.20
  -2 -13  10   21.60   12.50
  -2 -13  10   23.40   16.80
  -2  13  10   -9.30   12.50
  -2  13  10   -6.70   14.20
  -1 -13  10  229.78   31.00
  -1 -13  10  216.28   29.40
  -1  13  10  253.27   30.00
  -1  13  10  237.08   32.30
   0 -13  10  190.58   29.20
   0 -13  10  198.88   30.30
   0  13  10  224.98   34.10
   0  13  10  192.28   31.20
   1 -13  10    3.90   17.60
   1  13  10   18.10   18.70
   1  13  10    7.30   16.60
   2 -13  10  117.69   26.50
   2  13  10   73.29   24.50
   2  13  10   69.29   26.10
   3 -13  10  240.58   36.50
   3  13  10  261.77   38.80
   3  13  10  192.68   36.80
  -8 -14  10  501.85   46.60
  -8 -14  10  536.55   39.20
  -8  14  10  581.44   51.59
  -7 -14  10   12.50   14.80
  -7 -14  10    9.20   17.90
  -7  14  10   45.10   18.80
  -7  14  10    8.30   18.20
  -6 -14  10  516.45   41.60
  -6 -14  10  512.25   36.40
  -6  14  10  469.65   41.40
  -6  14  10  461.95   40.90
  -5 -14  10  700.83   48.00
  -5 -14  10  746.33   42.60
  -5  14  10  800.52   49.80
  -5  14  10  716.33   49.80
  -4 -14  10  145.19   26.30
  -4 -14  10  147.59   23.10
  -4  14  10  114.89   23.70
  -4  14  10   92.39   23.60
  -3 -14  10  239.68   27.60
  -3 -14  10  298.77   36.40
  -3  14  10  309.27   38.50
  -3  14  10  281.77   34.90
  -2 -14  10  978.50   55.99
  -2 -14  10  891.91   48.10
  -2  14  10 1048.20   60.09
  -2  14  10  925.11   56.19
  -1 -14  10   96.99   21.50
  -1 -14  10  119.29   22.20
  -1  14  10   81.49   21.60
  -1  14  10   90.69   23.30
   0 -14  10  202.88   30.10
   0 -14  10  195.28   27.90
   0  14  10  123.79   26.30
   0  14  10  130.19   25.60
   1 -14  10  794.72   51.99
   1  14  10  717.23   53.39
   1  14  10  821.22   57.09
   2 -14  10  251.97   36.30
   2  14  10  277.07   39.30
   2  14  10  353.86   41.20
  -7 -15  10   49.60   20.90
  -7 -15  10   81.49   19.60
  -7  15  10   17.20   18.30
  -7  15  10   -4.70   20.80
  -6 -15  10   58.59   18.00
  -6 -15  10   60.09   19.90
  -6  15  10   50.29   20.80
  -6  15  10   89.79   23.70
  -5 -15  10   11.60   14.50
  -5 -15  10    3.90   15.30
  -5  15  10    8.00   13.50
  -5  15  10   16.50   16.90
  -4 -15  10  128.39   25.80
  -4 -15  10  101.39   20.40
  -4  15  10  112.29   23.20
  -4  15  10  136.99   26.20
  -3 -15  10  114.49   21.40
  -3 -15  10  131.99   26.10
  -3  15  10  135.99   24.60
  -3  15  10  157.78   28.00
  -2 -15  10   30.00   16.00
  -2 -15  10   38.50   17.70
  -2  15  10    6.80   15.30
  -2  15  10   12.80   15.70
  -1 -15  10   53.79   16.80
  -1 -15  10   71.49   20.30
  -1  15  10   60.69   19.80
  -1  15  10   86.89   20.80
   0 -15  10   58.79   20.30
   0 -15  10   62.99   20.20
   0  15  10  104.49   23.80
   0  15  10   68.59   23.00
   1 -15  10   13.80   16.70
   1  15  10    5.70   17.20
   1  15  10   14.70   20.20
   2 -15  10   34.60   21.00
   2  15  10   -1.00   17.80
   2  15  10   44.50   21.10
  -7 -16  10    6.20   16.00
  -7 -16  10   14.30   17.70
  -7  16  10   -4.00   17.10
  -7  16  10   15.60   15.80
  -6 -16  10  267.37   35.80
  -6 -16  10  347.27   30.10
  -6  16  10  296.47   39.90
  -6  16  10  250.97   33.10
  -5 -16  10  287.17   28.50
  -5 -16  10  335.37   34.90
  -5  16  10  344.37   35.70
  -5  16  10  308.57   34.60
  -4 -16  10    1.60   14.40
  -4 -16  10   36.10   18.10
  -4  16  10   17.10   16.90
  -4  16  10   43.80   16.20
  -3 -16  10  220.48   31.90
  -3 -16  10  187.48   25.50
  -3  16  10  211.88   33.10
  -3  16  10  262.47   30.20
  -2 -16  10  409.16   33.90
  -2 -16  10  451.65   39.80
  -2  16  10  486.25   39.90
  -2  16  10  426.66   41.40
  -1 -16  10   52.89   20.00
  -1 -16  10   76.59   18.50
  -1  16  10   30.60   19.40
  -1  16  10   73.19   22.10
   0 -16  10   86.09   23.50
   0  16  10   87.39   25.20
   0  16  10   92.09   22.60
   1 -16  10  487.15   43.00
   1  16  10  437.16   41.30
   1  16  10  449.26   41.60
   2 -16  10  105.69   27.50
   2  16  10  123.59   28.00
   2  16  10   83.59   25.80
  -7 -17  10  492.25   35.00
  -7 -17  10  426.06   41.00
  -7  17  10  486.05   38.90
  -7  17  10  407.46   41.50
  -6 -17  10  268.17   28.70
  -6 -17  10  313.17   36.10
  -6  17  10  257.37   34.90
  -6  17  10  208.28   30.70
  -5 -17  10   26.20   17.60
  -5 -17  10   37.70   16.20
  -5  17  10   29.80   20.00
  -5  17  10   48.70   18.40
  -4 -17  10  459.55   34.70
  -4 -17  10  427.16   39.60
  -4  17  10  506.25   43.00
  -4  17  10  535.35   41.20
  -3 -17  10  463.25   35.10
  -3 -17  10  476.35   41.20
  -3  17  10  513.75   41.90
  -3  17  10  467.85   41.20
  -2 -17  10  -19.50   15.50
  -2 -17  10   13.60   14.40
  -2  17  10    5.30   15.40
  -2  17  10    7.60   16.20
  -1 -17  10  530.85   42.80
  -1 -17  10  514.35   38.90
  -1  17  10  542.75   44.20
  -1  17  10  588.04   45.10
   0 -17  10  512.55   44.00
   0  17  10  531.85   45.80
   0  17  10  526.85   44.00
   1 -17  10   20.80   19.40
   1  17  10   24.20   19.80
   1  17  10   22.70   19.10
   2 -17  10  149.09   30.50
   2  17  10  181.48   32.40
   2  17  10  159.88   33.10
  -7 -18  10    5.40   15.80
  -7 -18  10   12.70   19.60
  -7  18  10   16.10   20.40
  -7  18  10   24.30   16.70
  -6 -18  10   42.50   15.80
  -6 -18  10   19.60   18.40
  -6  18  10   30.20   18.70
  -6  18  10   -3.10   18.00
  -5 -18  10   16.60   18.00
  -5 -18  10   -3.40   14.10
  -5  18  10   15.30   16.80
  -5  18  10   29.60   17.20
  -4 -18  10  -14.50   14.10
  -4 -18  10   20.60   14.40
  -4  18  10   -4.30   17.40
  -4  18  10   27.60   16.60
  -3 -18  10   27.70   15.00
  -3 -18  10    5.60   14.70
  -3  18  10   24.20   18.70
  -3  18  10   35.30   17.50
  -2 -18  10   46.30   16.80
  -2 -18  10   71.29   20.90
  -2  18  10   42.20   20.20
  -2  18  10   56.09   20.10
  -1 -18  10   -1.10   17.70
  -1 -18  10   25.20   15.50
  -1  18  10   18.70   17.00
  -1  18  10    2.00   17.10
   0 -18  10    6.50   18.00
   0  18  10    9.20   19.70
   0  18  10  -11.70   14.90
   1 -18  10   -4.80   18.30
   1  18  10   13.30   18.50
   1  18  10    6.40   17.30
   2 -18  10   33.90   22.50
   2  18  10   15.30   20.50
   2  18  10   18.40   21.60
  -7 -19  10  333.67   38.10
  -7 -19  10  384.26   32.80
  -7  19  10  391.16   39.10
  -7  19  10  352.16   39.30
  -6 -19  10  275.37   32.70
  -6 -19  10  216.58   25.50
  -6  19  10  196.18   29.90
  -6  19  10  187.88   31.60
   6  19 -10  193.58   28.10
  -5 -19  10   23.50   15.40
  -5 -19  10   39.20   19.30
  -5  19  10   23.10   17.00
  -5  19  10   24.10   19.60
  -4 -19  10  495.25   34.70
  -4 -19  10  469.45   40.00
  -4  19  10  500.55   41.50
  -4  19  10  449.06   41.70
  -3 -19  10  337.67   29.80
  -3 -19  10  328.37   34.00
  -3  19  10  246.28   34.90
  -3  19  10  322.97   35.40
  -2 -19  10   54.39   19.10
  -2 -19  10    2.20   13.90
  -2  19  10   33.30   18.00
  -2  19  10   48.40   19.30
  -1 -19  10  627.14   44.40
  -1  19  10  677.33   48.60
  -1  19  10  603.44   47.60
   0 -19  10  507.25   42.80
   0  19  10  412.66   41.30
   0  19  10  478.85   44.90
   1 -19  10  -12.10   18.50
   1  19  10   13.30   18.10
   1  19  10   -5.40   18.80
   2 -19  10  386.66   42.80
   2  19  10  302.27   43.50
   2  19  10  327.47   38.80
  -7 -20  10   36.70   16.90
  -7 -20  10    2.40   20.50
  -7  20  10    7.70   19.30
  -7  20  10   29.60   18.90
  -6 -20  10  188.78   29.30
  -6 -20  10  145.29   21.80
  -6  20  10  146.49   29.60
  -6  20  10  149.29   28.10
  -5 -20  10  431.66   41.20
  -5 -20  10  431.66   32.50
  -5  20  10  407.16   38.50
  -5  20  10  496.65   44.80
   5  20 -10  378.46   33.20
  -4 -20  10  224.08   32.60
  -4 -20  10  266.97   27.90
  -4  20  10  178.18   30.20
  -4  20  10  243.08   32.30
  -3 -20  10  295.47   35.10
  -3 -20  10  254.17   27.00
  -3  20  10  227.28   33.60
  -3  20  10  238.28   35.20
  -2 -20  10  548.35   37.70
  -2 -20  10  566.14   45.10
  -2  20  10  585.44   45.70
  -2  20  10  655.23   49.50
  -1 -20  10  268.57   34.60
  -1  20  10  361.16   37.80
  -1  20  10  280.57   38.00
   0 -20  10   93.99   25.40
   0  20  10   64.59   23.00
   0  20  10   97.09   27.00
   1 -20  10  444.56   42.10
   1  20  10  372.66   44.60
   1  20  10  434.06   42.80
  -6 -21  10   34.30   21.30
  -6 -21  10   25.00   16.10
  -6  21  10   37.90   21.70
  -6  21  10   23.70   17.90
  -5 -21  10   61.39   21.90
  -5 -21  10   32.60   15.60
  -5  21  10   38.10   18.20
   5  21 -10   33.60   18.70
  -5  21  10   17.70   18.90
  -4 -21  10   41.80   16.20
  -4 -21  10   60.69   22.50
  -4  21  10   46.60   19.90
  -4  21  10   41.90   17.90
  -3 -21  10   15.40   18.40
  -3 -21  10   19.40   15.30
  -3  21  10   -9.00   15.60
  -3  21  10   21.50   18.80
  -2 -21  10   38.50   19.70
  -2  21  10   11.30   20.30
  -2  21  10   22.60   18.00
  -1 -21  10   75.19   21.20
  -1  21  10   25.50   19.20
  -1  21  10   86.09   26.90
   0 -21  10   25.10   20.80
   0  21  10   24.60   20.70
   0  21 -10  -29.60   23.90
   0  21  10   36.90   18.90
   1 -21  10   10.00   21.80
   1  21  10    5.30   19.80
   1  21  10   18.50   21.60
  -6 -22  10  203.88   33.40
  -6 -22  10  256.97   26.90
  -6  22  10  266.77   38.50
  -6  22  10  206.18   31.00
  -5 -22  10  513.05   35.00
  -5 -22  10  593.04   46.20
  -5  22  10  565.94   44.40
  -5  22  10  511.65   46.40
  -4 -22  10   69.79   20.60
  -4 -22  10  123.39   20.20
   4  22 -10   84.09   24.70
  -4  22  10   72.09   21.50
  -4  22  10   81.09   23.70
  -3 -22  10  203.48   25.40
  -3 -22  10  251.87   33.50
  -3  22  10  230.78   37.70
  -3  22  10  207.58   31.30
  -2 -22  10  700.93   49.40
  -2  22  10  772.52   51.99
  -2  22  10  830.32   55.59
  -1 -22  10  148.39   28.50
  -1  22  10   96.09   25.10
  -1  22  10  189.28   29.60
   1  22 -10   89.29   25.40
   0 -22  10  104.59   25.90
   0  22  10   91.29   25.50
   0  22  10   84.69   24.50
   1 -22  10  430.26   43.30
   1  22  10  462.75   45.60
   1  22  10  386.36   45.70
  -6 -23  10  140.49   20.90
  -6 -23  10  104.19   25.20
  -6  23  10  127.29   26.80
  -6  23  10  125.39   28.30
  -5 -23  10   24.60   15.30
  -5 -23  10  -22.10   18.80
  -5  23  10    7.00   19.50
  -5  23  10   14.80   18.20
  -4 -23  10  375.66   39.40
  -4 -23  10  383.06   30.80
  -4  23  10  440.86   39.50
  -4  23  10  377.86   40.30
   4  23 -10  363.86   32.60
  -3 -23  10  234.98   34.00
  -3  23  10  203.68   30.90
  -3  23  10  191.38   35.70
  -2 -23  10   17.50   17.60
   2  23 -10  -34.20   28.90
  -2  23  10  -16.40   17.60
  -2  23  10   10.10   18.40
  -1 -23  10  150.98   28.20
  -1  23  10  167.48   31.50
   1  23 -10  144.79   35.10
  -1  23  10  117.59   24.90
   0 -23  10  212.18   32.80
   0  23  10  274.87   37.70
   0  23  10  290.07   40.20
  -5 -24  10   57.99   16.80
  -5 -24  10   23.60   20.40
  -5  24  10   64.09   21.20
  -5  24  10   64.39   24.50
  -4 -24  10   64.29   16.70
  -4 -24  10    5.10   19.00
  -4  24  10   29.00   20.10
  -4  24  10    5.80   17.00
  -3 -24  10   60.59   22.50
  -3  24  10   58.69   24.90
  -3  24  10   57.79   20.70
  -2 -24  10   84.19   24.20
  -2  24  10  107.39   26.40
  -2  24  10  154.18   29.80
   2  24 -10   96.19   31.00
  -1 -24  10   44.20   21.70
  -1  24  10   31.30   17.30
  -1  24  10   38.50   21.50
   0 -24  10   28.50   21.90
   0  24  10   47.30   25.20
   0  24  10   46.00   23.40
  -5 -25  10   18.10   20.30
  -5 -25  10   15.30   15.40
  -5  25  10   53.79   24.50
  -5  25  10   16.50   18.90
  -4 -25  10  503.15   44.30
  -4  25  10  524.95   43.80
  -4  25  10  466.45   45.60
  -3 -25  10  459.95   42.70
  -3  25  10  403.76   40.30
  -3  25  10  414.46   46.90
  -2 -25  10   26.50   20.50
  -2  25  10   27.10   18.90
  -2  25  10   -3.50   19.40
  -1 -25  10  475.95   42.20
  -1  25  10  538.55   49.00
  -1  25  10  530.55   46.20
   0 -25  10  596.84   47.80
   0  25  10  521.35   50.29
   0  25  10  608.24   50.29
  -4 -26  10    8.70   19.40
  -4  26  10    6.30   20.20
  -4  26  10   12.40   18.90
  -3 -26  10  -10.00   19.80
  -3  26  10   -1.60   18.60
  -3  26  10   20.60   24.20
  -2 -26  10   99.29   26.20
  -2  26  10  101.19   25.90
  -2  26  10   61.19   24.40
  -1 -26  10  111.49   24.90
  -1  26  10   59.09   24.50
  -1  26  10   96.99   25.00
  -4 -27  10  110.39   26.70
  -4  27  10  148.19   29.30
  -4  27  10  107.19   26.20
  -3 -27  10  140.09   27.20
  -3  27  10   84.59   28.80
  -3  27  10  134.59   27.60
  -2 -27  10  -28.00   19.50
  -2  27  10   11.10   19.80
  -2  27  10    5.20   20.60
  -7   0  11   28.20   18.60
  -7   0  11   12.00   17.40
  -6   0  11  -10.20   16.10
  -6   0  11   29.70   18.90
  -5   0  11    1.20   15.90
  -5   0  11    3.80   14.50
  -4   0  11    7.30   17.30
  -4   0  11  -31.10   15.50
  -3   0  11   17.50   17.90
  -3   0  11   -3.70   15.80
  -2   0  11    1.20   15.10
  -2   0  11   18.60   18.80
  -1   0  11  -26.30   16.20
  -1   0  11  -16.30   15.60
   0   0  11    4.30   16.20
   0   0  11   17.40   17.90
   1   0  11    2.70   19.10
   1   0  11   -8.10   19.70
  -7  -1  11  386.16   41.40
  -7  -1  11  382.16   40.40
  -7   1  11  416.56   41.00
  -7   1  11  440.06   41.30
  -6  -1  11  538.25   43.80
  -6  -1  11  529.65   45.40
  -6   1  11  504.95   43.80
  -6   1  11  543.45   44.80
  -5  -1  11   56.79   20.70
  -5  -1  11   74.49   21.70
  -5   1  11   84.49   25.70
  -5   1  11   78.09   22.20
  -4  -1  11  306.37   34.50
  -4  -1  11  307.87   35.50
  -4   1  11  262.67   34.80
  -4   1  11  257.57   36.90
  -3  -1  11  734.03   53.59
  -3  -1  11  747.73   50.49
  -3   1  11  712.73   48.20
  -3   1  11  748.13   51.79
  -2  -1  11  165.28   28.20
  -2  -1  11  152.98   27.90
  -2   1  11  106.89   28.30
  -2   1  11  163.78   28.60
  -1  -1  11  102.49   23.00
  -1  -1  11  165.18   31.90
  -1   1  11  157.38   29.30
  -1   1  11  117.09   25.20
   0  -1  11  520.15   42.90
   0  -1  11  516.95   48.00
   0   1  11  579.64   49.00
   0   1  11  480.35   43.20
   1  -1  11  142.19   28.40
   1  -1  11  189.68   34.30
   1   1  11  196.68   35.70
   1   1  11  175.28   30.50
  -7  -2  11  110.99   26.20
  -7  -2  11  134.89   29.90
  -7   2  11   68.09   23.00
  -7   2  11  105.09   25.40
  -6  -2  11   87.69   25.60
  -6  -2  11   81.29   21.80
  -6   2  11   45.50   21.00
  -6   2  11   89.89   25.30
  -5  -2  11  432.86   39.00
  -5  -2  11  364.76   37.90
  -5   2  11  378.56   40.70
  -5   2  11  360.96   35.70
  -4  -2  11  306.47   31.70
  -4  -2  11  190.88   31.40
  -4   2  11  303.67   35.60
  -4   2  11  321.97   38.70
  -3  -2  11   32.60   17.80
  -3  -2  11  -12.30   13.80
  -3   2  11   17.90   18.30
  -3   2  11   17.80   16.30
  -2  -2  11  331.17   37.00
  -2  -2  11  341.07   37.30
  -2   2  11  422.96   38.00
  -2   2  11  416.36   40.20
  -1  -2  11  336.07   34.80
  -1  -2  11  336.47   37.70
  -1   2  11  391.56   40.10
  -1   2  11  435.46   43.40
   0  -2  11   37.70   20.20
   0  -2  11    2.40   17.80
   0   2  11   25.50   20.30
   0   2  11   52.39   22.50
   1  -2  11  262.17   37.40
   1  -2  11  267.87   38.50
   1   2  11  265.67   36.10
   1   2  11  255.37   37.20
  -7  -3  11   41.30   20.90
  -7  -3  11   46.10   20.70
  -7   3  11   14.30   17.60
  -7   3  11   41.10   19.70
  -6  -3  11   85.09   25.10
  -6  -3  11   66.49   19.90
  -6   3  11   39.60   18.90
  -6   3  11   78.69   24.10
  -5  -3  11   28.20   18.60
  -5  -3  11   10.60   14.80
  -5   3  11    0.50   17.40
  -5   3  11   20.10   17.20
  -4  -3  11   12.20   19.30
  -4  -3  11   54.49   20.60
  -4   3  11   23.30   19.40
  -4   3  11   39.90   19.30
  -3  -3  11   59.29   20.60
  -3  -3  11   98.69   22.20
  -3   3  11   57.99   20.90
  -3   3  11   63.79   19.70
  -2  -3  11   49.50   20.50
  -2  -3  11   -0.80   16.80
  -2   3  11   -5.60   16.50
  -2   3  11    8.00   16.70
  -1  -3  11    9.60   17.40
  -1  -3  11    8.60   19.10
  -1   3  11   -8.10   15.60
  -1   3  11   29.80   21.20
   0  -3  11    4.90   16.90
   0  -3  11  -14.60   19.60
   0   3  11   19.50   19.80
   0   3  11   21.30   17.00
   1  -3  11   21.00   22.30
   1  -3  11   35.20   20.20
   1   3  11   18.70   19.70
   1   3  11  -13.50   20.00
  -7  -4  11  255.67   34.90
  -7  -4  11  330.07   38.50
  -7   4  11  245.88   34.70
  -7   4  11  270.07   35.80
  -6  -4  11  104.59   23.20
  -6  -4  11  140.19   27.90
  -6   4  11  208.28   33.00
  -6   4  11  116.39   26.70
  -5  -4  11  632.64   43.50
  -5  -4  11  547.65   45.70
  -5   4  11  672.73   50.79
  -5   4  11  649.83   48.10
  -4  -4  11  536.05   42.50
  -4  -4  11  639.64   47.80
  -4   4  11  537.25   42.90
  -4   4  11  539.15   47.40
  -3  -4  11    5.00   17.90
  -3  -4  11   14.20   16.50
  -3   4  11   36.40   19.30
  -3   4  11   26.60   17.00
  -2  -4  11  833.22   50.89
  -2  -4  11  845.12   55.69
  -2   4  11  796.12   54.19
  -2   4  11  741.63   50.99
  -1  -4  11  527.25   44.90
  -1  -4  11  618.74   46.50
  -1   4  11  520.55   43.20
  -1   4  11  609.34   50.19
   0  -4  11  -17.80   16.70
   0  -4  11   12.00   16.40
   0   4  11    8.00   18.60
   0   4  11   21.00   19.40
   1  -4  11  389.36   40.10
   1  -4  11  342.87   40.90
   1   4  11  394.16   45.60
  -7  -5  11  290.77   36.20
  -7  -5  11  220.68   35.40
  -7   5  11  243.08   35.10
  -7   5  11  276.27   35.50
  -6  -5  11  355.76   40.60
  -6  -5  11  290.17   34.30
  -6   5  11  296.17   37.60
  -6   5  11  235.48   34.60
  -5  -5  11   13.30   16.60
  -5  -5  11   29.60   16.10
  -5   5  11   26.80   17.60
  -5   5  11   12.90   18.90
  -4  -5  11   37.50   18.10
  -4  -5  11   53.49   20.00
  -4   5  11   55.69   23.00
  -4   5  11   20.50   17.90
  -3  -5  11  306.17   33.90
  -3  -5  11  235.28   33.20
  -3   5  11  248.38   36.40
  -3   5  11  237.18   35.00
  -2  -5  11   80.39   24.80
  -2  -5  11   89.99   22.40
  -2   5  11   89.59   23.20
  -2   5  11   61.49   22.00
  -1  -5  11   91.79   22.80
  -1  -5  11  108.09   26.60
  -1   5  11   87.79   24.60
  -1   5  11   40.50   20.40
   0  -5  11  397.76   46.90
   0  -5  11  325.97   39.80
   0   5  11  365.16   40.00
   0   5  11  300.77   39.90
   1  -5  11   59.19   21.90
   1  -5  11   62.39   23.90
   1   5  11   83.79   27.70
   1   5  11   29.80   20.80
  -7  -6  11   27.20   19.10
  -7  -6  11   74.49   23.70
  -7   6  11   17.40   20.00
  -7   6  11   55.79   22.10
  -6  -6  11   67.09   23.30
  -6  -6  11   53.99   19.80
  -6   6  11   12.50   21.40
  -6   6  11   35.60   19.80
  -5  -6  11  242.58   37.00
  -5  -6  11  235.18   31.20
  -5   6  11  215.68   32.70
  -5   6  11  285.77   33.00
  -4  -6  11  166.68   26.60
  -4  -6  11  129.29   27.90
  -4   6  11   87.19   24.40
  -4   6  11   94.89   25.40
  -3  -6  11    1.20   14.80
  -3  -6  11   10.90   18.80
  -3   6  11    7.80   16.70
  -3   6  11    9.00   18.20
  -2  -6  11   74.19   23.40
  -2  -6  11   69.49   19.20
  -2   6  11   56.99   19.90
  -2   6  11   60.49   19.70
  -1  -6  11   98.29   24.50
  -1  -6  11  116.29   26.60
  -1   6  11  118.39   27.00
  -1   6  11  118.99   26.70
   0  -6  11  -16.00   19.40
   0  -6  11   -2.40   18.80
   0   6  11   36.90   23.40
   0   6  11   17.10   17.30
   1  -6  11   34.30   24.30
   1  -6  11   39.40   24.50
   1   6  11   15.10   21.50
   1   6  11   20.00   19.40
  -7  -7  11  615.34   45.70
  -7  -7  11  633.24   51.19
  -7   7  11  652.43   49.40
  -7   7  11  636.44   50.49
  -6  -7  11  879.11   59.09
  -6  -7  11  876.71   52.79
  -6   7  11  915.91   58.89
  -5  -7  11   42.10   19.00
  -5  -7  11   27.70   20.20
  -5   7  11   36.60   18.00
  -5   7  11   25.10   17.80
  -4  -7  11  478.85   38.20
  -4  -7  11  466.75   43.10
  -4   7  11  535.75   45.10
  -4   7  11  466.75   41.90
  -3  -7  11  977.90   59.29
  -3  -7  11  918.81   52.79
  -3   7  11 1020.20   61.09
  -3   7  11  960.00   59.69
  -2  -7  11  109.89   24.30
  -2  -7  11  119.89   27.30
  -2   7  11   86.49   23.30
  -2   7  11  116.59   25.60
  -1  -7  11  323.57   42.20
  -1  -7  11  298.87   37.10
  -1   7  11  337.07   38.70
  -1   7  11  284.17   38.80
   0  -7  11  870.91   55.89
   0  -7  11  803.62   55.49
   0   7  11  861.01   55.69
   0   7  11  864.81   60.39
   1  -7  11  189.78   34.40
   1  -7  11  229.58   33.30
   1   7  11  132.09   29.60
   1   7  11  197.78   33.70
  -7  -8  11   49.60   22.50
  -7  -8  11  100.79   23.80
  -7   8  11   78.99   25.60
  -7   8  11   98.99   25.10
  -6  -8  11   13.30   18.60
  -6  -8  11   33.70   19.60
  -6   8  11   48.00   21.50
  -6   8  11   29.30   19.20
  -5  -8  11  126.99   24.60
  -5  -8  11   89.69   24.80
  -5   8  11  116.19   26.90
  -5   8  11  171.68   30.20
  -4  -8  11   64.19   21.00
  -4  -8  11   81.59   22.80
  -4   8  11   69.69   22.40
  -4   8  11   70.19   21.00
  -3  -8  11   38.10   21.20
  -3  -8  11   26.30   17.90
  -3   8  11   30.80   17.60
  -3   8  11   34.00   19.80
  -2  -8  11   95.19   23.30
  -2  -8  11   82.49   25.70
  -2   8  11   77.19   22.80
  -2   8  11   86.09   24.10
  -1  -8  11   91.49   25.10
  -1  -8  11  113.99   29.30
  -1   8  11  116.59   27.20
  -1   8  11  123.99   25.50
   0  -8  11  -10.10   20.40
   0  -8  11   23.30   19.00
   0   8  11   18.40   17.70
   0   8  11   -9.40   19.30
   1  -8  11  101.19   24.20
   1  -8  11  127.39   29.60
   1   8  11   85.59   25.30
   1   8  11  125.29   29.40
  -7  -9  11  363.86   36.20
  -7  -9  11  348.17   41.10
  -7   9  11  373.26   37.70
  -7   9  11  308.57   40.50
  -6  -9  11  392.16   38.30
  -6  -9  11  392.06   42.70
  -6   9  11  323.67   38.60
  -6   9  11  364.86   37.90
  -5  -9  11  -16.40   17.80
  -5  -9  11    7.40   16.60
  -5   9  11   22.40   19.30
  -5   9  11   -3.10   15.60
  -4  -9  11  334.27   33.80
  -4  -9  11  327.67   39.30
  -4   9  11  288.87   38.50
  -4   9  11  269.37   36.30
  -3  -9  11  421.46   38.00
  -3  -9  11  439.56   43.90
  -3   9  11  501.35   45.50
  -3   9  11  445.46   40.80
  -2  -9  11  112.29   25.80
  -2  -9  11  158.48   27.60
  -2   9  11  166.68   31.90
  -2   9  11  133.29   30.00
  -1  -9  11   52.89   21.50
  -1  -9  11   67.09   22.10
  -1   9  11   62.49   24.30
  -1   9  11   77.09   21.80
   0  -9  11  339.17   43.00
   0  -9  11  337.27   38.40
   0   9  11  311.37   42.00
   0   9  11  289.27   38.80
   1  -9  11  123.29   27.10
   1  -9  11   88.69   26.80
   1   9  11  111.89   27.80
   1   9  11  114.09   27.40
  -7 -10  11  186.68   31.60
  -7 -10  11  171.08   29.10
  -7  10  11  211.78   36.10
  -7  10  11  191.28   32.30
  -6 -10  11   65.79   22.70
  -6 -10  11  100.39   21.70
  -6  10  11   76.79   23.50
  -6  10  11   86.39   22.40
  -5 -10  11  822.82   50.09
  -5 -10  11  860.11   56.59
  -5  10  11  919.01   59.49
  -5  10  11  908.21   56.49
  -4 -10  11  549.85   41.00
  -4 -10  11  561.04   45.40
  -4  10  11  509.55   45.80
  -4  10  11  566.04   47.50
  -3 -10  11   44.70   19.20
  -3 -10  11   40.90   19.00
  -3  10  11   33.90   18.20
  -3  10  11   21.10   18.50
  -2 -10  11  551.24   41.40
  -2 -10  11  593.74   48.90
  -2  10  11  608.34   51.79
  -2  10  11  588.74   46.00
  -1 -10  11  427.86   41.50
  -1 -10  11  503.75   40.80
  -1  10  11  519.45   47.80
  -1  10  11  534.55   43.80
   0 -10  11   12.70   19.60
   0 -10  11   34.20   23.60
   0  10  11   12.90   18.70
   0  10  11  -11.00   20.70
   1 -10  11  377.66   41.70
   1 -10  11  405.86   40.40
   1  10  11  445.96   44.10
   1  10  11  388.16   43.80
  -7 -11  11   -8.40   18.60
  -7 -11  11   14.00   19.50
  -7  11  11   31.80   21.30
  -7  11  11   20.70   19.30
  -6 -11  11   20.10   19.10
  -6 -11  11   11.10   17.80
  -6  11  11   22.70   20.90
  -6  11  11    1.80   21.10
  -5 -11  11    2.30   17.90
  -5 -11  11   49.80   19.30
  -5  11  11   44.20   20.80
  -5  11  11   28.20   19.70
  -4 -11  11    3.20   16.70
  -4 -11  11   14.80   16.70
  -4  11  11  -27.30   15.50
  -4  11  11    0.00   15.50
  -3 -11  11   22.40   17.50
  -3 -11  11   10.70   17.80
  -3  11  11   40.80   21.20
  -3  11  11   26.00   16.60
  -2 -11  11   10.20   19.90
  -2 -11  11   -1.80   16.30
  -2  11  11   -1.20   15.90
  -2  11  11   19.90   18.90
  -1 -11  11   29.20   19.10
  -1 -11  11   57.09   22.30
  -1  11  11   44.20   20.80
  -1  11  11   18.20   20.00
   0 -11  11   61.29   23.40
   0 -11  11   46.10   25.10
   0  11  11   56.69   22.40
   0  11  11   21.50   19.80
   1 -11  11   25.50   20.80
   1  11  11  -12.70   19.80
   1  11  11   -2.60   20.50
  -6 -12  11  214.68   35.10
  -6 -12  11  169.78   27.60
  -6  12  11  160.98   30.50
  -6  12  11  101.59   25.30
  -5 -12  11  888.91   50.49
  -5 -12  11  792.02   56.59
  -5  12  11  803.52   55.29
  -5  12  11  772.92   54.49
  -4 -12  11  398.46   42.40
  -4 -12  11  384.16   36.70
  -4  12  11  397.96   40.40
  -4  12  11  485.35   43.20
  -3 -12  11   55.49   19.90
  -3 -12  11   60.49   23.30
  -3  12  11   33.60   19.00
  -3  12  11   71.69   23.60
  -2 -12  11  480.65   38.50
  -2 -12  11  636.54   50.59
  -2  12  11  511.35   44.90
  -2  12  11  583.44   46.90
  -1 -12  11  550.84   43.70
  -1 -12  11  599.24   49.50
  -1  12  11  646.74   51.09
  -1  12  11  564.64   47.30
   0 -12  11   12.20   17.90
   0 -12  11   17.00   23.20
   0  12  11   18.80   19.00
   0  12  11   12.20   20.50
   1 -12  11  295.57   39.70
   1  12  11  297.17   41.40
   1  12  11  281.77   41.30
  -6 -13  11  632.14   52.99
  -6 -13  11  638.94   45.30
  -6  13  11  648.94   50.99
  -6  13  11  673.63   52.29
  -5 -13  11   87.79   27.00
  -5 -13  11   60.89   19.70
  -5  13  11   65.59   23.70
  -5  13  11   82.09   25.40
  -4 -13  11  288.37   38.40
  -4 -13  11  342.97   34.30
  -4  13  11  331.67   36.70
  -4  13  11  343.07   42.70
  -3 -13  11  293.27   40.00
  -3 -13  11  392.36   36.50
  -3  13  11  356.06   37.90
  -3  13  11  326.77   36.50
  -2 -13  11   75.99   26.30
  -2 -13  11   26.10   18.80
  -2  13  11   58.49   23.80
  -2  13  11   33.30   20.30
  -1 -13  11  228.68   31.40
  -1 -13  11  211.98   35.40
  -1  13  11  190.28   32.40
  -1  13  11  274.17   38.00
   0 -13  11  506.15   44.60
   0 -13  11  577.84   50.69
   0  13  11  469.75   47.50
   0  13  11  470.95   45.40
  -6 -14  11   44.70   18.90
  -6 -14  11   -6.60   21.50
  -6  14  11   18.00   20.30
  -6  14  11   16.60   20.10
  -5 -14  11   55.19   23.90
  -5 -14  11   35.60   18.10
  -5  14  11   32.80   19.60
  -5  14  11    6.80   18.60
  -4 -14  11   15.40   17.30
  -4 -14  11   29.40   20.30
  -4  14  11   55.29   23.00
  -4  14  11   40.00   20.20
  -3 -14  11   -8.40   20.30
  -3 -14  11   23.30   17.60
  -3  14  11   25.80   20.10
  -3  14  11   46.70   21.80
  -2 -14  11    6.90   22.00
  -2 -14  11   51.49   20.40
  -2  14  11   58.69   24.40
  -2  14  11   -8.30   16.50
  -1 -14  11   40.70   20.50
  -1 -14  11    1.30   20.20
  -1  14  11    9.10   19.10
  -1  14  11   52.89   23.10
   0 -14  11   16.70   23.80
   0 -14  11   38.80   21.00
   0  14  11   36.20   21.40
   0  14  11   21.30   23.20
  -6 -15  11  512.05   47.70
  -6 -15  11  468.95   39.20
  -6  15  11  404.46   40.20
  -6  15  11  442.76   44.60
  -5 -15  11   68.29   24.00
  -5 -15  11   39.60   19.10
  -5  15  11   20.70   20.70
  -5  15  11   52.19   24.80
  -4 -15  11  148.89   25.80
  -4 -15  11  107.99   27.00
  -4  15  11  115.09   26.00
  -4  15  11  157.88   28.20
  -3 -15  11 1233.78   60.69
  -3 -15  11 1242.68   69.19
  -3  15  11 1082.49   65.99
  -3  15  11 1239.28   67.49
  -2 -15  11   98.99   23.20
  -2 -15  11   80.19   24.80
  -2  15  11  110.19   26.50
  -2  15  11   58.19   22.90
  -1 -15  11  152.68   26.80
  -1 -15  11  114.69   27.80
  -1  15  11   79.49   24.20
  -1  15  11   98.29   27.70
   0 -15  11  757.02   55.69
   0  15  11  616.44   54.39
   0  15  11  721.13   54.29
  -6 -16  11   13.20   22.50
  -6 -16  11   69.69   21.00
  -6  16  11   93.29   26.90
  -6  16  11   59.99   23.70
  -5 -16  11  348.07   41.70
  -5 -16  11  201.28   29.20
  -5  16  11  315.27   41.60
  -5  16  11  240.08   35.80
  -4 -16  11  222.08   29.50
  -4 -16  11  227.38   34.50
  -4  16  11  150.48   29.70
  -4  16  11  216.08   36.20
  -3 -16  11   -6.40   20.00
  -3 -16  11   16.80   17.60
  -3  16  11   45.70   21.40
  -3  16  11   18.10   19.00
  -2 -16  11  352.16   41.70
  -2 -16  11  389.56   38.00
  -2  16  11  410.96   41.70
  -2  16  11  377.16   44.70
  -1 -16  11  159.08   28.20
  -1 -16  11  201.98   32.60
  -1  16  11  203.58   33.40
  -1  16  11  243.28   39.00
   0 -16  11   15.70   22.40
   0  16  11   25.60   21.80
   0  16  11   30.30   20.80
  -5 -17  11    2.80   17.80
  -5 -17  11    6.60   21.90
  -5  17  11   -3.10   22.40
  -5  17  11   10.20   16.80
  -4 -17  11  294.77   39.10
  -4 -17  11  248.18   30.00
  -4  17  11  194.58   35.00
  -4  17  11  234.48   35.10
  -3 -17  11  203.78   34.10
  -3 -17  11  170.28   28.10
  -3  17  11  161.38   32.10
  -3  17  11  209.18   33.90
  -2 -17  11   57.49   21.50
  -2 -17  11   72.29   25.90
  -2  17  11  117.59   27.80
  -2  17  11  153.68   31.30
  -1 -17  11   31.20   19.80
  -1 -17  11   20.70   22.30
  -1  17  11   85.99   27.00
  -1  17  11   38.50   18.90
   0 -17  11  150.58   30.00
   0  17  11   89.69   29.10
  -5 -18  11  814.92   57.89
  -5 -18  11  702.03   45.20
  -5  18  11  740.43   55.89
  -5  18  11  793.92   54.49
  -4 -18  11  336.77   40.60
  -4 -18  11  319.07   34.60
  -4  18  11  341.17   40.40
  -4  18  11  329.77   44.10
  -3 -18  11   17.70   21.40
  -3 -18  11   19.80   18.20
  -3  18  11   51.89   25.50
  -3  18  11   61.59   21.00
  -2 -18  11  560.24   43.10
  -2 -18  11  604.44   49.30
  -2  18  11  572.74   51.99
  -1 -18  11  559.84   49.50
  -1  18  11  548.25   49.00
  -1  18  11  481.65   48.30
  -5 -19  11   74.69   25.60
  -5 -19  11   69.39   21.80
  -5  19  11   74.99   24.50
  -4 -19  11  -12.60   18.00
  -4 -19  11   27.70   23.60
  -4  19  11   51.79   25.60
  -4  19  11   34.50   21.30
  -3 -19  11   19.60   18.00
  -3 -19  11   28.30   20.70
  -3  19  11   28.20   21.70
  -3  19  11   30.10   19.60
  -2 -19  11   23.80   18.40
  -2 -19  11   24.80   21.60
  -2  19  11    5.40   17.50
  -2  19  11   -3.90   19.90
  -1 -19  11   18.70   23.20
  -1  19  11    1.90   23.50
  -1  19  11   42.60   23.70
  -4 -20  11  212.38   32.60
  -4 -20  11  171.98   27.00
  -4  20  11  154.38   29.40
  -4  20  11  170.08   33.80
  -3 -20  11   -9.10   18.00
  -3 -20  11   -2.60   21.50
  -3  20  11    2.40   19.90
  -3  20  11   11.00   21.80
  -2 -20  11  259.17   38.30
  -2 -20  11  229.28   31.20
  -2  20  11  216.08   36.10
  -2  20  11  247.78   40.90
  -3 -21  11  564.34   42.10
  -3 -21  11  524.05   48.70
  -3  21  11  539.15   48.70
  -3  21  11  553.74   53.49
  -5   0  12  485.25   49.60
  -5   0  12  323.57   41.20
  -4   0  12  760.62   57.29
  -4   0  12  721.73   51.49
  -3   0  12   71.89   26.70
  -3   0  12   78.29   26.80
  -2   0  12  479.45   51.69
  -2   0  12  527.25   45.10
  -1   0  12  527.85   49.00
  -1   0  12  554.34   50.69
  -5  -1  12   47.60   20.90
  -5  -1  12   45.70   23.00
  -5   1  12    7.50   20.50
  -5   1  12   11.30   23.20
  -4  -1  12   -8.40   19.20
  -4  -1  12   24.10   22.20
  -4   1  12    4.80   20.10
  -4   1  12   25.00   23.30
  -3  -1  12   80.69   26.40
  -3  -1  12   90.19   25.00
  -3   1  12  120.29   26.80
  -3   1  12  116.79   31.40
  -2  -1  12  145.99   32.30
  -2  -1  12   91.69   28.10
  -2   1  12   63.79   26.40
  -2   1  12   47.80   24.40
  -1  -1  12  -14.30   23.90
  -1  -1  12   -7.70   18.50
  -1   1  12   34.80   23.20
  -1   1  12   15.00   20.10
  -5  -2  12  139.09   31.30
  -5  -2  12  175.78   32.40
  -5   2  12  122.19   30.80
  -5   2  12  187.58   36.30
  -4  -2  12  279.47   38.40
  -4  -2  12  221.38   38.30
  -4   2  12  237.08   36.40
  -4   2  12  217.88   37.50
  -3  -2  12   31.40   25.90
  -3  -2  12   36.10   21.80
  -3   2  12   76.29   25.20
  -3   2  12   28.80   25.00
  -2  -2  12   70.39   23.20
  -2  -2  12   80.19   26.20
  -2   2  12   65.49   27.30
  -2   2  12   39.20   22.50
  -1  -2  12  299.17   41.90
  -1  -2  12  187.18   34.00
  -1   2  12  202.18   38.00
  -1   2  12  211.98   35.10
  -5  -3  12  223.68   34.30
  -5  -3  12  179.48   37.20
  -5   3  12  147.39   31.00
  -5   3  12  137.99   30.00
  -4  -3  12   78.19   26.20
  -4  -3  12   76.29   24.30
  -4   3  12  102.39   24.90
  -4   3  12  119.89   30.70
  -3  -3  12  806.72   59.69
  -3   3  12  781.22   55.59
  -3   3  12  825.22   59.09
  -2  -3  12  240.48   34.70
  -2  -3  12  320.77   43.70
  -2   3  12  242.08   40.40
  -2   3  12  295.17   40.70
  -5  -4  12   -2.60   17.70
  -5  -4  12    2.10   21.40
  -5   4  12   33.50   20.90
  -5   4  12   22.30   21.20
  -4  -4  12   -2.60   18.60
  -4  -4  12   24.10   23.10
  -4   4  12   -4.80   21.30
  -4   4  12   19.20   22.20
  -3  -4  12   30.10   20.90
  -3  -4  12  -23.50   22.90
  -3   4  12    2.70   19.70
  -3   4  12   19.70   20.90
  -2  -4  12    8.30   23.40
  -2  -4  12  -19.60   21.00
  -2   4  12   -5.50   23.20
  -2   4  12   23.90   25.10
  -5  -5  12  174.48   35.50
  -5  -5  12  146.29   28.90
  -5   5  12  183.88   31.90
  -5   5  12  157.08   32.00
  -4  -5  12   48.60   23.00
  -4  -5  12   64.99   24.70
  -4   5  12   21.30   24.50
  -4   5  12   12.60   23.40
  -3  -5  12  526.35   49.30
  -3  -5  12  574.44   46.00
  -3   5  12  446.86   46.90
  -3   5  12  492.45   48.60
  -2  -5  12  195.08   33.60
  -2  -5  12  202.28   39.50
  -2   5  12  227.28   37.50
  -2   5  12  157.38   33.70
  -4  -6  12  322.57   43.80
  -4  -6  12  369.56   40.50
  -4   6  12  323.47   43.10
  -4   6  12  452.95   48.40
  -3  -6  12   33.70   26.50
  -3  -6  12   61.89   22.00
  -3   6  12   15.00   23.70
  -3   6  12   54.79   23.50
  -2  -6  12  121.29   29.10
  -2  -6  12  173.68   34.30
  -2   6  12  151.98   32.10
  -2   6  12  179.28   31.50
  -4  -7  12    8.60   20.50
  -4  -7  12   29.30   22.50
  -4   7  12    3.20   23.60
  -4   7  12   -5.50   22.60
  -3  -7  12   -0.40   18.40
  -3  -7  12   -5.00   20.40
  -3   7  12   17.00   21.90
  -3   7  12   20.70   23.50
  -2  -7  12   21.50   21.50
  -2  -7  12  -14.10   20.80
  -2   7  12   -1.40   19.60
  -2   7  12   -0.90   21.80
  -4  -8  12  466.05   50.79
  -4  -8  12  434.26   40.50
  -4   8  12  492.95   51.19
  -4   8  12  420.16   48.30
  -3  -8  12   43.50   20.70
  -3  -8  12   33.00   24.30
  -3   8  12   42.40   24.10
  -3   8  12    2.80   21.20
  -2  -8  12  225.78   40.10
  -2  -8  12  203.98   33.10
  -2   8  12  271.77   38.40
  -2   8  12  276.97   39.50
  -4  -9  12   59.99   27.00
  -4   9  12   43.00   26.00
  -3  -9  12  328.77   45.00
  -3  -9  12  292.47   38.30
  -3   9  12  319.87   43.00
  -3   9  12  296.17   42.30
   0   0   0    0.00    0.00

_computing_structure_solution     'SHELXT 2014/5 (Sheldrick, 2014)'
;
_shelx_hkl_checksum              74724
loop_
_space_group_symop_operation_xyz
'x, y, z'
'-x, y+1/2, -z+1/2'
'-x, -y, -z'
'x, -y-1/2, z-1/2'
loop_
_atom_site_label
_atom_site_type_symbol
_atom_site_fract_x
_atom_site_fract_y
_atom_site_fract_z
_atom_site_U_iso_or_equiv
_atom_site_adp_type
_atom_site_occupancy
_atom_site_site_symmetry_order
_atom_site_calc_flag
_atom_site_refinement_flags_posn
_atom_site_refinement_flags_adp
_atom_site_refinement_flags_occupancy
_atom_site_disorder_assembly
_atom_site_disorder_group
Tm1 Tm 0.84236(2) 0.57009(2) 0.31791(2) 0.01969(6) Uani 1 1 d . . . . .
O1 O 0.8580(4) 0.53175(8) 0.5426(3) 0.0285(7) Uani 1 1 d . . . . .
O2 O 0.9377(4) 0.58821(8) 0.5705(3) 0.0313(7) Uani 1 1 d . . . . .
O3 O 0.6847(4) 0.60581(8) 0.1145(3) 0.0337(7) Uani 1 1 d . . . . .
O4 O 1.0821(4) 0.53885(8) 0.3867(3) 0.0322(7) Uani 1 1 d . . . . .
O5 O 0.7660(4) 0.63289(8) 0.3307(3) 0.0349(7) Uani 1 1 d . . . . .
O6 O 0.5963(4) 0.56457(10) 0.3392(4) 0.0481(9) Uani 1 1 d . . . . .
O7 O 0.3673(5) 0.55341(17) 0.3714(7) 0.0921(18) Uani 1 1 d . . . . .
N1 N 0.7494(4) 0.51152(9) 1.1946(4) 0.0258(7) Uani 1 1 d . . . . .
N2 N 0.9101(4) 0.55849(9) 1.0786(4) 0.0210(7) Uani 1 1 d . . . . .
N3 N 1.0486(4) 0.60922(9) 1.2702(4) 0.0273(8) Uani 1 1 d . . . . .
N4 N 0.1979(5) 0.67401(11) -0.2229(4) 0.0371(9) Uani 1 1 d . . . . .
N5 N 0.4888(5) 0.73294(10) -0.0010(4) 0.0329(8) Uani 1 1 d . . . . .
N6 N 0.7662(5) 0.76972(12) 0.3183(5) 0.0427(10) Uani 1 1 d . . . . .
C1 C 0.8346(5) 0.53213(11) 0.9879(4) 0.0226(8) Uani 1 1 d . . . . .
C2 C 0.9053(5) 0.55915(11) 0.6226(4) 0.0251(9) Uani 1 1 d . . . . .
C3 C 0.6188(5) 0.66815(12) 0.1273(5) 0.0290(9) Uani 1 1 d . . . . .
C4 C 1.0742(5) 0.61108(11) 1.1364(4) 0.0245(8) Uani 1 1 d . . . . .
C5 C 0.7528(5) 0.50484(11) 1.0547(4) 0.0243(8) Uani 1 1 d . . . . .
C6 C 0.9914(5) 0.58379(11) 1.0272(4) 0.0222(8) Uani 1 1 d . . . . .
C7 C 0.6102(6) 0.44941(13) 1.0474(6) 0.0378(11) Uani 1 1 d . . . . .
C8 C 0.6936(5) 0.63331(12) 0.1960(5) 0.0289(9) Uani 1 1 d . . . . .
C9 C 0.4965(5) 0.66776(12) -0.0040(5) 0.0305(9) Uani 1 1 d . . . . .
C10 C 0.8337(5) 0.53079(11) 0.8387(4) 0.0247(9) Uani 1 1 d . . . . .
C11 C 0.6104(6) 0.45575(13) 1.1927(6) 0.0389(11) Uani 1 1 d . . . . .
C12 C 0.6761(6) 0.70088(12) 0.1934(5) 0.0337(10) Uani 1 1 d . . . . .
C13 C 0.6786(6) 0.48726(13) 1.2614(5) 0.0341(10) Uani 1 1 d . . . . .
C14 C 0.9130(5) 0.55746(11) 0.7851(4) 0.0238(8) Uani 1 1 d . . . . .
C15 C 0.0666(6) 0.67686(17) -0.3359(6) 0.0467(13) Uani 1 1 d . . . . .
C16 C 0.6830(5) 0.47414(12) 0.9773(5) 0.0316(10) Uani 1 1 d . . . . .
C17 C 0.4325(5) 0.70071(12) -0.0613(5) 0.0304(10) Uani 1 1 d . . . . .
C18 C 0.9954(5) 0.58415(11) 0.8802(4) 0.0247(8) Uani 1 1 d . . . . .
C19 C 0.6089(6) 0.73266(12) 0.1217(5) 0.0335(10) Uani 1 1 d . . . . .
C20 C 1.1261(6) 0.63213(14) 1.3772(6) 0.0410(12) Uani 1 1 d . . . . .
C21 C 1.1734(6) 0.63705(14) 1.1043(6) 0.0404(12) Uani 1 1 d . . . . .
C22 C 0.6670(6) 0.76901(13) 0.1826(6) 0.0361(10) Uani 1 1 d . . . . .
C23 C 0.2901(6) 0.70324(13) -0.1917(5) 0.0346(10) Uani 1 1 d . . . . .
C24 C 0.2623(7) 0.73520(15) -0.2733(6) 0.0514(14) Uani 1 1 d . . . . .
C25 C 0.4942(7) 0.56770(19) 0.3996(8) 0.0647(18) Uani 1 1 d . . . . .
C26 C 0.0237(7) 0.70718(19) -0.4217(6) 0.0564(15) Uani 1 1 d . . . . .
C27 C 0.8126(7) 0.80242(16) 0.3784(7) 0.0518(14) Uani 1 1 d . . . . .
C28 C 0.6647(8) 0.83355(16) 0.1618(8) 0.0611(17) Uani 1 1 d . . . . .
C29 C 0.7635(7) 0.83465(16) 0.3054(8) 0.0566(16) Uani 1 1 d . . . . .
C30 C 0.1228(8) 0.73686(19) -0.3921(7) 0.0634(18) Uani 1 1 d . . . . .
C31 C 1.2267(7) 0.65855(16) 1.3526(6) 0.0516(15) Uani 1 1 d . . . . .
C32 C 1.2481(7) 0.66157(15) 1.2136(6) 0.0505(14) Uani 1 1 d . . . . .
C33 C 0.6144(7) 0.79996(14) 0.0982(7) 0.0516(14) Uani 1 1 d . . . . .
loop_
_atom_site_aniso_label
_atom_site_aniso_U_11
_atom_site_aniso_U_22
_atom_site_aniso_U_33
_atom_site_aniso_U_23
_atom_site_aniso_U_13
_atom_site_aniso_U_12
Tm1 0.02120(9) 0.02303(9) 0.01525(9) 0.00171(7) 0.00578(6) -0.00089(7)
O1 0.0404(18) 0.0285(15) 0.0177(14) -0.0026(12) 0.0102(13) -0.0033(13)
O2 0.048(2) 0.0296(16) 0.0170(14) 0.0019(12) 0.0099(14) -0.0047(14)
O3 0.0392(19) 0.0297(16) 0.0298(17) 0.0026(13) 0.0056(14) 0.0067(14)
O4 0.0251(16) 0.0344(17) 0.0376(18) 0.0084(14) 0.0096(14) 0.0038(13)
O5 0.0399(19) 0.0329(17) 0.0285(17) 0.0032(13) 0.0041(15) 0.0072(14)
O6 0.0311(19) 0.056(2) 0.065(3) 0.0085(19) 0.0264(18) 0.0002(16)
O7 0.043(3) 0.129(5) 0.120(4) -0.014(4) 0.048(3) -0.022(3)
N1 0.0276(19) 0.0320(19) 0.0182(17) 0.0012(14) 0.0068(15) -0.0064(15)
N2 0.0230(17) 0.0235(16) 0.0171(16) 0.0011(13) 0.0067(14) -0.0009(13)
N3 0.032(2) 0.0288(19) 0.0231(18) -0.0041(14) 0.0107(16) -0.0072(15)
N4 0.033(2) 0.048(2) 0.029(2) 0.0007(18) 0.0067(18) 0.0000(18)
N5 0.033(2) 0.030(2) 0.035(2) 0.0040(16) 0.0070(18) 0.0037(16)
N6 0.044(3) 0.042(2) 0.040(2) -0.0033(19) 0.008(2) 0.000(2)
C1 0.025(2) 0.024(2) 0.0176(19) 0.0021(15) 0.0041(16) 0.0028(16)
C2 0.031(2) 0.030(2) 0.0159(19) 0.0027(16) 0.0093(17) 0.0025(17)
C3 0.030(2) 0.029(2) 0.031(2) 0.0078(18) 0.0121(19) 0.0055(18)
C4 0.028(2) 0.026(2) 0.021(2) 0.0005(16) 0.0095(18) -0.0024(17)
C5 0.025(2) 0.029(2) 0.020(2) -0.0003(16) 0.0060(17) 0.0010(16)
C6 0.024(2) 0.025(2) 0.0175(19) 0.0002(15) 0.0066(16) 0.0005(16)
C7 0.039(3) 0.031(2) 0.041(3) 0.001(2) 0.005(2) -0.007(2)
C8 0.025(2) 0.032(2) 0.029(2) 0.0061(18) 0.0072(19) 0.0037(17)
C9 0.027(2) 0.035(2) 0.030(2) 0.0043(18) 0.0067(19) 0.0036(18)
C10 0.030(2) 0.027(2) 0.018(2) 0.0016(15) 0.0090(17) 0.0026(17)
C11 0.039(3) 0.035(3) 0.042(3) 0.008(2) 0.010(2) -0.011(2)
C12 0.037(3) 0.032(2) 0.031(2) 0.0037(19) 0.008(2) 0.0071(19)
C13 0.033(3) 0.039(3) 0.029(2) 0.0058(19) 0.007(2) -0.011(2)
C14 0.030(2) 0.028(2) 0.0136(18) -0.0001(15) 0.0069(17) 0.0040(17)
C15 0.037(3) 0.071(4) 0.032(3) -0.006(3) 0.009(2) 0.001(3)
C16 0.033(2) 0.032(2) 0.029(2) -0.0009(18) 0.007(2) -0.0042(19)
C17 0.032(2) 0.033(2) 0.024(2) 0.0036(17) 0.0038(19) 0.0044(18)
C18 0.028(2) 0.027(2) 0.020(2) 0.0048(16) 0.0084(17) 0.0005(17)
C19 0.033(3) 0.033(2) 0.032(2) -0.0004(19) 0.006(2) 0.0016(19)
C20 0.043(3) 0.046(3) 0.036(3) -0.015(2) 0.015(2) -0.020(2)
C21 0.046(3) 0.043(3) 0.039(3) -0.007(2) 0.023(2) -0.018(2)
C22 0.037(3) 0.031(2) 0.042(3) -0.001(2) 0.013(2) 0.001(2)
C23 0.033(2) 0.038(3) 0.031(2) 0.0051(19) 0.007(2) 0.005(2)
C24 0.051(3) 0.050(3) 0.045(3) 0.015(3) -0.001(3) 0.008(3)
C25 0.046(4) 0.085(5) 0.073(4) -0.022(4) 0.032(3) -0.013(3)
C26 0.046(3) 0.081(4) 0.035(3) -0.004(3) -0.001(3) 0.008(3)
C27 0.051(3) 0.051(3) 0.055(4) -0.015(3) 0.018(3) -0.012(3)
C28 0.059(4) 0.037(3) 0.084(5) 0.000(3) 0.014(4) -0.003(3)
C29 0.052(4) 0.049(3) 0.073(4) -0.014(3) 0.024(3) -0.011(3)
C30 0.059(4) 0.071(4) 0.048(4) 0.016(3) -0.006(3) 0.020(3)
C31 0.057(4) 0.061(4) 0.045(3) -0.026(3) 0.028(3) -0.034(3)
C32 0.058(4) 0.049(3) 0.051(3) -0.015(3) 0.027(3) -0.027(3)
C33 0.049(3) 0.034(3) 0.065(4) 0.005(3) 0.006(3) 0.002(2)
loop_
_atom_type_symbol
_atom_type_description
_atom_type_scat_dispersion_real
_atom_type_scat_dispersion_imag
_atom_type_scat_source
C C 0.0033 0.0016 'International Tables Vol C Tables 4.2.6.8 and 6.1.1.4'
N N 0.0061 0.0033 'International Tables Vol C Tables 4.2.6.8 and 6.1.1.4'
O O 0.0106 0.0060 'International Tables Vol C Tables 4.2.6.8 and 6.1.1.4'
Tm Tm -0.3139 5.2483 'International Tables Vol C Tables 4.2.6.8 and 6.1.1.4'
loop_
_geom_angle_atom_site_label_1
_geom_angle_atom_site_label_2
_geom_angle_atom_site_label_3
_geom_angle
_geom_angle_site_symmetry_1
_geom_angle_site_symmetry_3
_geom_angle_publ_flag
O6 Tm1 O4 138.96(12) . . ?
O6 Tm1 O2 91.00(13) . . ?
O4 Tm1 O2 79.77(11) . . ?
O6 Tm1 O3 76.27(13) . . ?
O4 Tm1 O3 139.87(11) . . ?
O2 Tm1 O3 126.89(10) . . ?
O6 Tm1 O5 78.05(12) . . ?
O4 Tm1 O5 134.45(11) . . ?
O2 Tm1 O5 73.02(10) . . ?
O3 Tm1 O5 53.98(10) . . ?
O6 Tm1 N3 148.49(13) . 1_554 ?
O4 Tm1 N3 71.41(12) . 1_554 ?
O2 Tm1 N3 86.77(11) . 1_554 ?
O3 Tm1 N3 80.06(12) . 1_554 ?
O5 Tm1 N3 71.24(12) . 1_554 ?
O6 Tm1 N1 76.16(13) . 1_554 ?
O4 Tm1 N1 81.68(12) . 1_554 ?
O2 Tm1 N1 133.53(10) . 1_554 ?
O3 Tm1 N1 93.62(11) . 1_554 ?
O5 Tm1 N1 142.66(12) . 1_554 ?
N3 Tm1 N1 126.22(11) 1_554 1_554 ?
O6 Tm1 O1 72.63(12) . . ?
O4 Tm1 O1 69.93(10) . . ?
O2 Tm1 O1 53.08(9) . . ?
O3 Tm1 O1 148.87(11) . . ?
O5 Tm1 O1 116.53(10) . . ?
N3 Tm1 O1 127.84(11) 1_554 . ?
N1 Tm1 O1 80.56(10) 1_554 . ?
O6 Tm1 N2 122.72(13) . 1_554 ?
O4 Tm1 N2 75.00(11) . 1_554 ?
O2 Tm1 N2 146.26(11) . 1_554 ?
O3 Tm1 N2 67.30(11) . 1_554 ?
O5 Tm1 N2 110.18(10) . 1_554 ?
N3 Tm1 N2 64.23(11) 1_554 1_554 ?
N1 Tm1 N2 64.21(11) 1_554 1_554 ?
O1 Tm1 N2 133.11(10) . 1_554 ?
O6 Tm1 C8 75.78(13) . . ?
O4 Tm1 C8 145.06(12) . . ?
O2 Tm1 C8 99.84(12) . . ?
O3 Tm1 C8 27.12(12) . . ?
O5 Tm1 C8 26.86(12) . . ?
N3 Tm1 C8 73.67(13) 1_554 . ?
N1 Tm1 C8 118.99(13) 1_554 . ?
O1 Tm1 C8 137.03(11) . . ?
N2 Tm1 C8 88.67(12) 1_554 . ?
O6 Tm1 C2 79.36(14) . . ?
O4 Tm1 C2 74.90(12) . . ?
O2 Tm1 C2 26.37(11) . . ?
O3 Tm1 C2 142.78(11) . . ?
O5 Tm1 C2 93.75(11) . . ?
N3 Tm1 C2 109.07(12) 1_554 . ?
N1 Tm1 C2 107.38(12) 1_554 . ?
O1 Tm1 C2 26.82(10) . . ?
N2 Tm1 C2 149.64(12) 1_554 . ?
C8 Tm1 C2 118.88(13) . . ?
C2 O1 Tm1 89.0(2) . . ?
C2 O2 Tm1 95.4(2) . . ?
C8 O3 Tm1 91.9(3) . . ?
C8 O5 Tm1 91.8(3) . . ?
C25 O6 Tm1 155.3(4) . . ?
C5 N1 C13 118.3(4) . . ?
C5 N1 Tm1 121.4(3) . 1_556 ?
C13 N1 Tm1 119.9(3) . 1_556 ?
C1 N2 C6 119.6(3) . . ?
C1 N2 Tm1 119.4(3) . 1_556 ?
C6 N2 Tm1 119.1(3) . 1_556 ?
C20 N3 C4 119.0(4) . . ?
C20 N3 Tm1 118.7(3) . 1_556 ?
C4 N3 Tm1 121.9(3) . 1_556 ?
C15 N4 C23 116.8(4) . . ?
C19 N5 C17 117.9(4) . . ?
C22 N6 C27 117.5(5) . . ?
N2 C1 C10 121.7(4) . . ?
N2 C1 C5 116.0(3) . . ?
C10 C1 C5 122.3(4) . . ?
O2 C2 O1 122.0(4) . . ?
O2 C2 C14 118.9(4) . . ?
O1 C2 C14 119.0(4) . . ?
O2 C2 Tm1 58.2(2) . . ?
O1 C2 Tm1 64.2(2) . . ?
C14 C2 Tm1 169.5(3) . . ?
C12 C3 C9 120.0(4) . . ?
C12 C3 C8 119.3(4) . . ?
C9 C3 C8 120.6(4) . . ?
N3 C4 C21 121.4(4) . . ?
N3 C4 C6 115.9(3) . . ?
C21 C4 C6 122.7(4) . . ?
N1 C5 C16 122.1(4) . . ?
N1 C5 C1 115.9(4) . . ?
C16 C5 C1 122.0(4) . . ?
N2 C6 C18 121.8(4) . . ?
N2 C6 C4 115.6(3) . . ?
C18 C6 C4 122.6(4) . . ?
C16 C7 C11 119.0(4) . . ?
O5 C8 O3 122.2(4) . . ?
O5 C8 C3 119.0(4) . . ?
O3 C8 C3 118.7(4) . . ?
O5 C8 Tm1 61.3(2) . . ?
O3 C8 Tm1 61.0(2) . . ?
C3 C8 Tm1 177.5(3) . . ?
C17 C9 C3 117.8(4) . . ?
C14 C10 C1 118.6(4) . . ?
C13 C11 C7 118.9(4) . . ?
C3 C12 C19 117.5(4) . . ?
N1 C13 C11 122.7(4) . . ?
C10 C14 C18 119.7(4) . . ?
C10 C14 C2 120.9(4) . . ?
C18 C14 C2 119.2(4) . . ?
N4 C15 C26 124.5(5) . . ?
C7 C16 C5 118.9(4) . . ?
N5 C17 C9 123.2(4) . . ?
N5 C17 C23 114.6(4) . . ?
C9 C17 C23 122.2(4) . . ?
C14 C18 C6 118.5(4) . . ?
N5 C19 C12 123.5(4) . . ?
N5 C19 C22 115.5(4) . . ?
C12 C19 C22 121.0(4) . . ?
N3 C20 C31 122.4(4) . . ?
C4 C21 C32 119.1(4) . . ?
N6 C22 C33 123.7(5) . . ?
N6 C22 C19 116.7(4) . . ?
C33 C22 C19 119.6(5) . . ?
N4 C23 C24 124.2(5) . . ?
N4 C23 C17 116.9(4) . . ?
C24 C23 C17 119.0(5) . . ?
C23 C24 C30 117.0(6) . . ?
O7 C25 O6 129.3(7) . . ?
C15 C26 C30 118.3(5) . . ?
C29 C27 N6 123.1(6) . . ?
C33 C28 C29 118.8(6) . . ?
C27 C29 C28 118.9(5) . . ?
C26 C30 C24 119.2(6) . . ?
C20 C31 C32 118.8(5) . . ?
C21 C32 C31 119.2(5) . . ?
C28 C33 C22 118.0(6) . . ?
loop_
_geom_bond_atom_site_label_1
_geom_bond_atom_site_label_2
_geom_bond_distance
_geom_bond_site_symmetry_2
_geom_bond_publ_flag
Tm1 O6 2.250(3) . ?
Tm1 O4 2.341(3) . ?
Tm1 O2 2.388(3) . ?
Tm1 O3 2.423(3) . ?
Tm1 O5 2.431(3) . ?
Tm1 N3 2.466(3) 1_554 ?
Tm1 N1 2.486(3) 1_554 ?
Tm1 O1 2.519(3) . ?
Tm1 N2 2.526(3) 1_554 ?
Tm1 C8 2.770(4) . ?
Tm1 C2 2.797(4) . ?
O1 C2 1.262(5) . ?
O2 C2 1.248(5) . ?
O3 C8 1.263(5) . ?
O5 C8 1.252(5) . ?
O6 C25 1.200(7) . ?
O7 C25 1.201(7) . ?
N1 C5 1.350(5) . ?
N1 C13 1.346(5) . ?
N1 Tm1 2.486(3) 1_556 ?
N2 C1 1.344(5) . ?
N2 C6 1.350(5) . ?
N2 Tm1 2.526(3) 1_556 ?
N3 C20 1.348(6) . ?
N3 C4 1.344(5) . ?
N3 Tm1 2.466(3) 1_556 ?
N4 C15 1.343(7) . ?
N4 C23 1.336(6) . ?
N5 C19 1.334(6) . ?
N5 C17 1.354(6) . ?
N6 C22 1.334(6) . ?
N6 C27 1.350(7) . ?
C1 C10 1.404(5) . ?
C1 C5 1.481(6) . ?
C2 C14 1.514(5) . ?
C3 C12 1.390(6) . ?
C3 C9 1.397(6) . ?
C3 C8 1.509(6) . ?
C4 C21 1.389(6) . ?
C4 C6 1.481(6) . ?
C5 C16 1.396(6) . ?
C6 C18 1.395(5) . ?
C7 C16 1.387(6) . ?
C7 C11 1.388(7) . ?
C9 C17 1.388(6) . ?
C10 C14 1.385(6) . ?
C11 C13 1.386(7) . ?
C12 C19 1.402(6) . ?
C14 C18 1.395(6) . ?
C15 C26 1.372(8) . ?
C17 C23 1.496(6) . ?
C19 C22 1.495(6) . ?
C20 C31 1.384(7) . ?
C21 C32 1.392(7) . ?
C22 C33 1.397(7) . ?
C23 C24 1.393(7) . ?
C24 C30 1.416(8) . ?
C26 C30 1.383(9) . ?
C27 C29 1.384(9) . ?
C28 C33 1.397(8) . ?
C28 C29 1.391(9) . ?
C31 C32 1.378(7) . ?
