#------------------------------------------------------------------------------
#$Date: 2020-11-12 00:14:46 +0200 (Thu, 12 Nov 2020) $
#$Revision: 259091 $
#$URL: file:///home/coder/svn-repositories/cod/cif/4/51/82/4518226.cif $
#------------------------------------------------------------------------------
#
# This file is available in the Crystallography Open Database (COD),
# http://www.crystallography.net/
#
# All data on this site have been placed in the public domain by the
# contributors.
#
data_4518226
loop_
_publ_author_name
'Weng, Yi-Gang'
'Yin, Wen-Yu'
'Jiang, Miao'
'Hou, Jin-Le'
'Shao, Jie'
'Zhu, Qin-Yu'
'Dai, Jie'
_publ_section_title
;
 Tetrathiafulvalene-Based Metal-Organic Framework as a High-Performance
 Anode for Lithium-Ion Batteries.
;
_journal_name_full               'ACS applied materials &amp; interfaces'
_journal_paper_doi               10.1021/acsami.0c14510
_journal_year                    2020
_chemical_formula_sum            'C16 H9 N O4 S2 Zn'
_chemical_formula_weight         408.73
_space_group_crystal_system      monoclinic
_space_group_IT_number           13
_space_group_name_Hall           '-P 2yac'
_space_group_name_H-M_alt        'P 1 2/n 1'
_atom_sites_solution_hydrogens   geom
_audit_creation_method           SHELXL-2016/6
_cell_angle_alpha                90
_cell_angle_beta                 99.78(3)
_cell_angle_gamma                90
_cell_formula_units_Z            4
_cell_length_a                   10.951(2)
_cell_length_b                   10.931(2)
_cell_length_c                   21.238(4)
_cell_measurement_reflns_used    3629
_cell_measurement_temperature    223(2)
_cell_measurement_theta_max      26.3
_cell_measurement_theta_min      3.1
_cell_volume                     2505.4(8)
_computing_structure_refinement  'SHELXL-2016/6 (Sheldrick, 2016)'
_diffrn_ambient_temperature      223(2)
_diffrn_measured_fraction_theta_full 0.998
_diffrn_measured_fraction_theta_max 0.998
_diffrn_measurement_device_type  'Xcalibur, Atlas, Gemini'
_diffrn_radiation_type           MoK\a
_diffrn_radiation_wavelength     0.71073
_diffrn_reflns_av_R_equivalents  0.0527
_diffrn_reflns_av_unetI/netI     0.0610
_diffrn_reflns_Laue_measured_fraction_full 0.998
_diffrn_reflns_Laue_measured_fraction_max 0.998
_diffrn_reflns_limit_h_max       12
_diffrn_reflns_limit_h_min       -13
_diffrn_reflns_limit_k_max       12
_diffrn_reflns_limit_k_min       -12
_diffrn_reflns_limit_l_max       24
_diffrn_reflns_limit_l_min       -25
_diffrn_reflns_number            12663
_diffrn_reflns_point_group_measured_fraction_full 0.998
_diffrn_reflns_point_group_measured_fraction_max 0.998
_diffrn_reflns_theta_full        24.998
_diffrn_reflns_theta_max         24.998
_diffrn_reflns_theta_min         2.934
_exptl_absorpt_coefficient_mu    1.160
_exptl_absorpt_correction_T_max  1.00000
_exptl_absorpt_correction_T_min  0.83165
_exptl_absorpt_correction_type   multi-scan
_exptl_crystal_colour            'clear dark red'
_exptl_crystal_density_diffrn    1.084
_exptl_crystal_description       block
_exptl_crystal_F_000             824
_exptl_crystal_size_max          0.260
_exptl_crystal_size_mid          0.150
_exptl_crystal_size_min          0.120
_refine_diff_density_max         0.456
_refine_diff_density_min         -0.359
_refine_diff_density_rms         0.066
_refine_ls_extinction_method     none
_refine_ls_goodness_of_fit_ref   1.118
_refine_ls_hydrogen_treatment    constr
_refine_ls_matrix_type           full
_refine_ls_number_parameters     238
_refine_ls_number_reflns         4391
_refine_ls_number_restraints     0
_refine_ls_restrained_S_all      1.118
_refine_ls_R_factor_all          0.0586
_refine_ls_R_factor_gt           0.0442
_refine_ls_shift/su_max          0.001
_refine_ls_shift/su_mean         0.000
_refine_ls_structure_factor_coef Fsqd
_refine_ls_weighting_details
'w=1/[\s^2^(Fo^2^)+(0.0400P)^2^] where P=(Fo^2^+2Fc^2^)/3'
_refine_ls_weighting_scheme      calc
_refine_ls_wR_factor_gt          0.1047
_refine_ls_wR_factor_ref         0.1119
_reflns_Friedel_coverage         0.000
_reflns_number_gt                3456
_reflns_number_total             4391
_reflns_threshold_expression     'I > 2\s(I)'
_cod_data_source_file            am0c14510_si_003.cif
_cod_data_source_block           2
_cod_original_cell_volume        2505.4(9)
_cod_original_sg_symbol_H-M      'P 2/n'
_cod_database_code               4518226
_shelx_shelxl_version_number     2016/6
_shelx_space_group_comment
;
The symmetry employed for this shelxl refinement is uniquely defined
by the following loop, which should always be used as a source of
symmetry information in preference to the above space-group names.
They are only intended as comments.
;
_shelx_estimated_absorpt_t_min   0.753
_shelx_estimated_absorpt_t_max   0.873
_shelx_res_file
;
TITL shelxl in P2/n
    l.res
    created by SHELXL-2016/6 at 08:10:12 on 15-Sep-2017
CELL 0.71073  10.9510  10.9309  21.2383  90.000  99.776  90.000
ZERR    4.00   0.0022   0.0022   0.0042   0.000   0.030   0.000
LATT  1
SYMM 0.5-X, Y, 0.5-Z
SFAC C H N O S ZN
UNIT 64 36 4 16 8 4

L.S. 50
ACTA
SIZE 0.120 0.150 0.260
omit -3 50
CONF
BOND
FMAP 2
PLAN 30
ABIN
WGHT    0.040000
FVAR       2.17457   0.62940
ZN1   6    0.226085    0.598719    0.679915    11.00000    0.02496    0.02790 =
         0.03262    0.00026    0.00650   -0.00038
S1    5    0.294405    0.737516    0.354444    11.00000    0.04735    0.10441 =
         0.03385   -0.00244    0.00334   -0.01625
S2    5    0.057196    0.737585    0.265275    11.00000    0.04456    0.09919 =
         0.03690    0.00281    0.00248    0.00388
O1    4    0.233879    0.781448    0.696856    11.00000    0.06723    0.02705 =
         0.07037   -0.00222    0.01283   -0.00173
O2    4    0.226921    0.415084    0.696498    11.00000    0.05138    0.02520 =
         0.07629    0.00798    0.00609    0.00208
O3    4    0.046871    0.599765    0.694241    11.00000    0.02467    0.05898 =
         0.05743    0.00300    0.01478    0.00146
O4    4    0.414703    0.594142    0.699650    11.00000    0.01887    0.06335 =
         0.05835    0.00310    0.00578    0.00093
N1    3    0.200991    0.612462    0.583433    11.00000    0.03548    0.05912 =
         0.03728    0.00328    0.00775    0.00095
C1    1    0.161551    0.696206    0.384820    11.00000    0.04567    0.07248 =
         0.03479   -0.00269    0.00628   -0.00543
C2    1    0.055581    0.696283    0.343306    11.00000    0.04411    0.08083 =
         0.04187    0.00051    0.00761    0.00171
AFIX  43
H2    2   -0.018284    0.674295    0.356349    11.00000   -1.20000
AFIX   0
C3    1    0.220373    0.738057    0.274884    11.00000    0.04770    0.05399 =
         0.03250    0.00253    0.00286    0.00140
part 1
C4    1    0.286920    0.584305    0.550725    21.00000    0.06234    0.17376 =
         0.05035    0.01878    0.02020    0.05165
AFIX  43
H4'   2    0.357000    0.543299    0.571142    21.00000   -1.20000
AFIX   0

C5    1    0.278192    0.613306    0.485823    21.00000    0.05721    0.15566 =
         0.05299    0.01614    0.02628    0.03630
AFIX  43
H5'   2    0.344562    0.596837    0.465021    21.00000   -1.20000
AFIX   0
part 2
C4'   1    0.290069    0.677006    0.558879   -21.00000    0.05024    0.12509 =
         0.03678    0.01179   -0.00362   -0.03709
AFIX  43
H4    2    0.359695    0.703941    0.586737   -21.00000   -1.20000
AFIX   0
C5'   1    0.280554    0.703345    0.495009   -21.00000    0.06552    0.11038 =
         0.03436    0.00990    0.01113   -0.02962
AFIX  43
H5    2    0.343348    0.745503    0.479805   -21.00000   -1.20000
AFIX   0
part 0
C6    1    0.173780    0.665212    0.453020    11.00000    0.04178    0.07039 =
         0.03816    0.00019    0.00362   -0.00403
C7    1    0.080473    0.659987    0.484498    11.00000    0.05095    0.26290 =
         0.04979    0.03849    0.00335    0.00829
AFIX  43
H7    2    0.000765    0.674812    0.462728    11.00000   -1.20000
AFIX   0
C8    1    0.097015    0.633397    0.548333    11.00000    0.04504    0.24277 =
         0.05257    0.03751    0.01030    0.00007
AFIX  43
H8    2    0.026799    0.630407    0.567524    11.00000   -1.20000
AFIX   0
C9    1    0.250000    0.971126    0.750000    10.50000    0.03157    0.02699 =
         0.07438    0.00000    0.00794    0.00000
C10   1    0.244095    1.034070    0.693225    11.00000    0.06987    0.03881 =
         0.05582    0.00294    0.01499    0.00481
AFIX  43
H10   2    0.239952    0.991878    0.654896    11.00000   -1.20000
AFIX   0
C11   1    0.244405    0.160104    0.693969    11.00000    0.06594    0.02428 =
         0.06372    0.01427    0.00999    0.00564
AFIX  43
H11   2    0.240740    0.202136    0.655622    11.00000   -1.20000
AFIX   0
C12   1    0.250000    0.226135    0.750000    10.50000    0.03568    0.02616 =
         0.05764    0.00000    0.00892    0.00000
C13   1    0.250000    0.833088    0.750000    10.50000    0.03600    0.02747 =
         0.06844    0.00000    0.01239    0.00000
C14   1    0.250000    0.363036    0.750000    10.50000    0.02374    0.02777 =
         0.07552    0.00000    0.00793    0.00000
C15   1   -0.123396    0.594216    0.748802    11.00000    0.02110    0.03977 =
         0.05324   -0.00077    0.00834    0.00128
C16   1   -0.166570    0.594016    0.806089    11.00000    0.02581    0.06792 =
         0.04550    0.00452    0.00422   -0.00272
AFIX  43
H16   2   -0.110468    0.593657    0.844239    11.00000   -1.20000
AFIX   0
C17   1   -0.207345    0.594348    0.692498    11.00000    0.02864    0.06818 =
         0.04378   -0.00123    0.01265   -0.00016
AFIX  43
H17   2   -0.179335    0.594661    0.653540    11.00000   -1.20000
AFIX   0
C18   1    0.014709    0.596419    0.747687    11.00000    0.02425    0.03559 =
         0.05532   -0.00350    0.01085    0.00356

HKLF 4




REM  shelxl in P2/n
REM R1 =  0.0442 for    3456 Fo > 4sig(Fo)  and  0.0586 for all    4391 data
REM    238 parameters refined using      0 restraints

END

WGHT      0.0403      0.7033

REM Highest difference peak  0.456,  deepest hole -0.359,  1-sigma level  0.066
Q1    1   0.1184  0.5927  0.4711  11.00000  0.05    0.46
Q2    1   0.1997  0.5924  0.6316  11.00000  0.05    0.45
Q3    1   0.1767  0.5927  0.5444  11.00000  0.05    0.40
Q4    1   0.3328  0.5889  0.6934  11.00000  0.05    0.33
Q5    1   0.1330  0.7218  0.4833  11.00000  0.05    0.31
Q6    1   0.2405  0.6037  0.7214  11.00000  0.05    0.31
Q7    1   0.1446  0.6925  0.5588  11.00000  0.05    0.30
Q8    1   0.2027  0.4640  0.7045  11.00000  0.05    0.28
Q9    1   0.0691  0.7055  0.1897  11.00000  0.05    0.26
Q10   1   0.3976  0.7225  0.3723  11.00000  0.05    0.26
Q11   1   0.1793  0.5638  0.7264  11.00000  0.05    0.25
Q12   1   0.1421  0.7745  0.2839  11.00000  0.05    0.25
Q13   1   0.2211  0.6944  0.3710  11.00000  0.05    0.25
Q14   1   0.1573  0.7025  0.2740  11.00000  0.05    0.25
Q15   1   0.3917  0.6489  0.4730  11.00000  0.05    0.24
Q16   1   0.2368  0.7226  0.3080  11.00000  0.05    0.24
Q17   1   0.1531  0.7945  0.2729  11.00000  0.05    0.24
Q18   1   0.3726  0.1056  0.6867  11.00000  0.05    0.24
Q19   1  -0.0544  0.6295  0.7521  11.00000  0.05    0.23
Q20   1   0.1381  0.6358  0.6838  11.00000  0.05    0.23
Q21   1  -0.0587  0.5062  0.7371  11.00000  0.05    0.23
Q22   1   0.0908  0.6553  0.7136  11.00000  0.05    0.22
Q23   1   0.1237  0.7032  0.2442  11.00000  0.05    0.22
Q24   1  -0.1931  0.4710  0.8449  11.00000  0.05    0.22
Q25   1  -0.0005  0.7176  0.5341  11.00000  0.05    0.21
Q26   1   0.0441  0.5799  0.6655  11.00000  0.05    0.21
Q27   1   0.3048  0.4951  0.7037  11.00000  0.05    0.21
Q28   1   0.1633  0.7289  0.4216  11.00000  0.05    0.21
Q29   1   0.2173  0.4009  0.7722  11.00000  0.05    0.21
Q30   1   0.2045  0.7365  0.7016  11.00000  0.05    0.21
;
_shelx_res_checksum              52644
_shelx_hkl_file
;
   0   0   3 54.9826 34.9505   1
   0   0   4 111146. 1200.11   1
   0   0  -4 109701. 1469.75   2
   0   0  -5-4.73310 64.1332   2
   0   0   5-25.9861 16.9676   1
   0   0   6 55182.1 1008.26   1
   0   0  -6 52408.9 991.713   1
   0   0  -6 56197.4 1255.34   2
   0   0  -7 384.697 166.544   2
   0   0  -7 221.286 88.2343   1
   0   0   7 135.605 111.086   1
   0   0  -8 55629.4 1290.53   4
   0   0   8 54798.9 1160.90   1
   0   0  -8 53004.9 1412.94   2
   0   0   9 663.637 214.154   1
   0   0  -9 831.210 314.968   2
   0   0 -10 92.3165 44.1030   2
   0   0 -10 149.433 85.3274   4
   0   0  10 374.869 113.166   1
   0   0 -11 60.2470 86.0103   2
   0   0 -11 101.070 99.2418   4
   0   0  11 74.8205 26.6440   1
   0   0  12 5517.79 450.568   1
   0   0 -12 5209.81 550.708   2
   0   0 -12 5390.34 490.190   4
   0   0  13 279.651 134.712   1
   0   0 -13 161.706 156.692   4
   0   0 -13 229.065 167.490   2
   0   0 -14 17364.1 1091.45   2
   0   0 -14 17709.4 971.638   4
   0   0 -15 1833.93 457.035   2
   0   0 -16 18938.0 1230.18   2
   0   0 -17 875.022 312.330   2
   0   0 -18 6608.84 765.591   2
   0   0 -19 286.276 168.125   2
   0   0  19 133.886 67.8206   5
   0   0 -20 134.350 98.6381   2
   0   0 -21-64.3798 122.806   2
   0   0 -22 4056.00 669.799   2
   0   0 -23 254.649 192.745   2
   0   0 -24 3475.92 681.676   2
   0   0 -25 794.159 351.650   2
   0   0 -26 392.192 257.823   2
   0   0 -27-243.277 201.565   2
   0   0 -28-46.9695 177.982   2
   0  -1  -3 238.439 63.0335   2
   0   1  -3 295.417 75.2169   2
   0   1   3 336.935 82.0885   4
   0  -1  -4 5447.57 331.805   2
   0   1   4 4721.52 313.453   4
   0   1  -4 5498.80 329.834   2
   0   1  -5 141.909 68.8411   2
   0  -1  -5 176.174 73.9639   2
   0   1   5 38.6453 49.4535   4
   0   1   6 22246.2 800.379   4
   0   1  -6 22330.8 654.792   1
   0  -1  -6 23377.9 825.050   2
   0   1  -6 23198.1 810.894   2
   0   1  -7 38803.8 928.088   1
   0   1  -7 41064.8 953.374   4
   0   1  -7 40465.3 1167.40   2
   0  -1  -7 39389.2 1151.05   2
   0   1   7 37393.1 1120.44   4
   0   1  -8 51762.6 1141.70   4
   0   1   8 49523.5 671.296   5
   0   1   8 50321.3 1363.75   4
   0   1  -8 49732.2 1394.72   2
   0  -1  -8 49694.9 1370.79   2
   0   1  -8 47737.0 1098.18   1
   0   1   8 47342.1 1140.14   1
   0   1   9 104503. 1784.78   1
   0   1  -9 107812. 1811.91   4
   0   1  -9 107919. 2156.78   2
   0   1   9 103565. 1092.89   5
   0   1  -9 100226. 1708.53   1
   0  -1  -9 102545. 2127.86   2
   0   1   9 104310. 2072.77   4
   0   1 -10 5079.48 407.606   4
   0  -1 -10 4471.34 463.926   2
   0   1 -10 4685.45 486.039   2
   0   1  10 4514.65 444.467   4
   0   1 -10 4445.80 367.337   1
   0   1  10 4577.85 233.532   5
   0   1  10 5347.35 411.160   1
   0  -1 -11 1238.39 267.592   2
   0   1  11 1679.11 149.701   5
   0   1 -11 1635.49 232.018   1
   0   1 -11 1618.29 235.504   4
   0   1  11 1982.92 265.576   1
   0   1 -11 1756.51 314.502   2
   0   1 -12 2395.02 298.144   1
   0   1 -12 2524.41 324.809   4
   0   1  12 2326.51 306.394   1
   0   1  12 2280.77 186.401   5
   0  -1 -12 2298.20 367.401   2
   0   1 -12 2575.99 378.628   2
   0   1 -13 4065.57 401.931   1
   0   1 -13 4262.50 507.887   2
   0  -1 -13 4322.13 526.413   2
   0   1 -13 4272.79 441.674   4
   0   1  13 4325.96 271.802   5
   0   1  13 4720.25 444.533   1
   0   1 -14 12470.7 782.414   4
   0   1 -14 12917.4 935.734   2
   0   1  14 12406.1 479.250   5
   0   1  14 12463.1 756.981   1
   0  -1 -14 11716.0 899.205   2
   0   1 -14 12362.5 735.171   1
   0   1 -15 16371.8 591.653   6
   0   1  15 20809.5 1009.94   1
   0  -1 -15 18999.6 1171.32   2
   0   1 -15 18373.3 1164.78   2
   0   1 -15 18806.8 1019.84   4
   0   1  15 19427.3 623.588   5
   0  -1 -16 8051.17 799.346   2
   0   1 -16 8105.45 684.397   4
   0   1  16 8234.05 653.641   1
   0   1 -16 7669.12 411.678   6
   0   1  16 7832.63 407.917   5
   0   1 -16 8256.10 814.012   2
   0   1  17 2965.06 410.768   1
   0   1 -17 2556.68 245.982   6
   0   1 -17 2822.03 418.272   4
   0  -1 -17 2931.61 506.235   2
   0   1  17 2420.35 230.614   5
   0   1 -17 2604.76 469.787   2
   0   1 -18 536.944 108.250   6
   0   1  18 606.877 116.344   5
   0   1  18 893.981 246.812   1
   0   1 -18 463.673 220.522   2
   0  -1 -18 454.552 219.597   2
   0  -1 -19 57.7757 148.365   2
   0   1  19 29.8139 17.8189   5
   0   1 -19 263.670 190.812   2
   0   1 -19 76.6521 48.3237   6
   0  -1 -20 499.314 245.476   2
   0   1 -20 698.525 275.803   2
   0   1 -21 875.717 320.641   2
   0  -1 -21 1361.25 395.105   2
   0   1 -22 2090.18 520.546   2
   0  -1 -22 1856.69 469.265   2
   0  -1 -23 533.605 264.471   2
   0   1 -23 358.082 223.620   2
   0  -1 -24 83.2124 139.305   2
   0   1 -24 287.951 190.265   2
   0   1 -25 1332.68 411.550   2
   0  -1 -25 1701.03 479.795   2
   0  -1 -26-315.948 255.024   2
   0   1 -26 76.3151 111.337   2
   0  -1 -27 993.832 397.740   2
   0   1 -27 1386.18 451.963   2
   0  -1 -28 330.270 271.186   2
   0   1 -28 310.789 274.229   2
   0   2   0 16562.9 531.451   3
   0   2   1 76958.5 1199.94   3
   0  -2  -2 175.778 64.2569   2
   0  -2  -3 31259.8 854.749   2
   0  -2  -4 825.840 155.572   2
   0  -2  -5 5349.25 396.404   2
   0   2   5 5310.81 404.315   4
   0  -2  -6 4828.15 399.186   2
   0   2   6 4968.30 415.692   4
   0   2   7 61196.0 1552.00   4
   0  -2  -7 63306.1 1539.67   2
   0  -2  -8 46828.2 1394.29   2
   0   2   8 46793.9 1428.74   4
   0   2  -8 46343.5 1411.21   2
   0   2  -9 71849.6 1833.39   2
   0   2   9 72459.2 1843.40   4
   0  -2  -9 67773.3 1790.69   2
   0   2  10 20801.1 1033.00   4
   0   2 -10 19656.0 802.147   1
   0  -2 -10 20454.6 1015.15   2
   0   2 -10 20285.5 1025.51   2
   0   2 -11 142.953 67.0528   1
   0   2  11 401.437 153.836   4
   0  -2 -11 319.576 149.349   2
   0   2 -11 197.902 119.439   4
   0   2 -11 309.102 160.710   2
   0   2  11 273.007 123.096   1
   0  -2 -12 42.2787 54.5433   2
   0   2  12-16.3744 60.6592   4
   0   2 -12 134.721 86.9370   1
   0   2 -12 21.2954 97.0770   2
   0   2 -12 43.2431 57.6391   4
   0   2  12 165.518 136.719   1
   0   2  13 8440.78 737.442   4
   0   2 -13 8817.84 599.453   4
   0  -2 -13 8559.30 749.220   2
   0   2 -13 9988.58 802.027   2
   0   2 -13 8792.67 610.503   1
   0   2  13 9399.24 658.484   1
   0   2 -14 9156.93 635.074   1
   0   2 -14 10092.6 674.536   4
   0  -2 -14 8769.59 799.517   2
   0   2 -14 9791.02 841.723   2
   0   2  14 9127.90 669.633   1
   0   2  15 22963.7 1106.37   1
   0  -2 -15 21376.5 1280.66   2
   0   2 -15 22426.7 1037.93   1
   0   2 -15 21668.6 1281.23   2
   0   2 -15 21830.1 1044.73   4
   0   2 -16 4461.82 493.902   4
   0   2  16 4266.72 506.514   1
   0   2 -16 4891.11 640.192   2
   0  -2 -16 4027.77 616.677   2
   0   2 -16 3787.66 444.330   1
   0   2 -17 5035.61 667.791   2
   0   2 -17 5126.00 526.746   1
   0   2  17 5459.23 567.635   1
   0  -2 -17 4807.02 647.773   2
   0   2 -17 4922.18 532.895   4
   0   2 -18 126.434 88.3578   2
   0   2 -18 448.943 184.275   4
   0   2  18 195.264 144.270   1
   0  -2 -18 115.298 98.1091   2
   0  -2 -19 65.7596 126.240   2
   0   2 -19 114.534 84.1359   2
   0   2  19-86.4923 94.4522   1
   0   2 -20 975.675 348.716   2
   0   2  20 974.677 275.815   1
   0  -2 -20 1150.75 371.818   2
   0  -2 -21 3428.04 618.034   2
   0   2  21 3911.17 540.861   1
   0   2 -21 4089.01 678.051   2
   0   2 -22 307.614 273.837   2
   0   2  22 273.822 171.337   1
   0  -2 -22 144.087 236.094   2
   0  -2 -23 1302.51 421.333   2
   0   2 -23 1232.19 389.070   2
   0  -2 -24 1222.90 413.760   2
   0   2 -24 1178.93 397.396   2
   0  -2 -25 238.567 212.971   2
   0   2 -25-3.63422 78.3152   2
   0  -2 -26 743.515 347.350   2
   0   2 -26 1802.31 522.773   2
   0   2 -27 694.236 368.475   2
   0  -2 -27-171.256 206.470   2
   0   3   0 169364. 2178.97   3
   0   3   1 463261. 3826.82   3
   0  -3  -2 1929.16 252.723   2
   0   3   2 1404.83 193.926   3
   0  -3  -3 20272.5 795.653   2
   0  -3  -4 1241.94 199.083   2
   0  -3  -5 2137.30 273.517   2
   0   3   6 2014.36 288.605   4
   0  -3  -6 2555.92 313.253   2
   0  -3  -7 5484.17 481.776   2
   0   3   7 6230.16 531.247   4
   0  -3  -8 550.217 198.063   2
   0   3   8 804.954 219.830   4
   0   3   9 180.404 116.247   4
   0  -3  -9 245.419 106.332   2
   0  -3 -10 972.919 225.440   2
   0   3  10 1799.23 331.629   4
   0   3  11 15820.3 986.851   4
   0  -3 -11 15119.9 955.501   2
   0  -3 -12 1114.40 279.738   2
   0   3 -12 1420.18 250.340   1
   0   3  12 1217.62 297.729   4
   0  -3 -13 11260.9 884.683   2
   0   3 -13 11835.2 727.674   1
   0   3 -13 10706.1 636.524   4
   0  -3 -14 1744.92 398.033   2
   0   3 -14 1555.55 294.691   1
   0   3 -14 1568.23 276.941   4
   0   3  14 1914.57 365.255   1
   0   3 -15 8773.73 635.458   4
   0   3  15 8701.36 716.720   1
   0   3 -15 7865.63 632.338   1
   0  -3 -15 8986.17 846.200   2
   0   3 -16 1036.01 260.043   4
   0   3  16 812.405 247.444   1
   0   3 -16 883.968 233.042   1
   0  -3 -16 567.346 260.095   2
   0   3 -17 1851.42 321.988   1
   0  -3 -17 1969.23 426.217   2
   0   3 -17 2321.20 354.088   4
   0   3  17 2456.70 405.528   1
   0   3  18 154.218 139.117   1
   0   3 -18 4.84380 37.2656   1
   0   3 -18 110.699 97.9916   4
   0  -3 -18 73.9219 82.8261   2
   0   3  19 39.9770 57.0630   1
   0  -3 -19 140.419 125.227   2
   0   3 -19-31.4243 76.4921   4
   0   3 -20 38.0364 61.8669   4
   0  -3 -20 196.268 183.120   2
   0   3  20-38.2275 75.2590   1
   0  -3 -21 3170.66 601.473   2
   0   3  21 3156.67 505.857   1
   0   3  22 466.533 203.482   1
   0  -3 -22 550.818 281.563   2
   0  -3 -23 3363.86 697.920   2
   0   3  23 4126.68 600.698   1
   0   3  24 249.279 195.994   1
   0  -3 -24-328.983 226.544   2
   0   3  25 923.275 305.076   1
   0  -3 -25 830.660 291.471   2
   0  -3 -26 202.537 261.710   2
   0  -3 -27 305.437 384.790   2
   0   4   0 60504.5 1471.51   3
   0   4  -1 87244.6 1740.20   3
   0   4   1 87984.5 1781.46   3
   0   4   2 2157.37 285.112   3
   0  -4  -3 5706.78 468.468   2
   0  -4  -4 9.26599 49.9302   2
   0  -4  -5 1877.11 286.351   2
   0  -4  -6 13259.9 791.856   2
   0   4   7 14846.4 880.371   4
   0  -4  -7 13817.6 832.410   2
   0   4   8 64995.8 1928.56   4
   0  -4  -8 66591.6 1896.14   2
   0  -4  -9 2356.53 376.813   2
   0   4   9 2389.99 380.495   4
   0   4  10 17790.2 1078.96   4
   0  -4 -10 16949.6 1017.43   2
   0  -4 -11-93.4565 120.460   2
   0  -4 -12 1424.14 323.428   2
   0  -4 -13 4660.50 591.850   2
   0   4 -14 17952.7 965.830   1
   0  -4 -14 20544.2 1277.20   2
   0   4 -14 18755.5 861.964   4
   0   4 -15 5008.78 521.332   1
   0  -4 -15 5971.54 708.335   2
   0   4 -15 5935.00 502.143   4
   0   4 -16 9466.28 669.995   4
   0   4 -16 9384.86 733.104   1
   0  -4 -16 10025.9 945.658   2
   0   4  16 11924.4 923.615   1
   0  -4 -17 1215.74 353.632   2
   0   4 -17 1347.25 262.231   4
   0   4  17 1510.83 349.116   1
   0   4 -17 1149.47 274.238   1
   0  -4 -18 549.568 222.922   2
   0   4 -18 850.428 233.187   1
   0   4  18 630.584 201.736   1
   0   4 -18 376.224 136.198   4
   0   4  19 115.017 69.9484   1
   0  -4 -19 132.879 137.076   2
   0   4 -19 4.73257 49.2270   4
   0   4  20 1170.33 323.738   1
   0   4 -20 1112.48 265.190   4
   0  -4 -20 1136.12 370.913   2
   0  -4 -21 966.780 335.454   2
   0   4 -21 639.965 217.999   4
   0   4  21 416.194 230.822   1
   0  -4 -22 517.213 271.010   2
   0   4  22 474.837 222.592   1
   0   4  23 906.196 324.959   1
   0  -4 -23 1010.24 404.306   2
   0  -4 -24-76.3670 134.878   2
   0   4  24 408.075 228.293   1
   0   4  25-12.4235 97.3162   1
   0  -4 -25-364.079 246.001   2
   0  -4 -26 500.733 285.700   2
   0  -4 -27 45.2156 124.166   2
   0   5   0 139422. 2527.33   3
   0   5   1 5063.83 487.536   3
   0   5  -1 5456.84 494.429   3
   0   5   2 79926.9 1913.14   3
   0   5   3 1218.95 245.027   3
   0  -5  -3 2230.99 342.625   2
   0  -5  -4 6609.38 579.098   2
   0  -5  -5-15.7429 65.0402   2
   0  -5  -6 20418.8 1059.96   2
   0  -5  -7 4618.77 540.682   2
   0   5   8 68221.8 2104.01   4
   0  -5  -8 66820.5 2038.36   2
   0  -5  -9 3374.95 468.618   2
   0  -5 -10 16941.8 1083.49   2
   0  -5 -11 2227.96 402.997   2
   0  -5 -12 2722.46 457.700   2
   0  -5 -13 801.803 274.151   2
   0  -5 -14 19219.7 1295.47   2
   0  -5 -15 2819.37 537.318   2
   0  -5 -16 13521.8 1159.05   2
   0   5 -16 12972.6 760.383   4
   0   5 -16 11812.3 857.518   1
   0  -5 -17 242.773 231.476   2
   0   5 -17 448.085 169.351   4
   0   5 -18 4121.55 456.334   4
   0  -5 -18 4334.02 688.891   2
   0   5  18 5132.59 662.920   1
   0   5  19-66.1562 125.955   1
   0   5 -19 31.4605 71.3614   4
   0  -5 -19-38.5621 145.051   2
   0   5 -20 604.439 203.059   4
   0  -5 -20 350.317 236.973   2
   0   5  20 516.414 203.676   1
   0   5  21 2.92509 157.290   1
   0  -5 -21 85.4065 110.513   2
   0  -5 -22 819.097 342.497   2
   0   5  22 1601.35 420.298   1
   0  -5 -23 476.290 299.047   2
   0   5  23 424.390 221.095   1
   0  -5 -24 221.978 216.645   2
   0   5  24 38.7849 109.845   1
   0   5  25 376.094 206.880   1
   0  -5 -25 868.277 432.268   2
   0  -5 -26-137.928 164.000   2
   0   6   0 115107. 2516.31   3
   0   6  -1 50384.4 1635.56   3
   0   6   1 48079.9 1602.86   3
   0   6  -2 72024.7 1946.62   3
   0   6   2 73731.1 2001.48   3
   0  -6  -3 3409.86 451.834   2
   0   6   3 1940.14 316.106   3
   0  -6  -4 756.297 220.035   2
   0  -6  -5 2328.48 381.880   2
   0  -6  -6 10976.2 843.698   2
   0  -6  -7 5348.20 619.410   2
   0  -6  -8 10154.1 852.544   2
   0  -6  -9 3793.52 536.753   2
   0  -6 -10 1341.35 341.007   2
   0  -6 -11-24.1611 120.804   2
   0  -6 -12 2019.20 415.902   2
   0  -6 -13 2232.75 457.270   2
   0  -6 -14 3555.58 585.646   2
   0  -6 -15 2043.34 490.565   2
   0  -6 -16 3423.90 615.399   2
   0  -6 -17 576.580 261.581   2
   0   6 -17 398.712 147.162   4
   0   6 -18 1403.62 272.818   4
   0  -6 -18 1338.64 389.397   2
   0   6 -19 2.84127 64.6504   4
   0   6  19-199.961 185.045   1
   0  -6 -19-20.8428 86.3270   2
   0   6  20 597.884 281.793   1
   0  -6 -20 255.612 214.393   2
   0  -6 -21 371.012 246.243   2
   0   6  21 362.693 199.432   1
   0   6  22 2710.52 555.988   1
   0  -6 -22 1868.22 499.605   2
   0  -6 -23 118.009 160.007   2
   0   6  23 725.132 307.824   1
   0   6  24 1466.94 408.498   1
   0  -6 -24 524.961 305.851   2
   0  -6 -25 429.498 274.561   2
   0   6  25 9.03086 71.4121   1
   0   7   0 18993.2 1097.28   3
   0   7  -1 25711.5 1290.29   3
   0   7   1 25109.7 1271.30   3
   0   7  -2 8772.20 739.681   3
   0   7   2 9301.73 765.835   3
   0   7  -3 270.093 108.597   3
   0   7   3 129.558 70.3827   3
   0  -7  -4-112.106 151.488   2
   0  -7  -5 7641.90 739.038   2
   0  -7  -6 3189.31 495.679   2
   0  -7  -7 29126.6 1506.91   2
   0  -7  -8 1212.95 329.390   2
   0  -7  -9 22435.0 1370.86   2
   0  -7 -10 221.093 188.549   2
   0  -7 -11 861.156 275.065   2
   0  -7 -12 468.062 199.636   2
   0  -7 -13 4187.73 204.663   5
   0  -7 -13 5232.45 730.123   2
   0  -7 -14 979.859 310.477   2
   0  -7 -15 10011.4 1039.28   2
   0  -7 -16 1080.09 348.533   2
   0  -7 -17 1950.77 493.253   2
   0  -7 -18 174.162 105.564   2
   0  -7 -19-139.134 155.231   2
   0  -7 -20-334.442 221.303   2
   0  -7 -21 1367.01 447.875   2
   0   7  21 804.430 303.661   1
   0   7  22 263.442 241.529   1
   0  -7 -22 562.862 349.973   2
   0   7  23 139.115 79.0828   1
   0  -7 -23-12.2594 132.379   2
   0   7  24 609.885 300.298   1
   0  -7 -24 227.057 289.456   2
   0   7  25-98.6201 129.706   1
   0   8   0 2597.90 450.258   3
   0   8   1 10342.4 873.716   3
   0   8  -1 10514.1 871.187   3
   0   8  -2 1947.92 368.476   3
   0   8   2 1860.37 375.369   3
   0   8  -3 1421.57 319.700   3
   0   8   3 1191.12 314.175   3
   0  -8  -3 1155.39 288.245   2
   0   8  -4 246.275 142.405   3
   0  -8  -4 11.8341 78.3129   2
   0  -8  -5 107.251 106.901   2
   0  -8  -6-127.076 91.8690   2
   0  -8  -7 5513.88 690.228   2
   0  -8  -8 177.466 184.283   2
   0  -8  -9 1993.74 431.351   2
   0  -8 -10 419.124 207.160   2
   0  -8 -11 1693.43 401.342   2
   0  -8 -12 1162.17 389.374   2
   0  -8 -13 8780.38 975.590   2
   0  -8 -14 398.428 265.054   2
   0  -8 -15 6822.74 903.372   2
   0  -8 -16-87.0126 124.397   2
   0  -8 -17 236.259 103.797   2
   0  -8 -18 166.591 219.774   2
   0  -8 -19-22.9518 156.643   2
   0  -8 -20 93.9563 213.349   2
   0  -8 -21 969.314 398.461   2
   0   8  22 1085.95 440.520   1
   0  -8 -22 444.201 268.120   2
   0   8  23 196.659 137.343   1
   0  -8 -23 355.945 210.930   2
   0   8  24 493.727 285.187   1
   0   9   0 20776.7 1328.36   3
   0   9   1 15940.6 1173.00   3
   0   9  -1 16327.5 1183.27   3
   0   9   2 9072.26 866.402   3
   0   9  -2 10127.2 934.402   3
   0  -9  -2 11908.7 1055.01   2
   0   9  -3 3609.63 549.456   3
   0  -9  -3 4779.30 660.587   2
   0   9   3 4100.17 583.884   3
   0  -9  -4 188.524 154.171   2
   0   9  -4-200.976 184.649   3
   0   9  -5 305.032 141.513   3
   0  -9  -5 369.170 198.365   2
   0   9  -6 2773.51 496.310   3
   0  -9  -6 2452.33 484.929   2
   0  -9  -7 3001.25 554.948   2
   0  -9  -8 2070.14 468.147   2
   0  -9  -9 1006.66 346.417   2
   0  -9 -10 239.372 145.241   2
   0  -9 -11 82.4594 100.013   2
   0  -9 -12 2373.65 526.610   2
   0  -9 -13 1067.66 372.013   2
   0  -9 -14 2409.18 549.563   2
   0  -9 -15 2480.64 587.203   2
   0  -9 -16 1363.69 454.346   2
   0  -9 -17 676.261 318.953   2
   0  -9 -18 149.195 135.018   2
   0  -9 -19-327.153 297.081   2
   0  -9 -20 335.135 261.502   2
   0  -9 -21 261.342 293.623   2
   0  -9 -22 526.893 335.503   2
   0   9  23 627.771 334.153   1
   0   9  24 406.949 236.738   1
   0  10   0 12757.2 1109.46   3
   0  10  -1 1669.01 413.139   3
   0  10   1 1189.23 381.944   3
   0  10  -2 5469.81 716.154   3
   0  10   2 4372.17 655.903   3
   0 -10  -2 5446.96 737.717   2
   0 -10  -3 636.392 272.259   2
   0  10  -3 658.406 250.707   3
   0  10  -4 354.419 150.253   3
   0 -10  -4 242.889 155.074   2
   0  10  -5 103.986 76.9333   3
   0 -10  -5 177.716 86.5374   2
   0  10  -6 6881.71 821.517   3
   0 -10  -6 6565.39 844.462   2
   0 -10  -7 166.412 199.692   2
   0  10  -7-6.29448 123.981   3
   0 -10  -8 7525.27 931.785   2
   0 -10  -9 104.050 107.821   2
   0 -10 -10 2535.23 550.617   2
   0 -10 -11 67.3044 147.312   2
   0 -10 -12 960.875 349.230   2
   0 -10 -13-99.2881 187.022   2
   0 -10 -14 4226.20 754.762   2
   0 -10 -15 81.6147 147.553   2
   0 -10 -16 2828.10 660.392   2
   0 -10 -17-20.0034 107.871   2
   0 -10 -18 55.2936 170.287   2
   0 -10 -19-94.9645 156.574   2
   0 -10 -20 761.971 321.924   2
   0  10  23 475.066 307.801   1
   0  11   0 11094.5 1104.03   3
   0  11  -1 3969.59 672.064   3
   0  11   1 3312.79 625.862   3
   0  11  -2 4377.75 686.251   3
   0 -11  -2 4822.12 760.492   2
   0  11   2 4587.98 685.819   3
   0  11  -3 248.470 192.665   3
   0 -11  -3 636.914 318.291   2
   0  11  -4-52.6867 135.268   3
   0 -11  -4-109.123 138.148   2
   0 -11  -5 88.4759 198.685   2
   0  11  -5 14.9520 86.2360   3
   0  11  -6 3751.10 654.409   3
   0 -11  -6 3220.40 648.169   2
   0  11  -7 1228.73 407.936   3
   0 -11  -7 1477.95 472.350   2
   0 -11  -8 6092.65 877.769   2
   0  11  -8 7287.15 915.260   3
   0  11  -9 1266.86 423.999   3
   0 -11  -9 774.866 310.622   2
   0 -11 -10 1618.23 480.628   2
   0 -11 -11 51.5404 94.1856   2
   0 -11 -12 10.1656 112.434   2
   0 -11 -13 345.644 269.918   2
   0 -11 -14 3598.63 754.213   2
   0 -11 -15 874.959 381.639   2
   0 -11 -16 1755.10 530.189   2
   0 -11 -17 564.671 306.714   2
   0 -11 -18 310.162 258.068   2
   0  12   0 3289.81 651.954   3
   0  12  -1 6224.24 873.945   3
   0  12   1 6453.04 887.278   3
   0 -12  -1 7192.80 973.392   2
   0 -12  -2 1077.05 378.317   2
   0  12  -2 1373.08 423.808   3
   0 -12  -3 808.828 336.135   2
   0  12  -3 767.520 297.044   3
   0 -12  -4-147.214 149.899   2
   0  12  -4 254.858 194.142   3
   0  12  -5 1174.86 357.158   3
   0 -12  -5 398.276 205.674   2
   0 -12  -6 110.381 226.609   2
   0  12  -6 787.005 325.819   3
   0 -12  -7 2282.31 564.896   2
   0  12  -7 2436.33 564.821   3
   0  12  -8 1155.81 383.441   3
   0 -12  -8 903.506 402.077   2
   0 -12  -9 1622.92 501.531   2
   0  12  -9 1835.40 493.771   3
   0 -12 -10-7.54054 95.2106   2
   0  12 -10 101.563 185.300   3
   0 -12 -11-127.468 225.644   2
   0  12 -11 188.844 178.564   3
   0 -12 -12 15.8488 80.7785   2
   0  12 -12 352.724 224.425   3
   0 -12 -13 818.674 361.391   2
   0 -12 -14 317.243 230.738   2
   0 -12 -15 1502.49 506.841   2
   0 -12 -16 167.753 224.079   2
   0 -13   0 437.385 296.722   2
   0  13   0 207.068 207.295   3
   0 -13  -1 2709.71 656.668   2
   0  13  -1 3512.08 700.229   3
   0 -13  -2 78.8201 88.7380   2
   0  13  -2-159.475 201.097   3
   0  13  -3 422.055 275.375   3
   0 -13  -3 1127.48 415.204   2
   0  13  -4 751.355 320.147   3
   0 -13  -4-90.3833 132.165   2
   0 -13  -5 26.6627 139.594   2
   0  13  -5 62.2249 96.7094   3
   0  13  -6 21.6640 126.579   3
   0 -13  -6 160.598 177.489   2
   0 -13  -7 761.114 338.630   2
   0  13  -7 393.462 254.044   3
   0 -13  -8 285.665 239.620   2
   0  13  -8 220.430 195.277   3
   0  13  -9 155.051 138.245   3
   0 -13  -9-253.837 258.340   2
   0 -13 -10 505.734 248.212   2
   0  13 -10 144.849 81.9269   3
   0 -13 -11 370.949 229.459   2
   0  13 -11 511.954 286.182   3
   0 -13 -12 230.056 278.045   2
   0  13 -12 509.997 332.430   3
   0  13 -13 1924.54 535.171   3
   0  13 -14 841.747 392.319   3
   0  13 -15 1165.82 446.229   3
   0  13 -16 54.2060 123.812   3
   0 -14   0 2112.91 621.739   2
   0  14  -1 821.607 369.705   3
   0 -14   1 1090.88 443.597   2
   0 -14  -1 1201.47 445.799   2
   0  14  -2 371.780 259.871   3
   0 -14  -2 373.007 275.711   2
   0 -14  -3-68.3466 87.4782   2
   0  14  -3-244.378 170.353   3
   0  14  -4-212.996 194.964   3
   0 -14  -4-168.945 139.728   2
   0  14  -5 453.943 244.986   3
   0 -14  -5 94.5591 98.3997   2
   0 -14  -6 569.073 327.154   2
   0  14  -6 249.338 186.116   3
   0 -14  -7 407.138 255.206   2
   0  14  -7 211.287 128.753   3
   0  14  -8 483.284 296.716   3
   0  14  -9 395.662 258.907   3
   0  14 -10 545.199 307.436   3
   0  14 -11-217.108 198.960   3
   0  14 -12 543.548 282.701   3
   1   0 -28 63.2892 193.625   2
   1   0 -27 1605.81 484.705   2
   1   0 -26 95.4923 133.306   2
   1   0 -25 2453.91 573.780   2
   1   0 -24 252.818 205.437   2
   1   0 -23 19.6833 160.503   2
   1   0 -22 436.781 277.833   2
   1   0 -21 1300.20 358.755   2
   1   0 -20 103.514 78.1101   6
   1   0 -20-67.1313 166.176   2
   1   0 -19-73.3397 109.830   2
   1   0 -19 287.023 103.212   6
   1   0 -18 89.9814 112.682   2
   1   0 -18 156.600 94.9188   6
   1   0 -17 19650.4 1279.39   2
   1   0 -16 827.049 299.776   2
   1   0 -15 64857.2 2178.04   2
   1   0 -14 24.9359 100.848   2
   1   0 -13 25432.2 1247.43   2
   1   0 -12 41.5873 103.886   2
  -1   0  12 6.39528 33.0215   1
   1   0 -11 358.586 136.098   2
  -1   0  11 232.443 98.9319   4
  -1   0  11 196.921 82.3399   1
   1   0 -10 319.565 173.898   2
  -1   0  10 102.672 81.0610   1
  -1   0  10 167.537 92.7169   4
  -1   0   9 124677. 1994.03   4
   1   0  -9 133066. 2378.47   2
  -1   0   9 125526. 1614.07   1
  -1   0   8 165.070 78.2787   4
  -1   0   8 86.9404 66.8989   1
   1   0  -8 395.242 184.763   2
  -1   0   7 45743.9 790.278   1
   1   0  -7 44611.9 1207.96   2
  -1   0   7 43998.9 1017.43   4
  -1   0   6 134.326 61.0722   4
   1   0  -6 270.955 102.230   2
  -1   0   6 13.0535 23.7477   1
   1   0  -5 9054.35 459.462   2
  -1   0   5 10867.6 286.830   1
   1   0  -4 128.459 81.9342   2
   1   0  -4 124.207 45.2456   6
   1   0  -3 70827.3 948.168   6
  -1   0  -2 43.8608 19.3481   2
  -1   0  -3 7815.23 320.906   2
   1   0   3 6534.08 332.583   1
   1   0   4-26.0527 27.0977   1
   1   0   4 19.0097 24.3714   5
  -1   0  -4 36.5652 38.6864   2
   1   0   5 6875.35 399.587   1
  -1   0  -5 7258.95 400.882   2
   1   0   5 7923.06 348.013   5
  -1   0  -6 319.725 120.385   2
   1   0   6 299.161 117.891   1
  -1   0  -7 110134. 1896.69   2
   1   0   7 109039. 1790.05   1
  -1   0  -8 404.248 175.516   2
   1   0   8 305.630 142.912   1
  -1   0  -8 125.681 69.8414   1
   1   0   9 141540. 2274.06   1
  -1   0  -9 138754. 2425.28   2
  -1   0  -9 143053. 2299.66   1
  -1   0  -9 138174. 2370.78   4
   1   0  10 23.2313 101.315   1
  -1   0 -10 87.2166 110.661   4
  -1   0 -10 200.131 141.782   2
  -1   0 -10 31.3014 36.9754   1
  -1   0 -11 2487.18 344.437   4
   1   0  11 2512.80 326.803   1
  -1   0 -11 1862.96 304.526   2
  -1   0 -12 159.820 143.251   4
   1   0  12 44.6880 78.7245   2
  -1   0 -12 77.8782 146.626   2
   1   0  12 97.6025 78.9964   5
   1   0  12 135.486 120.459   1
   1   0  13 9043.31 522.629   5
   1   0  13 9592.55 797.672   2
  -1   0 -13 9484.19 760.352   2
  -1   0 -13 9786.20 733.331   4
   1   0  13 10143.2 700.718   1
  -1   0 -14 361.926 232.803   2
   1   0  14 589.209 158.730   5
  -1   0 -14 726.859 246.042   4
   1   0  15 10673.7 599.931   5
  -1   0 -15 9530.78 788.428   4
  -1   0 -15 10569.0 870.986   2
  -1   0 -16 467.432 266.249   4
   1   0  16 470.615 148.672   5
  -1   0 -16 363.369 252.902   2
   1   0  17-25.9950 59.4978   5
  -1   0 -17 25.1697 108.912   4
  -1   0 -17-72.1900 101.737   2
  -1   0 -18-72.9736 89.2063   2
  -1   0 -18 53.3628 134.526   4
   1   0  18 85.1356 66.6915   5
   1   0  19 3811.59 393.736   5
  -1   0 -19 4393.68 634.985   2
  -1   0 -20-51.2518 79.5405   2
  -1   0 -21 7220.27 877.755   2
  -1   0 -22 113.112 133.536   2
  -1   0 -23 286.600 182.763   2
  -1   0 -24-18.5013 126.251   2
  -1   0 -25 452.352 257.493   2
  -1   0 -26-25.9402 81.1106   2
  -1   0 -27 613.104 340.758   2
  -1   0 -28 261.637 163.753   2
   1   1 -28 469.619 264.958   2
   1  -1 -28-212.210 196.753   2
   1   1 -27 56.9527 161.578   2
   1  -1 -27 607.630 287.743   2
   1   1 -26 297.659 206.702   2
   1  -1 -26 496.396 263.673   2
   1  -1 -25-21.7300 186.754   2
   1   1 -25 420.662 267.708   2
   1   1 -24 3666.64 696.152   2
   1  -1 -24 3350.68 649.836   2
   1  -1 -23 1366.26 392.471   2
   1   1 -23 1055.57 377.828   2
   1  -1 -22 5534.50 815.132   2
   1   1 -22 5763.77 821.164   2
   1   1 -21 3412.40 608.452   2
   1  -1 -21 2858.53 547.764   2
   1  -1 -20 528.472 273.750   2
   1   1 -20 544.269 232.019   2
  -1   1  19 586.957 110.212   5
   1  -1 -19 452.512 191.394   2
   1   1 -19 618.030 135.438   6
   1   1 -19 510.448 241.317   2
   1   1 -18 1374.40 196.768   6
   1  -1 -18 1892.23 411.682   2
  -1   1  18 1747.61 296.894   1
   1   1 -18 1632.08 380.258   2
  -1   1  18 1521.97 170.752   5
   1   1 -17 868.310 160.506   6
   1   1 -17 863.979 267.424   2
  -1   1  17 1082.93 232.368   1
   1  -1 -17 586.718 232.114   2
   1   1 -16 1660.04 377.470   2
   1   1 -16 1374.66 190.321   6
  -1   1  16 1483.98 257.378   1
   1  -1 -16 1299.10 317.445   2
   1  -1 -15 7771.83 781.879   2
  -1   1  15 8354.25 597.366   1
   1   1 -15 8383.75 469.862   6
   1   1 -15 7638.29 759.167   2
   1   1 -14 2572.21 249.619   6
   1  -1 -14 2987.52 453.988   2
   1   1 -14 4093.17 520.523   2
  -1   1  14 3271.87 442.338   4
  -1   1  14 2889.72 334.259   1
  -1   1  13 2957.60 397.848   4
   1  -1 -13 3485.23 479.061   2
   1   1 -13 3190.01 273.891   6
   1   1 -13 3486.23 493.647   2
  -1   1  13 3662.23 354.862   1
   1   1 -12 314.229 87.7642   6
   1   1 -12 374.633 160.049   2
  -1   1  12 294.177 118.939   4
   1  -1 -12 235.522 123.350   2
  -1   1  12 297.733 94.3302   1
   1   1 -12 273.512 95.0587   1
   1   1 -11 467.180 95.8298   6
  -1   1  11 435.751 116.217   1
   1   1 -11 529.238 182.009   2
  -1   1  11 425.425 139.833   4
   1  -1 -11 481.664 161.738   2
   1   1 -11 596.809 118.379   1
   1   1 -10 2017.86 191.680   6
   1  -1 -10 2123.62 317.908   2
   1   1 -10 2178.87 336.491   2
  -1   1  10 2513.23 256.001   1
  -1   1  10 2271.72 308.092   4
   1   1 -10 2318.43 224.975   1
   1   1  -9 38786.3 1304.68   2
   1   1  -9 37658.5 806.820   6
   1  -1  -9 40144.2 1313.73   2
   1   1  -9 38410.3 859.813   1
  -1   1   9 37279.6 1189.43   4
   1  -1  -8 7535.75 541.802   2
   1   1  -8 7451.92 346.000   1
  -1   1   8 7238.82 494.239   4
   1   1  -8 6839.71 323.331   6
   1   1  -8 7405.50 530.380   2
  -1   1   7 17369.8 716.673   4
   1   1  -7 15963.8 467.840   1
   1   1  -7 16960.6 477.004   6
   1  -1  -7 15845.2 732.590   2
   1   1  -7 16764.2 747.305   2
   1   1  -6 20691.6 775.202   2
   1  -1  -6 20616.5 780.398   2
   1   1  -6 19807.3 493.283   6
   1   1  -5 2698.57 262.656   2
   1   1  -5 2432.75 161.355   6
  -1  -1   5 2734.02 178.931   6
   1  -1  -5 2962.99 272.812   2
   1  -1  -4 17250.0 591.583   2
   1   1  -4 16560.0 586.675   2
   1   1  -3 2403.15 200.747   2
   1  -1  -3 1723.88 172.176   2
   1  -1  -2 2070.15 133.245   5
  -1  -1  -1 9726.54 314.151   2
  -1   1  -2 12022.4 314.954   6
  -1  -1  -2 13238.8 404.275   2
  -1  -1  -3 11600.4 434.007   2
  -1   1  -3 10779.2 281.745   6
  -1  -1  -4 3704.70 197.800   5
  -1   1  -4 3924.12 284.393   2
  -1  -1  -4 3597.15 268.086   2
  -1   1  -5 11423.2 532.604   2
   1   1   5 10723.3 516.816   1
  -1  -1  -5 11065.5 352.896   5
  -1  -1  -5 11401.0 525.212   2
  -1  -1  -6 2113.52 246.935   2
  -1   1  -6 1910.13 236.684   2
   1   1   6 2098.11 244.937   1
  -1  -1  -7 21407.0 849.534   2
  -1   1  -7 21055.4 790.636   1
  -1   1  -7 22604.6 859.064   2
   1   1   7 21478.8 807.691   1
   1   1   8 132.622 60.5489   5
  -1   1  -8 184.767 113.475   2
   1   1   8 107.834 113.701   1
  -1   1  -8 93.1907 87.3371   1
  -1  -1  -8 225.925 117.028   2
  -1  -1  -9 16728.6 860.729   2
   1   1   9 17120.8 541.992   5
  -1   1  -9 16722.5 849.310   2
  -1   1  -9 17061.1 793.259   1
   1   1   9 18131.7 811.446   1
  -1   1 -10 17966.9 854.030   1
  -1   1 -10 18865.2 943.346   2
   1   1  10 19408.4 601.011   5
   1   1  10 18492.3 856.792   1
  -1  -1 -10 19152.5 957.928   4
  -1  -1 -10 18588.8 946.923   2
   1   1  11 1296.08 237.249   1
  -1  -1 -11 1796.10 312.090   4
  -1  -1 -11 2288.91 349.421   2
  -1   1 -11 2018.22 327.094   2
  -1   1 -11 1775.23 278.878   4
   1   1  11 1958.96 195.272   5
  -1   1 -11 1630.55 262.320   1
  -1   1 -12 6133.10 527.409   1
  -1  -1 -12 5340.90 556.096   4
  -1   1 -12 5479.98 508.126   4
   1   1  12 5814.14 354.271   5
  -1   1 -12 6591.66 611.946   2
   1   1  12 6445.42 550.013   1
  -1  -1 -12 5784.80 584.057   2
   1  -1  12 5517.62 582.046   2
   1   1  12 6774.90 647.635   2
   1  -1  13 4396.33 542.278   2
  -1  -1 -13 4000.02 492.956   2
  -1   1 -13 4131.15 517.443   2
  -1   1 -13 5033.68 497.365   1
   1   1  13 4614.38 479.264   1
   1   1  13 4835.11 564.228   2
  -1   1 -13 4083.53 457.435   4
  -1  -1 -13 4282.78 510.974   4
   1   1  13 4572.89 329.264   5
  -1  -1 -14 3671.48 485.158   4
   1   1  14 3240.51 425.362   1
  -1   1 -14 3566.58 434.009   1
  -1   1 -14 3708.84 478.239   4
   1   1  14 3550.87 296.743   5
  -1   1 -14 3680.83 506.662   2
  -1  -1 -14 3130.07 464.501   2
  -1  -1 -15 2990.29 448.891   4
  -1  -1 -15 2380.19 405.878   2
  -1   1 -15 2181.62 352.637   1
  -1   1 -15 2549.70 439.361   2
  -1   1 -15 2701.87 407.832   4
   1   1  15 2706.09 265.298   5
   1   1  15 2986.54 414.564   1
  -1   1 -16 3032.86 440.485   4
  -1  -1 -16 3011.13 468.009   4
  -1   1 -16 2434.24 430.060   2
  -1  -1 -16 2814.74 473.476   2
   1   1  16 3474.24 463.184   1
   1   1  16 2705.76 268.729   5
  -1  -1 -17 56.5970 85.5204   2
   1   1  17 312.767 151.601   1
  -1   1 -17 182.322 153.634   2
   1   1  17 242.410 92.9388   5
  -1   1 -17 328.575 185.206   4
  -1   1 -18 557.433 223.740   4
   1   1  18 311.309 163.699   1
  -1  -1 -18 421.225 222.834   2
   1  -1  18 283.368 109.475   5
  -1   1 -18 354.848 207.857   2
  -1   1 -19 2227.00 217.936   6
  -1  -1 -19 3112.09 544.409   2
  -1   1 -19 3131.45 505.308   4
   1  -1  19 2094.57 324.812   5
  -1   1 -19 2676.11 516.744   2
  -1   1 -20 601.060 257.750   4
  -1  -1 -20 357.782 231.240   2
  -1   1 -20 316.803 234.853   2
  -1   1 -21 4470.88 703.922   2
  -1  -1 -21 5081.45 742.671   2
  -1  -1 -22 1166.10 367.244   2
  -1   1 -22 1122.98 381.169   2
  -1   1 -23 606.073 270.375   2
  -1  -1 -23 406.734 218.087   2
  -1  -1 -24 157.355 173.216   2
  -1   1 -24 209.619 143.680   2
  -1  -1 -25 255.227 224.656   2
  -1   1 -25-51.1513 125.657   2
  -1  -1 -26 400.349 264.144   2
  -1   1 -26 210.179 199.260   2
  -1  -1 -27 1108.56 423.427   2
  -1   1 -27 756.263 314.011   2
   1  -2 -28 129.814 235.206   2
   1  -2 -27 150.862 155.245   2
   1   2 -27 371.319 214.783   2
   1   2 -26-45.1640 80.2235   2
   1  -2 -26-175.173 185.522   2
   1   2 -25 1939.54 514.929   2
   1  -2 -25 1985.59 526.735   2
   1  -2 -24 1710.88 496.548   2
   1   2 -24 514.423 195.537   2
   1   2 -23 3226.83 648.857   2
   1  -2 -23 3857.18 694.359   2
   1   2 -22 6224.45 845.395   2
   1  -2 -22 5990.47 843.765   2
  -1   2  22 6623.38 678.367   1
   1   2 -21 1575.24 457.456   2
   1  -2 -21 1694.34 438.632   2
  -1   2  21 1727.73 361.720   1
  -1   2  20 1804.43 337.861   1
   1   2 -20 1353.59 396.449   2
   1  -2 -20 1636.98 402.408   2
  -1   2  19 191.450 114.209   1
   1  -2 -19 330.036 189.954   2
   1   2 -19 314.677 175.695   2
   1   2 -18 110.955 146.004   2
   1  -2 -18 236.904 151.158   2
  -1   2  18 269.115 137.023   1
   1  -2 -17 1867.09 393.864   2
  -1   2  17 3020.45 393.914   1
   1   2 -17 2530.85 476.883   2
  -1   2  16 3605.79 423.686   1
   1   2 -16 3480.62 374.735   1
   1   2 -16 3609.87 557.683   2
   1  -2 -16 3567.87 546.885   2
   1   2 -15 4073.32 393.401   1
   1   2 -15 4369.94 583.726   2
  -1   2  15 4456.00 462.255   1
   1  -2 -15 3848.58 551.753   2
   1   2 -14 6677.18 485.148   1
  -1   2  14 6975.20 544.988   1
   1  -2 -14 6696.23 697.187   2
   1   2 -14 6713.66 691.830   2
  -1   2  14 6615.81 662.384   4
   1   2 -13 1684.21 233.815   1
   1  -2 -13 1804.69 338.282   2
  -1   2  13 1970.30 283.345   1
  -1   2  13 1736.37 325.910   4
   1   2 -13 1897.60 259.053   4
   1   2 -13 1883.66 361.429   2
   1   2 -12 1557.84 217.346   1
   1  -2 -12 2039.68 357.042   2
  -1   2  12 1548.97 310.203   4
   1   2 -12 1508.03 315.976   2
   1   2 -12 1792.84 239.129   4
   1   2 -11 509.559 125.587   4
   1   2 -11 424.544 168.624   2
   1  -2 -11 301.351 127.771   2
   1   2 -11 391.588 106.128   1
  -1   2  11 462.540 152.933   4
   1   2 -10 8493.12 458.971   1
   1  -2 -10 8451.85 658.920   2
   1   2 -10 8693.71 444.742   4
  -1   2  10 8329.03 637.577   4
   1   2 -10 8921.51 667.873   2
   1   2  -9 731.512 230.761   2
   1   2  -9 273.029 97.0766   4
  -1   2   9 422.288 168.164   4
   1  -2  -9 355.010 174.601   2
   1   2  -8 34401.8 732.052   4
   1  -2  -8 37340.2 1247.36   2
   1   2  -8 37302.8 1248.29   2
   1   2  -7 9863.53 611.160   2
   1  -2  -7 9915.28 602.193   2
   1   2  -7 9541.84 333.455   4
  -1  -2   7 10002.0 347.948   6
   1  -2  -6 24618.2 911.040   2
  -1  -2   6 25081.8 547.341   6
   1   2  -6 24139.6 457.055   4
   1  -2  -5 17594.0 367.713   5
   1  -2  -5 18878.1 750.141   2
   1  -2  -4 10249.3 518.850   2
   1  -2  -4 9212.10 296.894   5
   1  -2  -3 3218.05 275.647   2
   1  -2  -2 3084.33 253.075   2
   1   2  -1 31128.7 603.969   4
  -1   2   0 209640. 1881.61   3
   1   2   0 207996. 1910.41   4
   1   2   1 39194.6 897.170   3
   1   2   1 41789.0 887.654   4
  -1  -2  -2 4903.94 313.058   2
   1   2   2 6629.95 381.416   3
   1   2   2 6612.65 382.759   4
   1   2   3 132.655 53.3819   4
  -1  -2  -3 317.967 96.5118   2
   1   2   4 8719.42 509.018   4
  -1  -2  -4 9160.66 486.283   2
   1  -2   4 8203.48 275.710   6
  -1  -2  -5 1434.61 213.036   2
   1   2   5 1274.24 203.091   4
  -1  -2  -6 28918.6 981.786   2
   1   2   6 27348.2 1019.53   4
   1   2   7 116.926 87.5643   4
  -1  -2  -7 167.556 54.8597   5
  -1  -2  -7 215.882 113.711   2
   1   2   8 34079.2 1265.57   4
  -1   2  -8 38568.8 1262.69   2
  -1  -2  -8 36742.0 1235.25   2
   1   2   9 15963.5 808.277   1
  -1   2  -9 14342.1 749.820   1
   1   2   9 13968.9 830.267   4
  -1   2  -9 14685.0 828.562   2
  -1  -2  -9 14852.3 825.312   2
  -1  -2 -10 394.252 164.756   2
  -1   2 -10 626.637 196.899   2
  -1   2 -10 514.622 151.529   1
   1   2  10 593.633 175.389   1
  -1   2 -11 7484.83 635.497   2
   1   2  11 7830.45 607.139   1
  -1   2 -11 7086.17 558.576   1
  -1  -2 -11 8049.27 670.806   2
   1   2  12 4503.16 480.033   1
   1  -2  12 4592.25 544.088   2
  -1   2 -12 4554.93 464.429   1
  -1  -2 -12 4937.38 543.593   2
  -1   2 -12 4660.51 540.152   2
   1   2  12 4971.38 560.222   2
  -1  -2 -12 4575.92 528.084   4
  -1   2 -13 1631.09 284.465   4
  -1  -2 -13 1561.47 319.335   2
  -1   2 -13 1895.83 309.783   1
   1   2  13 1929.87 323.496   1
  -1   2 -13 1807.30 349.650   2
   1   2  14 10089.4 757.286   1
  -1   2 -14 8972.02 786.089   2
  -1   2 -14 8772.84 681.917   1
  -1   2 -14 8767.47 676.614   4
  -1  -2 -14 8920.19 800.881   2
  -1   2 -15 1365.36 288.208   4
  -1   2 -15 963.989 240.060   1
  -1   2 -15 1020.78 275.774   2
  -1  -2 -15 1135.33 302.703   2
   1   2  15 885.713 256.594   1
  -1   2 -16 1649.37 313.487   4
  -1   2 -16 1668.03 370.544   2
  -1  -2 -16 1602.60 357.960   2
   1   2  16 2234.25 372.206   1
  -1   2 -16 1820.91 331.873   1
  -1   2 -17 873.095 241.217   1
  -1   2 -17 1346.15 372.606   2
   1   2  17 1643.44 343.385   1
  -1   2 -17 1450.13 311.478   4
  -1  -2 -17 1869.93 406.222   2
  -1   2 -18 1370.76 366.746   2
  -1   2 -18 1590.19 345.248   4
   1   2  18 1959.24 384.588   1
  -1  -2 -18 2019.45 425.124   2
  -1   2 -19 852.873 311.424   2
   1   2  19 546.320 227.861   1
  -1   2 -19 613.170 258.446   4
  -1  -2 -19 472.083 219.825   2
  -1   2 -20 5559.87 666.520   4
   1   2  20 5293.64 658.617   1
  -1   2 -20 5140.51 755.449   2
  -1  -2 -20 5002.47 725.506   2
  -1   2 -21 1048.33 321.560   4
   1   2  21 280.398 187.272   1
  -1   2 -21 666.616 342.555   2
  -1  -2 -21 634.164 348.294   2
  -1   2 -22 4082.24 597.701   4
  -1   2 -22 3454.88 653.838   2
  -1  -2 -22 2855.06 587.963   2
   1   2  22 3902.18 589.941   1
  -1  -2 -23 519.357 282.917   2
  -1   2 -23 402.111 246.706   2
  -1  -2 -24-41.3631 98.4483   2
  -1   2 -24 169.894 147.129   2
  -1  -2 -25-355.839 233.237   2
  -1   2 -25 21.3755 97.8571   2
  -1   2 -26 497.277 262.062   2
  -1  -2 -26 205.798 180.182   2
  -1  -2 -27 321.576 218.340   2
   1  -3 -27 496.186 317.767   2
   1  -3 -26 2359.05 582.047   2
   1  -3 -25 235.771 233.497   2
  -1   3  24 508.413 200.781   1
   1  -3 -24 763.351 338.349   2
  -1   3  23 339.292 202.526   1
   1  -3 -23 273.360 297.038   2
   1  -3 -22 1592.24 447.935   2
  -1   3  22 1158.44 297.118   1
   1  -3 -21 958.851 396.747   2
  -1   3  21 840.470 298.687   1
   1   3 -20 2652.48 546.742   2
  -1   3  20 3052.22 451.855   1
   1  -3 -20 2473.91 514.646   2
   1   3 -19 194.302 108.620   1
   1  -3 -19 316.697 178.254   2
   1   3 -19 178.136 132.210   2
  -1   3  19 241.390 146.663   1
  -1   3  18 393.947 173.356   1
   1   3 -18 330.201 176.278   2
   1   3 -18 499.196 154.991   1
   1  -3 -18 68.7254 82.1995   2
   1  -3 -17 176.370 124.950   2
   1   3 -17 906.355 209.301   1
   1   3 -17 738.825 257.889   2
  -1   3  17 1013.99 248.342   1
   1  -3 -16 16222.8 1173.69   2
   1   3 -16 15106.9 809.060   1
   1   3 -16 15673.9 1153.71   2
  -1   3  16 17702.8 1007.17   1
   1   3 -15 1716.46 259.784   4
   1  -3 -15 2161.93 406.948   2
  -1   3  15 2528.22 360.093   1
   1   3 -15 2307.97 307.382   1
   1   3 -15 2101.00 430.725   2
   1   3 -14 35988.2 1191.77   1
   1  -3 -14 36487.7 1657.77   2
   1   3 -14 39602.9 1159.11   4
   1   3 -13 1470.46 222.635   4
   1   3 -13 1956.61 267.064   1
   1  -3 -13 1708.66 330.499   2
  -1   3  12 14576.0 978.143   4
   1  -3 -12 15971.3 1009.36   2
   1   3 -12 16743.8 663.482   4
   1  -3 -11 2503.83 394.942   2
   1   3 -11 2335.19 226.821   4
  -1   3  11 2790.68 411.540   4
  -1   3  10 564.121 173.688   4
   1   3 -10 624.673 113.537   4
   1  -3 -10 510.720 176.267   2
  -1  -3   9 5771.32 268.877   6
   1  -3  -9 6581.22 582.178   2
  -1  -3   8 14102.5 430.726   6
   1  -3  -8 15225.3 851.618   2
   1  -3  -7 513.198 175.080   2
   1  -3  -7 258.770 47.8309   5
   1  -3  -6 142.863 65.9609   2
   1  -3  -5 187.388 99.4210   2
   1  -3  -4 54.7558 57.5089   2
   1  -3  -3 154.095 78.0546   2
   1  -3  -2 6924.35 448.161   2
  -1   3   1 3557.03 292.925   3
  -1   3   0 13532.5 552.943   3
   1   3   0 16701.2 690.343   3
   1   3   1 14732.7 609.348   4
   1   3   1 14366.7 655.487   3
  -1   3  -1 14977.4 580.778   3
   1   3   2 37473.6 1042.13   4
  -1  -3  -2 33463.5 978.181   2
   1   3   2 37515.6 1060.44   3
   1   3   3 723.963 155.773   4
   1   3   3 420.464 126.063   3
  -1  -3  -3 840.774 164.361   2
   1   3   4 1400.85 223.985   4
  -1  -3  -4 1631.17 230.646   2
   1   3   5 554.917 149.887   4
  -1  -3  -5 584.348 145.610   2
  -1  -3  -6 13199.9 718.693   2
   1  -3   6 13243.5 371.441   6
   1   3   6 13544.3 773.737   4
  -1  -3  -7 603.206 166.928   2
   1   3   7 360.324 144.540   4
   1   3   8 38766.5 1417.43   4
  -1  -3  -8 39185.6 1349.93   2
  -1  -3  -9 3409.91 415.937   2
   1   3   9 3713.21 464.795   4
  -1  -3  -9 3047.95 186.065   5
   1   3  10 3006.94 430.941   4
  -1  -3 -10 3076.92 416.773   2
   1  -3  11 763.510 229.912   2
   1   3  11 1015.58 257.129   2
  -1  -3 -11 892.111 267.331   2
   1   3  11 838.064 267.299   4
  -1  -3 -12 4605.56 554.591   2
  -1   3 -12 4671.40 495.709   1
   1   3  12 5340.26 545.683   1
  -1  -3 -13 767.008 264.379   2
   1   3  13 987.230 250.857   1
  -1   3 -13 983.741 233.298   1
  -1  -3 -14 7823.51 762.244   2
   1   3  14 9721.14 787.825   1
  -1  -3 -15 139.939 125.129   2
  -1   3 -15 126.357 106.873   4
   1   3  15 355.063 173.886   1
  -1   3 -15 254.818 127.264   1
  -1  -3 -16-10.4882 108.170   2
  -1   3 -16 158.426 130.781   1
  -1   3 -16 53.0732 74.7429   4
   1   3  16 38.8492 97.9145   1
  -1  -3 -17 149.903 135.881   2
  -1   3 -17 44.4780 97.4832   4
   1   3  17 203.945 125.744   1
  -1  -3 -18 7169.86 845.837   2
  -1   3 -18 6655.65 667.734   4
   1   3  18 7108.36 757.583   1
  -1  -3 -19 258.059 212.598   2
  -1   3 -19 169.995 117.713   4
   1   3  19 392.627 193.230   1
   1   3  20 11993.4 1012.92   1
  -1  -3 -20 11636.1 1125.02   2
  -1   3 -20 11606.2 939.635   4
  -1  -3 -21 1223.05 397.209   2
   1   3  21 1371.52 388.504   1
  -1   3 -21 1433.37 369.958   4
  -1   3 -22 2970.86 499.784   4
   1   3  22 3163.05 554.762   1
  -1  -3 -22 3076.38 627.738   2
  -1   3 -23-32.8251 101.204   4
   1   3  23 34.5488 135.807   1
  -1  -3 -23 1.67209 106.354   2
   1   3  24-36.1799 113.750   1
  -1  -3 -24-11.2558 211.104   2
  -1  -3 -25 339.185 263.174   2
  -1  -3 -26 260.435 142.247   2
  -1  -3 -27 235.254 216.870   2
   1  -4 -27-85.5384 203.692   2
   1  -4 -26 537.128 357.685   2
   1  -4 -25 1522.72 476.515   2
   1  -4 -24-66.4269 76.2230   2
  -1   4  24 68.9717 162.401   1
  -1   4  23 5309.39 684.391   1
   1  -4 -23 4478.49 784.437   2
   1  -4 -22 1325.85 424.580   2
  -1   4  22 1326.74 557.531   1
  -1   4  21 4713.68 629.551   1
   1  -4 -21 4221.55 716.958   2
   1  -4 -20 2086.32 510.778   2
  -1   4  20 1960.66 389.378   1
  -1   4  19 1137.95 286.346   1
   1  -4 -19 756.234 271.444   2
  -1   4  18 439.351 185.738   1
   1  -4 -18 393.373 163.816   2
   1   4 -18 347.849 141.478   1
  -1   4  17 36.4994 101.124   1
   1  -4 -17 158.152 108.302   2
   1   4 -17 231.429 110.873   1
   1   4 -16 3772.23 380.682   4
   1  -4 -16 3160.42 545.851   2
   1   4 -16 2990.23 387.647   1
   1   4 -15 38.0193 62.9774   1
   1  -4 -15 86.7008 84.1696   2
   1   4 -15 90.5103 80.0840   4
   1   4 -14 8880.73 517.997   4
   1  -4 -14 8291.53 833.542   2
   1  -4 -13 44.4008 110.874   2
   1   4 -13 64.9252 61.9890   4
   1  -4 -12 2418.14 426.641   2
   1   4 -12 2301.17 231.396   4
   1  -4 -11 127.539 96.9808   2
  -1  -4  11 219.618 51.5562   6
  -1   4  10 2456.32 398.344   4
  -1  -4  10 2298.26 178.306   6
   1  -4 -10 2357.59 389.361   2
   1  -4  -9 16251.1 958.025   2
   1  -4  -9 12798.8 330.474   5
   1  -4  -8 18566.7 1002.52   2
   1  -4  -7 19199.2 984.765   2
   1  -4  -6 6042.62 535.395   2
   1  -4  -5 12813.2 751.711   2
   1  -4  -4 55.8019 88.2787   2
   1  -4  -3 147.827 89.4637   2
  -1   4   2 8470.36 539.598   3
  -1   4   1 61254.3 1438.57   3
   1   4   0 2216.19 290.153   3
  -1   4   0 1892.23 240.986   3
   1   4   1 34662.4 1145.61   3
  -1   4  -1 34765.5 1037.38   3
   1   4   2 42.2460 56.0870   3
   1   4   3-11.1021 44.8097   3
   1   4   3 30.3286 65.4225   4
  -1  -4  -3 46.7405 60.5599   2
  -1  -4  -4 1858.38 274.763   2
   1   4   4 1869.20 284.281   4
   1   4   5 7317.65 587.760   4
  -1  -4  -5 7841.05 593.038   2
  -1  -4  -6 7921.09 610.999   2
   1   4   6 8335.38 650.205   4
  -1  -4  -7 3235.34 403.567   2
   1   4   7 3159.27 417.526   4
  -1  -4  -8 9303.60 720.706   2
   1   4   8 11040.0 810.279   4
   1  -4   8 9847.98 329.042   6
   1   4   9 340.682 157.271   4
  -1  -4  -9 299.352 119.070   2
   1  -4  10 2583.50 406.997   2
  -1  -4 -10 3003.61 432.968   2
   1   4  10 3275.81 453.189   2
  -1  -4 -10 2504.11 176.889   5
  -1  -4 -11 10118.3 806.967   2
  -1  -4 -11 8533.28 272.407   5
  -1  -4 -12 1997.97 373.440   2
  -1  -4 -13 6979.31 741.381   2
  -1  -4 -14 2877.06 480.172   2
  -1   4 -14 1825.39 333.655   1
  -1  -4 -15 3661.99 553.441   2
  -1   4 -15 3074.02 438.053   1
   1   4  15 3651.64 523.707   1
  -1  -4 -16-78.6525 157.438   2
   1   4  16 1.63265 81.2962   1
  -1   4 -16-69.7244 87.9441   4
  -1   4 -17 1499.59 301.229   4
   1   4  17 1509.49 350.380   1
  -1  -4 -17 1335.05 360.442   2
  -1   4 -18 451.190 186.257   4
  -1  -4 -18 559.674 260.303   2
   1   4  18 234.887 171.427   1
  -1   4 -19 147.543 115.486   4
  -1  -4 -19 96.6435 112.676   2
   1   4  19 86.3183 62.5338   1
  -1  -4 -20 2721.45 590.842   2
  -1   4 -20 3934.43 546.008   4
   1   4  20 3246.83 580.265   1
   1   4  21 3084.27 546.926   1
  -1  -4 -21 2355.83 538.355   2
  -1   4 -21 2056.80 403.852   4
   1   4  22 1674.88 419.161   1
  -1  -4 -22 1116.08 396.169   2
  -1   4 -22 1464.80 340.542   4
  -1  -4 -23 550.528 306.755   2
   1   4  23 700.379 290.549   1
  -1   4 -23 898.214 266.184   4
   1   4  24-8.46672 136.885   1
  -1  -4 -24 170.464 201.195   2
  -1  -4 -25-369.753 248.252   2
   1   4  25-102.047 83.1833   1
  -1  -4 -26 228.249 210.830   2
  -1  -4 -27 639.394 312.459   2
   1  -5 -26 285.127 149.909   2
   1  -5 -25 476.039 354.767   2
   1  -5 -24 1369.07 495.349   2
  -1   5  24 715.785 291.974   1
   1  -5 -23 2627.31 615.283   2
  -1   5  23 3147.51 558.541   1
   1  -5 -22 257.235 181.819   2
  -1   5  22 120.679 132.934   1
   1  -5 -21 1980.33 499.006   2
  -1   5  21 3015.95 530.901   1
  -1   5  20 207.438 169.266   1
   1  -5 -20 289.874 179.022   2
  -1   5  19-13.5846 111.275   1
   1  -5 -19-483.294 241.436   2
   1  -5 -18 376.754 220.465   2
   1   5 -17 1327.81 279.175   1
   1   5 -17 967.491 189.046   4
   1  -5 -17 1096.21 329.138   2
   1  -5 -16 2853.62 559.294   2
   1   5 -16 2495.84 293.285   4
   1   5 -15 5995.51 420.391   4
   1  -5 -15 6226.95 766.713   2
   1   5 -14 2692.77 274.065   4
   1  -5 -14 3144.28 539.069   2
   1  -5 -13 2903.74 485.787   2
   1   5 -13 2627.74 252.920   4
  -1  -5  12 206.225 52.9689   6
   1  -5 -12 591.951 247.633   2
  -1  -5  11 1094.42 134.082   6
   1  -5 -11 1125.46 276.972   2
   1  -5 -10 412.195 188.873   2
   1  -5 -10 181.206 53.6822   5
   1  -5  -9 23192.7 1235.54   2
   1  -5  -8 863.842 282.656   2
   1  -5  -7 24459.8 1204.54   2
   1  -5  -6 4738.77 510.385   2
   1  -5  -5 6804.92 602.639   2
   1  -5  -4 883.316 211.461   2
   1  -5  -3 6400.23 557.782   2
  -1   5   2 6673.74 524.867   3
  -1   5   1 113900. 2185.26   3
   1   5  -1 108806. 2257.97   3
   1   5   0 4114.59 432.076   3
  -1   5   0 3379.22 372.686   3
   1   5   1 112048. 2309.63   3
  -1   5  -1 108936. 2139.43   3
  -1   5  -2 3667.53 368.318   3
   1   5   2 4286.61 438.834   3
   1   5   3 2017.49 304.249   4
   1   5   3 1500.45 270.256   3
  -1  -5  -3 2418.08 348.102   2
   1   5   4 193.628 124.274   4
  -1  -5  -4 15.3610 88.7770   2
   1   5   5 14205.3 875.625   4
  -1  -5  -5 12377.2 811.395   2
  -1  -5  -6 272.862 159.084   2
   1   5   6 527.511 196.394   4
   1   5   7 29262.3 1340.66   4
  -1  -5  -7 27873.2 1274.05   2
  -1  -5  -8 10113.0 804.048   2
   1   5   8 9163.25 779.130   4
   1  -5   9 7302.90 334.816   6
  -1  -5  -9 7460.36 704.025   2
   1   5   9 7176.14 680.003   2
  -1  -5 -10 2472.78 417.324   2
  -1  -5 -11 1423.11 317.181   2
  -1  -5 -12 987.011 283.338   2
  -1  -5 -12 865.932 84.3958   5
  -1  -5 -13 8511.93 844.949   2
  -1  -5 -14 373.836 227.473   2
  -1  -5 -15 8728.89 896.952   2
  -1  -5 -16-89.0430 141.154   2
  -1  -5 -17 932.360 280.496   2
   1   5  17 1455.91 369.077   1
  -1  -5 -18 1100.17 359.664   2
  -1   5 -18 1141.16 266.240   4
   1   5  18 695.790 249.839   1
   1   5  19 849.551 292.790   1
  -1  -5 -19 502.280 218.178   2
  -1   5 -19 905.977 244.777   4
  -1  -5 -20 158.862 163.173   2
  -1   5 -20 880.378 260.007   4
   1   5  20 493.014 258.871   1
  -1   5 -21 2972.38 467.282   4
  -1  -5 -21 2657.45 580.002   2
   1   5  21 3157.58 572.689   1
   1   5  22 280.599 212.872   1
  -1  -5 -22 331.879 247.057   2
  -1  -5 -23 419.183 310.034   2
   1   5  23 477.710 213.697   1
  -1  -5 -24-92.9337 96.4439   2
   1   5  24 235.729 189.451   1
   1   5  25-67.2292 156.735   1
  -1  -5 -25 356.682 248.987   2
  -1  -5 -26 43.9816 134.408   2
   1  -6 -25 845.573 433.446   2
  -1   6  24 31.4818 142.724   1
   1  -6 -24 210.064 228.561   2
   1  -6 -23 181.289 244.579   2
  -1   6  23 64.7750 83.7445   1
  -1   6  22 809.837 301.721   1
   1  -6 -22 407.690 353.957   2
  -1   6  21 1423.25 386.621   1
   1  -6 -21 1718.96 474.605   2
   1  -6 -20 778.443 305.041   2
   1  -6 -19 159.933 104.021   2
   1  -6 -18 347.714 206.540   2
   1   6 -18 305.459 114.592   4
   1   6 -17 1675.35 230.089   4
   1  -6 -17 1566.69 422.012   2
   1   6 -16 1990.73 240.675   4
   1  -6 -16 2165.48 475.854   2
   1   6 -15 12796.3 592.308   4
   1  -6 -15 13400.2 1150.77   2
   1  -6 -14 3609.43 582.189   2
   1  -6 -13 6678.53 768.422   2
  -1  -6  13 5820.38 268.853   6
   1  -6 -12 557.371 194.623   2
  -1  -6  12 618.297 108.977   6
   1  -6 -11 899.748 118.801   5
   1  -6 -11 913.897 261.168   2
   1  -6 -10 3731.21 542.699   2
   1  -6  -9 12112.6 941.625   2
   1  -6  -8 11633.9 906.154   2
   1  -6  -7 10724.7 851.764   2
   1  -6  -6 2213.83 392.915   2
   1  -6  -5 1212.27 283.841   2
   1  -6  -4 186.587 147.290   2
   1  -6  -3 46.2983 85.4453   2
  -1   6   2 3041.15 396.229   3
   1   6  -2 3477.35 412.081   3
  -1   6   1 2214.77 333.445   3
   1   6  -1 1503.21 277.843   3
   1   6   0 1833.07 319.331   3
  -1   6   0 2285.74 333.691   3
  -1   6  -1 2789.90 371.014   3
   1   6   1 2594.47 377.836   3
   1   6   2 341.820 126.861   3
  -1   6  -2 381.333 128.657   3
   1   6   3 1680.07 314.851   3
  -1  -6  -3 1352.57 290.819   2
  -1   6  -3 1281.21 253.005   3
   1   6   4 1191.25 264.056   4
  -1  -6  -4 1545.09 304.033   2
   1   6   4 1163.09 265.069   3
   1   6   5 7282.95 669.661   4
  -1  -6  -5 7133.88 663.542   2
  -1  -6  -6 6324.26 657.416   2
   1   6   6 5116.50 593.582   4
  -1  -6  -7 31402.2 1455.13   2
  -1  -6  -8 14285.8 1002.89   2
  -1  -6  -9 19735.9 1208.46   2
  -1  -6 -10 2329.24 434.780   2
   1  -6  11 551.404 79.2087   6
  -1  -6 -11 323.211 151.458   2
  -1  -6 -12 883.216 279.090   2
  -1  -6 -13 2611.02 483.377   2
  -1  -6 -14 1320.37 359.140   2
  -1  -6 -15 2259.33 464.299   2
  -1  -6 -16 154.910 102.097   2
  -1  -6 -17 239.631 135.921   2
   1   6  18 267.444 204.484   1
  -1  -6 -18-70.1463 149.856   2
  -1  -6 -19 4745.24 771.975   2
  -1   6 -19 5237.87 574.837   4
   1   6  19 4946.23 721.724   1
  -1   6 -20 1066.86 270.949   4
   1   6  20 1814.84 458.384   1
  -1  -6 -20 1025.84 374.021   2
  -1  -6 -21 2904.55 638.671   2
   1   6  21 3616.61 640.202   1
  -1  -6 -22 805.779 335.742   2
   1   6  22 1248.82 385.177   1
  -1  -6 -23 59.8479 89.3978   2
   1   6  23 500.099 448.595   1
  -1  -6 -24 247.399 242.670   2
   1   6  24 390.918 265.492   1
  -1  -6 -25-125.458 163.065   2
   1   6  25 161.471 172.484   1
  -1   7  24 1658.90 459.289   1
   1  -7 -24 637.685 340.655   2
  -1   7  23 27.3791 160.087   1
   1  -7 -23 417.828 321.993   2
   1  -7 -22 3122.82 678.070   2
  -1   7  22 3888.75 680.011   1
   1  -7 -21 477.322 309.755   2
   1  -7 -20 2131.10 551.006   2
   1  -7 -19-62.2470 196.367   2
   1  -7 -18-234.010 266.639   2
   1  -7 -17-112.817 205.488   2
   1  -7 -16 73.0502 110.034   2
   1   7 -16 189.167 84.1957   4
   1  -7 -15 2798.85 566.074   2
   1  -7 -14 421.329 196.015   2
  -1  -7  13 1451.16 175.071   6
   1  -7 -13 1400.64 388.290   2
   1  -7 -12 142.686 156.860   2
   1  -7 -12 308.027 77.8350   5
   1  -7 -11-66.4028 145.036   2
   1  -7 -10 6113.35 723.990   2
   1  -7  -9 2539.57 481.444   2
   1  -7  -8 24000.5 1378.54   2
   1  -7  -7 5127.77 626.910   2
   1  -7  -6 18983.3 1190.55   2
   1  -7  -5 193.098 139.347   2
   1  -7  -4 1236.94 296.590   2
   1   7  -3 387.421 129.001   3
   1  -7  -3 390.586 162.911   2
   1   7  -2 14686.8 986.805   3
  -1   7   2 13996.6 938.339   3
  -1   7   1 473.771 199.674   3
   1   7  -1 371.500 186.664   3
   1   7   0 23696.4 1255.05   3
  -1   7   0 24875.3 1216.49   3
   1   7   1 240.658 146.064   3
  -1   7  -1 210.587 114.283   3
  -1   7  -2 2619.27 380.562   3
   1   7   2 2389.29 389.673   3
  -1   7  -3 72.8906 88.5352   3
  -1  -7  -3 167.211 153.825   2
   1   7   3 154.303 65.8382   3
   1   7   4 3209.41 474.505   3
  -1   7  -4 3696.55 474.312   3
  -1  -7  -4 3314.62 478.783   2
  -1  -7  -5 1499.49 322.162   2
  -1  -7  -6 12253.1 958.398   2
  -1  -7  -7 4858.14 634.714   2
  -1  -7  -8 6296.56 725.763   2
  -1  -7  -9 3733.79 562.761   2
  -1  -7 -10-11.7252 89.1100   2
  -1  -7 -11 111.600 85.9179   2
   1  -7  11 127.193 74.9840   6
   1  -7  12 3156.35 202.958   6
  -1  -7 -12 4547.50 654.982   2
  -1  -7 -13 81.7479 80.0006   2
  -1  -7 -14 1986.91 444.038   2
  -1  -7 -15 329.916 182.795   2
  -1  -7 -16 1291.93 365.396   2
  -1  -7 -17 188.202 117.947   2
  -1  -7 -18 292.355 150.572   2
   1   7  19 813.427 312.302   1
  -1  -7 -19 275.384 157.145   2
  -1  -7 -20 1533.06 452.591   2
   1   7  20 1735.36 458.085   1
  -1  -7 -21 494.052 299.611   2
   1   7  21 680.396 316.972   1
  -1  -7 -22 1503.20 480.641   2
   1   7  22 2221.40 544.642   1
  -1  -7 -23-60.4957 151.061   2
   1   7  23 42.1572 132.810   1
  -1  -7 -24 65.0252 166.569   2
   1   7  24 288.939 262.797   1
   1   7  25-288.381 214.333   1
  -1   8  24 331.147 218.845   1
   1  -8 -23-377.709 264.580   2
  -1   8  23 70.4904 161.659   1
   1  -8 -22 1347.19 505.578   2
   1  -8 -21 321.516 251.526   2
   1  -8 -20 1928.10 532.988   2
   1  -8 -19 122.273 118.048   2
   1  -8 -18-52.1721 185.241   2
   1  -8 -17 419.240 239.789   2
   1  -8 -16 769.012 310.277   2
   1  -8 -15 1650.63 424.755   2
   1  -8 -14 2240.20 512.050   2
   1  -8 -13 1711.62 458.618   2
   1  -8 -12 4051.86 648.102   2
   1  -8 -11 106.479 127.221   2
   1  -8 -10-44.3311 131.559   2
   1  -8  -9 34.3803 75.7155   2
   1  -8  -8 997.848 308.057   2
   1  -8  -7 220.970 152.776   2
   1  -8  -6 2548.17 473.590   2
   1  -8  -5-98.8287 131.828   2
   1   8  -4 635.797 220.317   3
   1  -8  -4 277.275 106.876   2
   1   8  -3 63.3982 66.1616   3
   1  -8  -3-8.94438 84.4820   2
   1   8  -2 3401.80 507.916   3
  -1   8   2 4233.19 552.589   3
  -1   8   1 83.6285 93.8801   3
   1   8  -1 328.442 210.662   3
   1   8   0 9414.76 846.776   3
  -1   8   0 9960.14 821.237   3
   1   8   1 402.643 200.089   3
  -1   8  -1 143.362 81.9544   3
  -1   8  -2 1295.38 295.241   3
   1   8   2 1403.95 337.809   3
  -1   8  -3 201.482 111.387   3
  -1  -8  -3 147.930 114.859   2
   1   8   3 76.5333 84.0874   3
  -1  -8  -4 561.478 189.722   2
  -1   8  -4 1063.94 281.032   3
  -1   8  -5 551.542 206.865   3
  -1  -8  -5 415.901 186.119   2
  -1  -8  -6 2430.98 451.538   2
  -1  -8  -7 869.500 295.998   2
  -1  -8  -8 128.601 158.836   2
  -1  -8  -9 1599.51 400.018   2
  -1  -8 -10 1863.38 415.057   2
  -1  -8 -11 294.886 227.834   2
  -1  -8 -12 6769.50 854.327   2
  -1  -8 -13 966.272 389.098   2
  -1  -8 -14 3426.87 640.650   2
  -1  -8 -15 148.524 106.140   2
  -1  -8 -16 511.731 277.531   2
  -1  -8 -17-144.577 154.158   2
  -1  -8 -18 189.855 191.379   2
  -1  -8 -19 478.035 269.247   2
  -1  -8 -20 2540.36 610.014   2
   1   8  20 1546.80 475.157   1
  -1  -8 -21 365.202 241.546   2
   1   8  21 583.527 290.057   1
  -1  -8 -22 397.264 208.254   2
   1   8  22 569.203 262.797   1
   1   8  23 206.276 205.022   1
  -1  -8 -23 398.570 232.052   2
   1   8  24 194.995 184.764   1
   1   8  25-44.1766 158.143   1
   1  -9 -22 174.150 236.167   2
   1  -9 -21 642.326 307.466   2
   1  -9 -20 733.176 352.427   2
   1  -9 -19 119.118 128.056   2
   1  -9 -18-153.981 135.845   2
   1  -9 -17 761.077 313.675   2
   1  -9 -16 3267.20 658.692   2
   1  -9 -15 3653.19 686.002   2
   1  -9 -14 3355.51 663.452   2
   1  -9 -13 2261.42 500.564   2
   1  -9 -12 578.774 257.628   2
   1  -9 -11 14.5047 73.8561   2
   1  -9 -10 853.643 271.159   2
   1  -9  -9 3957.57 658.915   2
   1  -9  -8 2133.44 479.580   2
   1  -9  -7 4005.94 634.183   2
   1  -9  -6 1048.41 342.400   2
   1  -9  -5 690.734 271.545   2
   1   9  -5 447.367 210.791   3
   1   9  -4 50.7988 92.0804   3
   1  -9  -4-122.629 147.144   2
   1  -9  -3 367.686 167.983   2
   1   9  -3 153.293 96.0619   3
  -1   9   2-85.9002 173.401   3
   1  -9  -2 313.655 175.416   2
   1   9  -2 125.537 111.590   3
   1   9  -1 3271.88 540.518   3
  -1   9   1 3292.00 524.966   3
  -1   9   0 1676.49 364.884   3
   1   9   0 2132.08 429.505   3
  -1   9  -1 1885.47 392.207   3
   1   9   1 1569.66 361.400   3
  -1   9  -2 535.361 182.216   3
   1   9   2 235.241 136.693   3
  -1  -9  -2 338.578 156.660   2
  -1  -9  -3 245.243 149.091   2
   1   9   3 26.7287 102.675   3
  -1   9  -3 231.703 152.256   3
  -1   9  -4 721.723 248.048   3
  -1  -9  -4 493.153 235.346   2
  -1  -9  -5 2305.21 477.651   2
  -1   9  -5 2725.60 473.524   3
  -1  -9  -6 4156.43 636.445   2
  -1   9  -6 5556.82 685.377   3
  -1  -9  -7 7975.50 891.789   2
  -1  -9  -8 5148.99 724.586   2
  -1  -9  -9 3838.17 642.766   2
  -1  -9 -10 997.498 330.658   2
  -1  -9 -11 451.400 232.659   2
  -1  -9 -12 383.227 199.520   2
  -1  -9 -13 1592.27 436.344   2
  -1  -9 -14 1827.97 493.724   2
  -1  -9 -15 781.080 325.586   2
  -1  -9 -16 797.814 342.126   2
  -1  -9 -17-272.396 218.071   2
  -1  -9 -18 505.352 284.453   2
  -1  -9 -19 472.396 249.302   2
  -1  -9 -20 851.371 398.624   2
   1   9  21 1491.48 475.876   1
  -1  -9 -21 891.933 446.198   2
   1   9  22 261.963 257.912   1
  -1  -9 -22 438.481 252.410   2
   1   9  23 303.699 258.541   1
   1   9  24 98.1181 168.622   1
   1 -10 -20 537.676 307.390   2
   1 -10 -19 3.48371 162.994   2
   1 -10 -18 570.731 312.328   2
   1 -10 -17 56.8090 81.2932   2
   1 -10 -16 360.506 253.597   2
   1 -10 -15 824.795 358.063   2
   1 -10 -14 185.456 155.687   2
   1 -10 -13 1023.40 381.456   2
   1 -10 -12-135.333 131.498   2
   1 -10 -11-15.5426 80.5259   2
   1 -10 -10 176.051 187.901   2
   1 -10  -9 5826.97 814.956   2
   1 -10  -8 197.180 175.904   2
   1  10  -7 8852.92 957.254   3
   1 -10  -7 8677.05 994.521   2
   1  10  -6 325.277 259.192   3
   1 -10  -6 148.077 197.006   2
   1  10  -5 2328.22 491.408   3
   1 -10  -5 2640.41 517.987   2
   1 -10  -4-182.154 155.859   2
   1  10  -4 100.813 164.715   3
   1 -10  -3 637.898 264.393   2
   1  10  -3 1374.18 389.658   3
   1 -10  -2 712.317 281.485   2
   1  10  -2 6.25231 100.882   3
   1  10  -1 7060.07 841.718   3
  -1  10   1 7642.09 848.755   3
   1  10   0 879.253 327.253   3
  -1  10   0 305.076 235.694   3
  -1  10  -1 4206.78 617.219   3
   1  10   1 4050.18 633.676   3
  -1  10  -2-71.5655 75.1687   3
   1  10   2 51.4038 84.2657   3
  -1 -10  -3 122.191 126.842   2
  -1  10  -3-34.5962 129.074   3
   1  10   3-28.3175 144.622   3
  -1  10  -4 107.534 116.737   3
  -1 -10  -4 143.458 185.747   2
  -1  10  -5 2910.85 527.740   3
  -1 -10  -5 2376.49 492.982   2
  -1 -10  -6 210.354 198.133   2
  -1  10  -6 630.780 273.438   3
  -1 -10  -7 4929.16 751.610   2
  -1  10  -7 4948.85 702.979   3
  -1 -10  -8 451.034 220.800   2
  -1  10  -8 606.958 266.499   3
  -1 -10  -9 1244.52 387.648   2
  -1 -10 -10 110.993 164.622   2
  -1 -10 -11 546.497 260.274   2
  -1 -10 -12 90.6470 87.8904   2
  -1 -10 -13 1216.22 371.569   2
  -1 -10 -14 69.0190 149.443   2
  -1 -10 -15 960.385 367.336   2
  -1 -10 -16 294.372 237.474   2
  -1 -10 -17 23.4591 189.983   2
  -1 -10 -18-12.2707 132.125   2
  -1 -10 -19 268.581 306.515   2
  -1 -10 -20 192.236 240.526   2
   1  10  22 228.774 245.538   1
   1 -11 -18-409.023 269.803   2
   1 -11 -17 813.053 413.211   2
   1 -11 -16 624.943 314.075   2
   1 -11 -15 892.373 381.959   2
   1 -11 -14 502.482 295.018   2
   1 -11 -13 217.240 198.360   2
   1 -11 -12 236.808 223.503   2
   1 -11 -11-115.400 216.648   2
   1 -11 -10 778.686 356.970   2
   1  11  -9 3440.67 650.019   3
   1 -11  -9 4099.82 734.534   2
   1  11  -8 1707.39 472.791   3
   1 -11  -8 1417.90 459.413   2
   1 -11  -7 5774.74 856.295   2
   1  11  -7 6204.99 844.416   3
   1 -11  -6 928.327 375.538   2
   1  11  -6 701.673 304.261   3
   1 -11  -5 1398.70 429.348   2
   1  11  -5 1514.02 424.738   3
   1 -11  -4-77.9578 201.581   2
   1  11  -4-50.2505 117.512   3
   1  11  -3 1692.05 432.370   3
   1 -11  -3 1549.32 418.762   2
   1  11  -2 1245.06 394.414   3
   1 -11  -2 1810.37 469.741   2
  -1  11   1 7161.48 893.935   3
   1 -11  -1 8534.82 989.880   2
   1  11  -1 8015.95 959.887   3
  -1  11   0 2657.55 529.347   3
   1  11   0 2144.88 515.965   3
  -1 -11  -1 5920.82 831.731   2
   1  11   1 5177.04 778.719   3
  -1  11  -1 5014.78 732.890   3
  -1  11  -2 596.497 275.460   3
  -1 -11  -2 688.352 311.804   2
   1  11   2 204.970 150.103   3
  -1 -11  -3 50.8186 127.982   2
  -1  11  -3 127.998 85.7144   3
  -1 -11  -4 88.5247 109.015   2
  -1  11  -4 160.869 163.354   3
  -1  11  -5 2280.35 493.406   3
  -1 -11  -5 2282.82 533.357   2
  -1 -11  -6 2270.41 537.765   2
  -1  11  -6 1568.23 426.007   3
  -1 -11  -7 4224.47 731.003   2
  -1  11  -7 4375.10 697.815   3
  -1  11  -8 2860.46 560.727   3
  -1 -11  -8 2206.32 561.303   2
  -1  11  -9 1587.81 440.141   3
  -1 -11  -9 1004.20 398.001   2
  -1 -11 -10 499.531 255.537   2
  -1  11 -10 746.915 282.196   3
  -1  11 -11-234.618 252.390   3
  -1 -11 -11 45.5700 107.169   2
  -1 -11 -12 138.895 245.994   2
  -1 -11 -13 1213.87 433.144   2
  -1 -11 -14 120.662 187.631   2
  -1 -11 -15 1551.04 493.581   2
  -1 -11 -16 153.080 147.749   2
  -1 -11 -17 66.4545 111.779   2
  -1 -11 -18-278.924 113.899   2
   1 -12 -16 911.705 407.452   2
   1 -12 -15 262.787 199.214   2
   1 -12 -14 1095.91 453.422   2
   1 -12 -13-0.67256 170.537   2
   1 -12 -12-72.7775 115.460   2
   1  12 -11-144.671 140.444   3
   1 -12 -11 128.520 187.769   2
   1  12 -10 1669.22 465.466   3
   1 -12 -10 1033.57 373.399   2
   1 -12  -9 638.675 303.447   2
   1  12  -9 929.140 367.865   3
   1 -12  -8 2952.77 654.504   2
   1  12  -8 2875.83 608.632   3
   1 -12  -7 636.569 300.104   2
   1  12  -7 720.206 308.626   3
   1  12  -6 1186.65 407.406   3
   1 -12  -6 1859.87 503.598   2
   1 -12  -5 736.487 343.345   2
   1  12  -5 399.303 273.811   3
   1  12  -4 5.33396 138.705   3
   1 -12  -4-257.813 199.737   2
   1 -12  -3-5.12195 150.678   2
   1  12  -3 278.943 205.396   3
   1 -12  -2 1417.18 442.108   2
   1  12  -2 659.611 327.483   3
   1 -12  -1 14.6198 124.667   2
   1  12  -1-85.5126 207.518   3
   1  12   0 2117.83 490.432   3
  -1  12   0 2327.64 511.066   3
  -1 -12  -1 546.533 307.527   2
   1  12   1 443.857 303.613   3
  -1  12  -1 43.8787 100.827   3
   1  12   2 308.875 178.388   3
  -1  12  -2 460.754 153.919   3
  -1 -12  -2 482.056 274.640   2
  -1 -12  -3-45.6032 109.604   2
  -1  12  -3 187.248 166.400   3
  -1  12  -4 590.084 282.287   3
  -1 -12  -4 555.010 230.279   2
  -1  12  -5 942.955 324.174   3
  -1 -12  -5 250.547 227.641   2
  -1  12  -6 3069.14 608.884   3
  -1 -12  -6 3871.72 756.284   2
  -1  12  -7 1727.77 474.270   3
  -1 -12  -7 960.773 407.606   2
  -1 -12  -8 3405.97 703.051   2
  -1  12  -8 3567.14 663.979   3
  -1 -12  -9 70.2798 118.357   2
  -1  12  -9 830.615 341.037   3
  -1 -12 -10 1484.88 503.185   2
  -1  12 -10 721.931 322.085   3
  -1  12 -11 132.642 181.054   3
  -1 -12 -11-194.139 158.472   2
  -1 -12 -12 713.024 362.733   2
  -1  12 -12 276.895 216.824   3
  -1  12 -13 622.923 294.805   3
  -1 -12 -13-0.68337 212.502   2
  -1 -12 -14 973.589 411.415   2
  -1 -12 -15 549.650 310.526   2
   1  13 -14 1359.22 470.426   3
   1  13 -13 445.709 277.660   3
   1  13 -12 694.976 313.213   3
   1 -13 -12 980.473 406.360   2
   1  13 -11 96.0432 95.5402   3
   1 -13 -11-42.9942 97.6281   2
   1 -13 -10 97.6520 84.8098   2
   1  13 -10-26.7792 125.292   3
   1  13  -9-65.5192 115.730   3
   1 -13  -9-302.353 227.859   2
   1  13  -8 622.457 301.738   3
   1 -13  -8 559.720 298.947   2
   1  13  -7 449.050 288.218   3
   1 -13  -7-174.292 115.574   2
   1  13  -6 643.284 350.801   3
   1 -13  -6 631.481 365.008   2
   1 -13  -5 25.3527 122.040   2
   1  13  -5 47.2832 83.3503   3
   1 -13  -4-44.5805 125.281   2
   1  13  -4-157.615 163.043   3
   1  13  -3-219.777 189.175   3
   1 -13  -3-58.5995 219.845   2
   1  13  -2 1004.48 355.360   3
   1 -13  -2 1360.49 483.109   2
   1  13  -1 220.290 180.562   3
   1 -13  -1 483.531 305.257   2
   1  13   0 2204.78 555.052   3
  -1 -13   0 1847.88 555.615   2
   1 -13   0 1425.47 454.002   2
   1  13   1 207.011 160.838   3
  -1  13  -1-123.984 144.319   3
  -1 -13  -1 376.218 286.563   2
  -1  13  -2 469.174 239.577   3
  -1 -13  -2 175.216 202.477   2
  -1  13  -3-291.023 225.830   3
  -1 -13  -3-48.3505 167.713   2
  -1  13  -4-87.9422 120.515   3
  -1 -13  -4-148.403 175.508   2
  -1 -13  -5-185.505 147.524   2
  -1  13  -5-19.6970 108.063   3
  -1 -13  -6 714.460 346.733   2
  -1  13  -6 675.178 304.459   3
  -1 -13  -7 291.185 218.621   2
  -1  13  -7-367.314 231.788   3
  -1 -13  -8 157.364 95.4885   2
  -1  13  -8 351.022 180.033   3
  -1  13  -9 244.715 218.009   3
  -1 -13  -9-67.7045 219.929   2
  -1  13 -10 301.626 223.894   3
  -1 -13 -10 211.025 202.904   2
  -1 -13 -11-246.680 212.411   2
  -1  13 -11-22.9891 142.107   3
  -1  13 -12 1116.33 409.593   3
  -1 -13 -12 1292.32 491.629   2
  -1  13 -13 501.074 294.392   3
  -1  13 -14 950.887 419.426   3
  -1  13 -15 117.508 104.053   3
  -1  13 -16 489.848 308.151   3
   1  14 -11-43.3891 193.088   3
   1  14 -10-299.124 229.975   3
   1  14  -9 683.226 365.104   3
   1  14  -8 609.333 343.634   3
   1 -14  -7 634.247 343.857   2
   1  14  -7 1013.57 406.257   3
   1 -14  -6 351.917 307.467   2
   1  14  -6 840.060 355.583   3
   1 -14  -5 33.4465 94.4162   2
   1  14  -5-154.042 185.759   3
   1  14  -4-39.8558 116.007   3
   1 -14  -4 380.737 297.951   2
   1  14  -3-483.832 285.407   3
   1 -14  -3 208.298 99.8322   2
   1  14  -2 1122.25 423.442   3
   1 -14  -2 222.556 267.728   2
   1 -14  -1 930.729 402.157   2
  -1 -14   1 887.336 393.158   2
   1  14  -1 431.198 283.186   3
  -1 -14   0 871.984 430.990   2
   1  14   0 1442.11 488.743   3
   1 -14   0 902.845 373.646   2
  -1 -14  -1 743.302 369.686   2
   1 -14   1 501.160 335.440   2
  -1 -14  -2 396.757 258.382   2
  -1  14  -2 176.665 173.901   3
  -1  14  -3 81.9077 157.071   3
  -1 -14  -3 178.894 146.091   2
  -1  14  -4 12.6203 195.859   3
  -1 -14  -4 28.2484 106.013   2
  -1  14  -5 100.519 129.963   3
  -1 -14  -5 898.175 389.340   2
  -1 -14  -6 742.757 428.270   2
  -1  14  -6 526.645 271.656   3
  -1 -14  -7 822.232 402.906   2
  -1  14  -7 503.091 279.447   3
  -1  14  -8 207.291 191.472   3
  -1  14  -9-39.7659 106.516   3
  -1  14 -10-177.478 181.777   3
  -1  14 -11 121.390 168.306   3
  -1  14 -12 894.081 368.789   3
  -1  14 -13-47.6788 120.077   3
  -1  15  -3 438.329 293.032   3
  -1  15  -4-2.08599 140.149   3
  -1  15  -5 1095.25 469.767   3
  -1  15  -6 568.169 287.576   3
   2   0 -28 1394.02 499.938   2
   2   0 -27 217.686 224.453   2
   2   0 -26 453.022 254.024   2
   2   0 -25 182.448 113.497   2
   2   0 -24 4440.23 761.218   2
   2   0 -23 20.1789 151.370   2
   2   0 -22 5780.12 799.695   2
   2   0 -21 44.9898 157.820   2
   2   0 -20 114.288 107.793   2
   2   0 -20 121.516 80.9567   6
   2   0 -19-70.3415 132.652   2
   2   0 -19-30.1781 76.3553   6
   2   0 -18 873.804 197.241   6
   2   0 -18 1196.67 326.170   2
   2   0 -17 598.421 195.101   6
   2   0 -17 1313.88 381.878   2
   2   0 -16 2577.89 453.603   2
   2   0 -16 2217.61 301.946   6
   2   0 -15 2286.46 469.418   2
   2   0 -15 1178.01 275.684   6
  -2   0  14 1642.58 281.793   4
   2   0 -14 1285.46 294.339   2
   2   0 -14 1654.34 253.244   6
   2   0 -13 184.751 151.263   2
   2   0 -13 252.870 144.131   6
  -2   0  13 203.178 148.446   4
   2   0 -12 829.500 222.682   2
   2   0 -12 538.192 131.976   6
  -2   0  12 724.285 168.952   4
   2   0 -11 15.6186 45.8736   6
  -2   0  11 11.4178 40.1182   1
  -2   0  11 34.3640 34.7504   4
   2   0 -11 113.374 134.579   2
   2   0 -10 51413.2 1262.41   6
  -2   0  10 53341.9 1339.23   4
   2   0 -10 55009.8 1613.58   2
  -2   0  10 53040.1 883.197   1
  -2   0   9 251.773 117.063   4
   2   0  -9 391.438 203.221   2
  -2   0   9 25.7829 38.0594   1
   2   0  -9 221.892 140.406   6
  -2   0   8 115231. 1072.57   1
   2   0  -8 118811. 2156.08   2
   2   0  -8 115500. 1808.71   6
   2   0  -7 35.3844 46.8211   6
   2   0  -7 80.2505 101.350   2
   2   0  -6 93120.2 1634.94   2
   2   0  -6 87793.5 1474.66   6
   2   0  -5 86.8617 68.0323   2
   2   0  -5 32.5658 47.9989   6
   2   0  -4 1037.74 151.964   6
  -2   0   4 2385.29 216.021   2
   2   0  -4 2013.63 197.054   2
   2   0  -3 128.542 60.4367   6
   2   0  -3 50.5478 60.4685   2
  -2   0   3 31.0525 22.4892   2
   2   0  -2 78580.8 1224.25   6
  -2   0   2 73697.2 903.786   1
  -2   0   2 77988.1 906.277   2
   2   0  -1 285.501 70.1203   6
   2   0   0 344432. 2596.81   1
   2   0   1 22.1274 29.5346   1
  -2   0  -2 38113.5 559.355   3
  -2   0  -2 37534.9 584.345   2
   2   0   2 41365.3 945.583   1
   2   0   3 56.8908 36.5447   2
   2   0   3 58.7757 41.0259   5
   2   0   3 80.9887 68.0202   1
  -2   0  -3 47.6061 29.0180   2
   2   0   4 29813.9 813.326   5
  -2   0  -4 28168.6 776.747   5
  -2   0  -4 29390.2 726.913   2
   2   0   4 29753.6 748.749   2
   2   0   4 30392.2 908.202   1
   2   0   5 122.040 81.7892   1
  -2   0  -5 135.807 85.0560   2
   2   0   5 38.1464 38.1111   5
   2   0   5 102.185 69.5177   2
   2   0   6 61598.1 1247.05   5
   2   0   6 62355.5 1345.44   2
  -2   0  -6 62245.3 1311.01   2
   2   0   6 63660.5 1472.81   1
  -2   0  -7 306.755 137.223   2
   2   0   7 532.451 178.609   1
   2   0   7 260.858 121.135   5
   2   0   7 147.917 113.505   2
   2   0   8 26199.6 865.466   5
   2   0   8 26401.0 1020.90   1
  -2   0  -8 25073.4 970.462   2
   2   0   8 24480.2 980.484   2
   2   0   9 172.480 124.913   2
  -2   0  -9 112.748 115.631   1
   2   0   9 410.991 168.424   1
   2   0   9 265.938 107.163   5
  -2   0  -9 513.509 167.265   2
   2   0  10 618.780 138.527   5
   2   0  10 793.037 199.253   2
  -2   0 -10 747.884 184.506   2
  -2   0 -10 578.260 169.799   4
   2   0  10 371.975 143.578   1
  -2   0 -10 560.274 158.941   1
   2   0  11-27.2511 36.8434   5
   2   0  11-2.12342 49.6035   2
   2   0  11 62.1888 49.8528   1
  -2   0 -11-3.47189 58.4956   1
  -2   0 -11-46.5285 71.0142   2
  -2   0 -11 2.50019 68.8895   4
   2   0  12 5374.70 570.673   2
  -2   0 -12 7140.70 644.606   2
  -2   0 -12 7362.83 659.221   4
   2   0  12 7319.29 508.973   5
   2   0  12 7631.26 632.115   1
  -2   0 -13 1275.61 333.954   4
  -2   0 -13 396.139 240.925   2
   2   0  13 682.943 183.674   5
   2   0  13 736.862 258.964   2
  -2   0 -14 11363.2 882.528   2
   2   0  14 10937.1 655.255   5
  -2   0 -14 12054.2 901.890   4
   2   0  15 285.442 141.491   5
  -2   0 -15 222.119 175.449   2
  -2   0 -15 414.938 232.702   4
  -2   0 -16 16901.7 1156.73   2
  -2   0 -16 17037.3 1149.09   4
   2   0  16 15711.5 822.722   5
  -2   0 -17 142.753 190.518   4
   2   0  17 140.256 108.314   5
  -2   0 -17-67.5036 81.5525   2
  -2   0 -18 2726.36 509.707   2
  -2   0 -18 2584.83 486.529   4
   2   0  18 2522.18 338.215   5
  -2   0 -19 352.014 219.282   2
  -2   0 -19 266.792 220.221   4
  -2   0 -20 960.977 303.665   4
  -2   0 -20 981.059 308.601   2
  -2   0 -21 679.652 304.517   4
  -2   0 -21 401.262 202.460   2
  -2   0 -22 2438.85 533.327   2
  -2   0 -23 29.3910 106.791   2
  -2   0 -24 136.916 249.020   2
  -2   0 -25 49.5905 134.386   2
  -2   0 -26 1144.81 395.089   2
  -2   0 -27 2312.00 748.965   2
   2   1 -28 164.015 192.553   2
   2  -1 -28 256.968 260.047   2
   2   1 -27 100.932 86.4388   2
   2  -1 -27 375.947 260.861   2
   2  -1 -26 368.803 230.448   2
   2   1 -26 38.6447 80.2309   2
   2  -1 -25 351.663 184.276   2
   2   1 -25 492.578 311.605   2
   2  -1 -24 982.520 355.824   2
   2   1 -24 948.830 376.666   2
   2   1 -23 224.962 190.944   2
   2  -1 -23 236.852 158.030   2
   2  -1 -22 5288.33 787.716   2
   2   1 -22 4439.91 726.714   2
   2  -1 -21 2873.71 562.540   2
   2   1 -21 2776.10 554.979   2
   2  -1 -20 1702.60 423.453   2
   2   1 -20 1240.16 378.509   2
   2  -1 -20 1052.84 247.592   6
   2   1 -19 629.143 250.660   2
   2   1 -19 519.685 142.935   6
   2  -1 -19 529.200 175.507   6
   2  -1 -19 566.435 253.766   2
   2   1 -18-27.7453 72.3058   2
  -2   1  18 8.59929 67.6536   1
   2   1 -18 30.1501 51.4383   6
   2  -1 -17 6431.15 737.886   2
   2   1 -17 6150.27 457.049   6
  -2   1  17 7622.95 543.997   1
   2   1 -17 7380.40 792.982   2
  -2   1  16 3292.08 349.135   1
  -2   1  16 3544.41 474.926   4
   2  -1 -16 3061.31 492.629   2
   2   1 -16 4064.71 567.350   2
   2   1 -16 2840.85 307.402   6
   2  -1 -15 20927.6 1247.70   2
   2   1 -15 19119.7 792.364   6
  -2   1  15 19215.6 1083.13   4
   2   1 -15 20292.7 1239.61   2
  -2   1  15 22419.7 858.094   1
   2   1 -14 5668.03 622.648   2
  -2   1  14 4914.67 527.057   4
  -2   1  14 4888.49 382.949   1
   2   1 -14 5005.40 391.965   6
   2  -1 -14 5677.73 628.864   2
   2   1 -13 9677.99 787.292   2
  -2   1  13 10703.6 538.214   1
   2   1 -13 9463.98 529.712   6
  -2   1  13 10552.8 750.979   4
   2  -1 -13 9898.64 799.830   2
  -2   1  12 195.865 99.2881   4
   2   1 -12 350.207 104.485   6
   2   1 -12 688.063 223.936   2
  -2   1  12 362.009 95.0715   1
   2  -1 -12 416.347 177.143   2
  -2   1  11 1011.84 147.098   1
   2   1 -11 777.012 143.154   6
  -2   1  11 862.729 192.340   4
  -2  -1  11 963.652 168.509   4
   2   1 -11 1119.06 247.278   2
   2  -1 -11 1110.22 231.388   2
   2  -1 -10 15939.8 884.765   2
   2   1 -10 13851.7 592.707   6
   2   1 -10 15902.4 881.947   2
  -2  -1  10 14117.9 592.250   4
   2  -1  -9 10895.6 696.432   2
   2   1  -9 8718.72 458.346   6
  -2  -1   9 9325.12 448.842   4
   2   1  -9 10685.8 693.383   2
  -2  -1   8 32348.1 755.993   4
   2  -1  -8 32672.6 1126.03   2
   2   1  -8 31819.4 1117.52   2
   2   1  -8 30728.8 835.962   6
  -2  -1   7 113.481 58.1375   6
   2  -1  -7 324.438 111.257   2
   2   1  -7 317.890 81.3775   6
  -2  -1   7 246.158 64.8924   4
   2   1  -7 420.250 133.843   2
   2  -1  -6 13147.3 630.571   2
   2   1  -6 13252.7 520.975   6
   2   1  -6 14564.0 647.536   2
  -2  -1   6 14292.8 560.153   6
   2  -1  -5 5146.39 362.629   2
   2   1  -5 5582.64 376.375   2
   2  -1  -4 4686.25 318.688   2
  -2  -1   4 4286.86 305.906   2
   2   1  -4 4474.61 307.928   2
   2  -1  -3 2845.34 217.400   2
  -2   1   3 2926.15 222.740   2
  -2  -1   3 2846.57 219.888   2
   2  -1  -3 2857.89 248.186   6
  -2   1   2 187.710 58.0669   2
  -2  -1   2 298.390 60.8301   2
   2  -1  -2 236.951 60.8077   2
   2  -1  -2 495.509 108.327   6
   2  -1  -1 29177.4 726.289   5
   2  -1  -1 29235.2 565.302   2
   2  -1  -1 32683.2 810.355   6
   2   1   0 32539.6 742.649   1
   2  -1   0 27434.1 740.084   5
   2  -1   0 29151.6 745.271   6
   2  -1   1 6133.43 322.838   6
   2   1   1 6109.06 298.145   3
   2   1   1 6523.19 357.898   1
  -2  -1  -1 6746.77 255.888   2
   2  -1   1 6115.47 353.149   5
  -2   1  -2 10247.5 413.824   6
   2   1   2 9879.14 470.511   1
   2   1   2 10393.8 403.586   3
  -2  -1  -2 10714.1 407.281   3
  -2  -1  -2 10544.4 359.047   2
   2  -1   2 10792.5 487.172   5
   2  -1   2 10415.5 414.522   6
  -2  -1  -3 3223.93 223.159   2
   2  -1   3 3253.89 234.758   2
  -2  -1  -3 3270.21 240.729   3
   2   1   3 3153.68 224.812   2
   2   1   3 3134.36 283.171   1
   2  -1   3 3596.13 288.741   5
  -2   1  -3 3283.35 226.703   6
   2   1   4 16464.9 687.927   1
   2  -1   4 17865.3 668.544   5
  -2   1  -4 17225.8 594.755   2
  -2  -1  -4 16237.1 562.717   5
   2   1   4 16670.1 583.951   2
   2  -1   4 16855.4 591.793   2
  -2  -1  -4 16691.0 581.552   2
  -2   1  -4 16203.9 501.164   6
  -2   1  -5 2076.35 230.135   2
   2  -1   5 1960.91 228.562   2
  -2   1  -5 1951.95 175.259   6
   2   1   5 2064.29 229.202   2
   2  -1   5 2172.27 246.610   5
   2   1   5 1927.64 245.625   1
  -2  -1  -5 1840.71 196.721   5
  -2  -1  -5 2143.66 225.908   2
  -2  -1  -6 19984.7 646.237   5
   2  -1   6 20875.2 774.260   5
   2   1   6 21112.1 800.318   2
  -2  -1  -6 20995.6 773.605   2
  -2   1  -6 19904.1 768.479   2
   2  -1   6 20282.0 784.857   2
   2   1   6 19513.0 818.381   1
  -2  -1  -7 23193.7 714.590   5
   2   1   7 24525.9 957.008   1
   2   1   7 24446.4 922.226   2
  -2   1  -7 24177.5 902.722   2
   2  -1   7 24395.5 920.769   2
  -2  -1  -7 23470.4 879.260   2
   2   1   8 20215.8 902.682   2
   2  -1   8 18499.1 866.562   2
  -2  -1  -8 17985.1 837.266   2
  -2   1  -8 18782.3 849.471   2
   2   1   8 18508.8 869.508   1
  -2   1  -8 19201.7 888.003   1
   2  -1   9 18303.0 915.871   2
   2   1   9 19151.2 927.684   2
   2   1   9 18019.2 883.504   1
  -2   1  -9 16985.3 857.993   2
  -2   1  -9 17703.9 889.220   1
  -2  -1  -9 16944.8 851.210   2
  -2   1 -10 138.120 103.257   2
  -2   1 -10 90.9034 91.4294   1
   2  -1  10 42.8674 59.2390   2
  -2  -1 -10 33.0297 69.8366   2
   2   1  10 182.608 104.254   2
   2   1  10 78.5384 60.3442   1
  -2   1 -11 657.175 186.377   1
  -2   1 -11 1034.40 241.280   2
   2  -1  11 834.983 218.515   2
  -2  -1 -11 747.807 201.913   2
  -2  -1 -11 1028.79 261.985   4
   2  -1  11 834.230 175.732   5
   2   1  11 682.871 196.507   2
   2   1  11 571.818 191.669   1
  -2  -1 -12 5831.90 599.851   4
   2  -1  12 5685.35 477.616   5
   2  -1  12 4010.00 498.970   2
  -2   1 -12 4204.02 482.258   1
  -2   1 -12 6251.15 599.214   2
   2   1  12 4226.89 512.765   2
  -2  -1 -12 5393.65 557.317   2
   2   1  12 5149.10 528.528   1
  -2   1 -13 11116.7 841.143   2
  -2   1 -13 10968.1 817.278   4
   2   1  13 11144.1 865.564   2
   2  -1  13 10474.8 673.673   5
   2  -1  13 10329.0 843.165   2
  -2  -1 -13 11280.7 839.429   2
  -2   1 -13 8272.01 692.510   1
  -2  -1 -13 10141.0 848.936   4
   2   1  13 11788.4 824.788   1
  -2   1 -14 3867.94 494.946   1
  -2  -1 -14 5292.07 605.684   2
  -2   1 -14 4748.14 555.005   4
  -2   1 -14 5127.56 599.258   2
   2   1  14 5402.13 582.529   1
   2  -1  14 4992.48 471.029   5
  -2  -1 -14 5865.50 648.588   4
  -2  -1 -15 121.244 88.7173   2
  -2  -1 -15 243.417 141.073   4
  -2   1 -15 121.905 130.664   4
  -2   1 -15 124.093 95.1344   2
   2   1  15 240.014 137.128   1
   2  -1  15 243.365 100.182   5
   2  -1  16 1130.85 235.142   5
   2   1  16 1450.37 319.458   1
  -2  -1 -16 1199.73 323.049   4
  -2   1 -16 839.415 257.543   2
  -2   1 -16 1206.46 303.182   4
  -2  -1 -16 1459.50 348.873   2
  -2   1 -17 3042.40 500.604   4
  -2  -1 -17 3123.90 512.679   2
  -2  -1 -17 2487.11 465.152   4
   2  -1  17 2895.35 380.890   5
   2   1  17 3017.51 479.108   1
  -2   1 -17 2934.21 504.349   2
  -2  -1 -18 1052.46 325.113   2
  -2  -1 -18 1130.93 328.244   4
  -2   1 -18 1203.38 364.524   2
   2  -1  18 1017.20 238.715   5
   2   1  18 1036.47 287.467   1
  -2   1 -18 1196.92 323.478   4
  -2  -1 -19 6621.44 803.037   4
  -2   1 -19 7023.09 830.692   2
  -2  -1 -19 5928.59 766.491   2
  -2   1 -19 6611.97 765.841   4
  -2   1 -20 5346.18 763.950   2
  -2   1 -20 5228.51 698.903   4
  -2  -1 -20 4267.51 665.581   2
  -2   1 -21 3986.75 658.833   2
  -2  -1 -21 3034.26 616.063   2
  -2   1 -21 3379.16 579.875   4
  -2  -1 -22 1694.13 451.018   2
  -2   1 -22 1786.20 453.937   2
  -2   1 -22 2737.26 535.141   4
  -2   1 -23-31.6038 82.6055   4
  -2   1 -23 178.175 128.928   2
  -2  -1 -23 214.596 205.386   2
  -2  -1 -24 92.1284 140.903   2
  -2   1 -24-111.274 149.331   2
  -2  -1 -25 596.141 296.483   2
  -2   1 -25 156.543 141.183   2
  -2  -1 -26 653.389 333.729   2
  -2   1 -26 134.806 205.025   2
  -2  -1 -27 18.3305 146.289   2
  -2   1 -27-157.733 196.133   2
   2   2 -28 351.285 258.296   2
   2  -2 -28-20.4184 115.377   2
   2   2 -27 68.2681 104.291   2
   2  -2 -27-105.492 90.7729   2
   2  -2 -26 648.342 329.307   2
   2   2 -26-27.2631 167.271   2
   2  -2 -25 407.030 249.043   2
   2   2 -25 241.698 204.730   2
   2   2 -24 178.454 220.250   2
   2  -2 -24 466.635 309.872   2
   2   2 -23 3755.07 686.659   2
   2  -2 -23 3674.31 684.264   2
   2  -2 -22 657.597 321.715   2
  -2   2  22 729.373 248.735   1
   2   2 -22 867.062 357.278   2
   2  -2 -21 5214.63 753.154   2
  -2   2  21 5188.99 541.546   1
   2   2 -21 5915.28 815.858   2
   2   2 -20 1627.91 430.800   2
   2  -2 -20 1621.09 424.178   2
  -2   2  20 1360.54 266.232   1
   2   2 -19 577.203 196.082   2
   2  -2 -19 823.724 291.639   2
  -2   2  19 713.445 179.970   1
   2  -2 -18 581.427 238.469   2
  -2   2  18 728.265 194.499   1
   2   2 -18 935.896 287.164   2
  -2   2  17 3262.38 383.780   1
   2  -2 -17 3075.07 517.558   2
   2   2 -17 3296.50 539.158   2
  -2   2  16 9180.78 619.227   1
   2   2 -16 11411.4 955.835   2
   2  -2 -16 9905.64 911.271   2
   2  -2 -15 11154.9 930.367   2
   2   2 -15 11726.7 938.284   2
  -2   2  15 11806.2 675.349   1
  -2   2  15 11008.7 876.483   4
   2   2 -14 12985.8 565.093   1
  -2   2  14 13113.6 695.177   1
   2  -2 -14 15701.2 1056.00   2
  -2   2  14 13736.2 941.828   4
   2   2 -14 14927.1 1020.59   2
   2   2 -13 6517.34 662.933   2
   2  -2 -13 5900.52 620.771   2
  -2   2  13 5996.29 602.212   4
   2   2 -13 6390.00 378.574   1
  -2   2  12 2097.32 135.376   5
   2   2 -12 2359.82 384.037   2
  -2   2  12 2558.01 379.280   4
   2  -2 -12 2377.87 376.217   2
   2   2 -12 2093.06 205.677   1
   2  -2 -11 104.614 87.6507   2
   2   2 -11 61.3036 90.0414   2
  -2   2  11 42.8184 18.0025   5
   2   2 -11 58.1291 47.2984   1
   2  -2 -10 427.151 195.330   2
   2   2 -10 394.895 158.239   2
  -2   2  10 102.564 42.6851   5
   2   2 -10 82.5576 55.3991   1
   2  -2  -9 44651.0 1448.30   2
   2   2  -9 45022.4 1456.28   2
  -2  -2   9 43747.3 1018.00   6
  -2   2   9 41753.5 706.329   5
   2   2  -8 630.346 212.233   2
  -2  -2   8 586.109 130.554   6
   2  -2  -8 472.482 178.491   2
  -2   2   8 389.985 79.6134   5
  -2   2   7 36948.1 705.244   5
  -2  -2   7 34052.5 854.767   6
   2  -2  -7 34195.6 1145.58   2
  -2  -2   6 3636.21 281.563   6
   2  -2  -6 4742.92 400.505   2
  -2   2   6 4028.63 246.267   5
   2  -2  -5 23701.1 839.493   2
  -2   2   5 23789.0 617.094   5
  -2  -2   4 4737.96 359.569   2
   2  -2  -4 5031.97 292.936   5
   2  -2  -4 4950.82 358.959   2
   2  -2  -3 4420.14 285.318   5
   2  -2  -3 6326.15 384.295   2
  -2   2   3 5828.67 376.160   2
   2  -2  -2 9154.30 434.825   2
  -2  -2   2 6970.52 289.175   4
   2  -2  -2 6892.40 373.347   5
  -2  -2   1 65342.7 1032.32   4
   2  -2  -1 63807.7 1196.72   5
  -2  -2   0 510.689 110.044   4
   2  -2   0 564.665 85.9410   3
  -2   2  -1 1839.21 140.963   3
   2  -2   1 1767.25 191.150   6
  -2  -2  -1 1681.90 198.483   4
   2   2   1 1923.07 212.102   3
  -2  -2  -2 1462.93 172.126   2
   2  -2   2 1451.70 167.533   6
  -2  -2  -2 1467.67 188.348   3
   2   2   2 1246.90 173.104   3
   2  -2   3 7021.36 358.717   6
  -2  -2  -3 7530.33 412.674   2
  -2  -2  -3 8149.11 456.173   3
   2   2   3 7519.75 411.026   2
   2  -2   4 1054.08 171.444   2
   2   2   4 1258.39 180.097   2
  -2  -2  -4 1170.54 180.854   3
   2  -2   4 1088.33 134.600   6
  -2  -2  -4 1074.68 168.074   2
  -2  -2  -5 31983.8 1001.43   3
   2  -2   5 29866.0 953.612   2
  -2  -2  -5 29702.9 931.949   2
   2   2   5 30420.8 958.953   2
  -2   2  -5 29921.7 676.992   6
   2   2   6 4139.73 375.334   2
  -2  -2  -6 4204.59 376.392   2
   2  -2   6 3919.24 368.701   2
  -2   2  -6 4411.89 251.019   6
   2  -2   7 34808.9 1182.04   2
   2   2   7 38262.6 1260.58   1
   2   2   7 38913.2 1220.77   2
  -2  -2  -7 35044.8 871.449   5
  -2   2  -7 35882.4 699.875   6
  -2  -2  -7 35152.3 1150.62   2
  -2   2  -8 13445.2 411.850   6
   2  -2   8 14128.5 793.031   2
  -2   2  -8 12698.1 742.578   1
   2   2   8 12672.3 758.210   1
   2   2   8 14458.9 794.679   2
  -2  -2  -8 13217.8 734.153   2
  -2  -2  -8 13730.0 533.881   5
  -2  -2  -9 7793.65 595.539   2
   2   2   9 7943.30 615.542   2
  -2   2  -9 7530.22 297.347   6
   2  -2   9 8100.09 626.392   2
  -2   2  -9 8528.93 632.251   2
  -2  -2  -9 7915.07 409.591   5
  -2   2  -9 8452.66 625.405   1
   2   2   9 8487.46 632.472   1
  -2   2 -10 2952.76 179.285   6
   2   2  10 3136.17 398.400   1
  -2  -2 -10 3196.91 402.978   2
   2   2  10 2599.61 371.769   2
  -2   2 -10 3652.41 420.339   2
   2  -2  10 2274.74 349.104   2
  -2   2 -10 2819.25 375.958   1
  -2   2 -11 4123.23 471.533   2
   2   2  11 4721.63 502.673   1
   2  -2  11 2560.80 388.320   2
   2   2  11 3240.92 446.022   2
  -2   2 -11 3690.43 195.677   6
  -2   2 -11 4159.85 467.597   1
  -2  -2 -11 4019.43 472.534   2
   2   2  12 2737.67 399.817   1
  -2   2 -12 3258.81 454.693   2
  -2   2 -12 2928.41 166.528   6
   2   2  12 3251.08 457.084   2
  -2  -2 -12 3363.81 478.929   4
  -2   2 -12 2269.86 360.968   1
  -2  -2 -12 3231.40 456.704   2
   2  -2  12 2840.71 428.731   2
  -2   2 -13 14857.7 985.934   2
  -2  -2 -13 13849.0 988.847   4
  -2  -2 -13 14495.1 972.748   2
  -2   2 -13 9804.71 772.735   1
   2   2  13 14171.5 934.689   1
   2   2  14 2741.99 423.047   1
  -2  -2 -14 2187.43 403.943   4
  -2   2 -14 2858.90 425.347   1
  -2   2 -14 2194.93 399.328   2
  -2  -2 -14 2648.31 440.880   2
  -2  -2 -15 747.274 257.249   2
  -2   2 -15 1390.07 308.382   4
   2   2  15 1223.13 293.378   1
  -2   2 -15 1022.26 275.360   2
  -2  -2 -15 1299.42 306.806   4
  -2  -2 -16 1044.13 303.216   2
  -2  -2 -16 683.822 215.094   4
   2   2  16 796.309 223.059   1
  -2   2 -16 1043.59 272.338   4
  -2   2 -16 557.904 193.847   2
   2   2  17 203.385 146.705   1
  -2  -2 -17 260.923 160.185   2
  -2  -2 -17 48.3846 103.326   4
  -2   2 -17 185.845 124.493   2
  -2   2 -17 42.4162 65.5608   4
  -2   2 -18 4387.27 598.289   4
  -2   2 -18 3654.01 594.013   2
  -2  -2 -18 3539.99 561.090   2
   2   2  18 4242.61 584.404   1
  -2   2 -19 3633.96 610.481   2
   2   2  19 4988.02 659.882   1
  -2  -2 -19 4301.54 662.110   2
  -2   2 -19 3928.72 588.394   4
  -2   2 -20 3418.13 593.802   4
  -2  -2 -20 2739.60 547.296   2
   2   2  20 3485.99 575.967   1
  -2   2 -20 3063.51 587.239   2
   2   2  21 5646.48 728.472   1
  -2  -2 -21 4874.82 745.364   2
  -2   2 -21 5334.59 712.216   4
  -2   2 -21 5757.61 808.036   2
  -2  -2 -22 55.0239 140.178   2
  -2   2 -22 301.217 214.339   4
  -2   2 -22 176.803 242.819   2
  -2  -2 -23 438.097 259.870   2
  -2   2 -23 374.394 229.885   4
  -2   2 -23 778.083 309.859   2
  -2   2 -24 310.251 235.498   2
  -2   2 -24-83.4116 176.363   4
  -2  -2 -24-52.1928 132.187   2
  -2  -2 -25-8.60314 90.6196   2
  -2  -2 -26-12.9681 173.296   2
  -2  -2 -27 1101.44 417.736   2
   2  -3 -27 721.770 341.321   2
   2  -3 -26 86.6012 160.837   2
   2  -3 -25 589.971 285.961   2
   2  -3 -24 250.641 230.412   2
  -2   3  23 6094.22 641.209   1
   2  -3 -23 4429.76 755.486   2
   2  -3 -22 1512.66 425.355   2
  -2   3  22 1179.05 281.841   1
  -2   3  21 4397.70 530.561   1
   2  -3 -21 4409.93 713.894   2
   2   3 -21 4434.01 727.034   2
   2  -3 -20 512.295 302.631   2
   2   3 -20 323.110 243.616   2
  -2   3  20 15.1274 114.962   1
  -2   3  19 202.964 109.223   1
   2  -3 -19-19.7199 117.328   2
   2  -3 -18 135.591 95.2356   2
  -2   3  18 165.428 125.843   1
   2   3 -18-113.658 144.061   2
   2   3 -18 123.829 85.9460   1
   2   3 -17 289.737 233.423   2
   2   3 -17 433.299 118.241   1
  -2   3  17 392.748 160.993   1
   2  -3 -17 209.195 165.920   2
   2   3 -16 796.593 315.726   2
   2  -3 -16 834.999 328.172   2
   2   3 -16 289.298 122.609   1
   2   3 -15 547.533 246.022   2
   2  -3 -15 391.997 171.815   2
   2   3 -15 675.579 150.050   1
   2  -3 -14 1027.23 341.888   2
   2   3 -14 783.450 172.129   1
   2  -3 -13 2354.95 412.514   2
  -2   3  13 1896.43 360.524   4
   2   3 -13 2341.43 255.394   1
   2  -3 -12 524.009 219.775   2
  -2  -3  11 212.742 76.9807   6
   2  -3 -11 121.957 61.8936   2
   2  -3 -10 1592.90 300.463   2
  -2  -3  10 2100.43 217.806   6
  -2  -3   9 19095.8 652.327   6
   2  -3  -9 19613.4 998.955   2
  -2  -3   8 1118.54 164.789   6
   2  -3  -8 1258.43 251.798   2
   2  -3  -7 41200.9 1337.39   2
   2  -3  -6 741.964 178.029   2
   2  -3  -6 585.945 112.973   5
   2  -3  -5 39728.2 1217.41   2
   2  -3  -5 41207.7 910.351   5
   2  -3  -4 327.648 114.840   2
   2  -3  -4 413.527 101.249   5
   2  -3  -3 8442.57 508.551   2
   2   3  -3 8276.65 317.332   4
   2   3  -2 3141.27 227.193   4
   2  -3  -2 4486.02 364.615   2
   2  -3  -2 3138.46 286.420   3
   2   3  -1 9857.38 449.257   4
   2  -3  -1 9746.85 482.669   3
   2  -3   0 2122.12 211.115   3
   2   3   0 1955.34 219.315   4
  -2  -3   0 2085.49 227.658   4
  -2   3   0 2446.77 225.602   3
  -2  -3  -1 1490.84 209.406   4
   2   3   1 1452.82 199.360   4
  -2   3  -1 1565.25 174.401   3
   2   3   1 1089.04 184.255   3
  -2  -3  -2 290.474 120.777   4
   2   3   2 215.855 79.2064   4
   2   3   2 292.049 113.385   3
  -2  -3  -2 433.927 112.110   2
   2   3   3 24235.7 929.754   4
  -2  -3  -3 22485.1 834.381   2
   2   3   3 23643.2 907.966   3
  -2  -3  -4 3598.36 363.571   3
   2   3   4 3998.99 363.948   2
   2   3   4 2999.88 355.548   4
   2  -3   4 3393.85 269.332   6
  -2  -3  -4 3913.38 361.559   2
   2  -3   5 26275.3 709.974   6
  -2  -3  -5 27498.3 1033.41   3
  -2  -3  -5 27024.2 984.066   2
   2   3   5 26669.3 1075.89   4
   2   3   5 26846.8 990.403   2
  -2  -3  -6 358.219 121.295   2
   2   3   6 477.353 147.150   2
   2  -3   6 386.943 140.896   2
   2   3   6 225.541 105.180   4
  -2  -3  -6 440.910 149.913   3
   2  -3   6 327.880 81.1470   6
  -2  -3  -7 4564.30 456.340   3
  -2  -3  -7 4272.28 429.928   2
   2  -3   7 4138.85 437.529   2
   2   3   7 4849.11 465.932   2
   2   3   8 637.028 190.549   2
   2  -3   8 640.194 182.515   2
  -2  -3  -8 317.475 134.816   2
   2   3   9 2562.02 361.696   2
  -2  -3  -9 2925.26 380.971   2
   2  -3   9 2559.25 369.516   2
  -2  -3  -9 3206.99 260.205   5
  -2  -3 -10 904.822 227.788   2
  -2  -3 -10 841.637 131.399   5
   2   3  10 592.392 187.347   2
   2  -3  10 568.084 185.195   2
   2   3  10 1290.52 287.210   1
  -2  -3 -11 15170.6 951.268   2
   2   3  11 13721.5 910.825   1
   2   3  11 14068.0 938.595   2
   2  -3  11 15002.9 978.940   2
  -2  -3 -12 632.422 226.406   2
  -2  -3 -12 1260.34 338.074   4
   2   3  12 611.309 227.237   2
   2   3  12 915.332 244.385   1
  -2   3 -12 308.482 140.953   1
  -2   3 -13 6406.88 637.334   1
   2   3  13 7280.54 690.783   1
  -2  -3 -13 6677.22 678.536   2
  -2  -3 -13 6238.57 681.614   4
  -2  -3 -14 798.013 253.451   2
   2   3  14 866.382 268.145   1
  -2  -3 -15 3024.43 495.710   2
   2   3  15 2649.93 449.379   1
  -2  -3 -16 1443.10 346.562   2
   2   3  16 1192.87 320.516   1
   2   3  17 1172.84 300.012   1
  -2   3 -17 893.482 242.931   4
  -2  -3 -17 926.580 287.445   2
   2   3  18 66.7749 114.428   1
  -2   3 -18 465.186 243.812   4
  -2  -3 -18 436.346 234.718   2
  -2  -3 -19 839.829 304.651   2
  -2   3 -19 725.837 236.595   4
   2   3  19 988.185 316.695   1
   2   3  20 1337.92 391.935   1
  -2  -3 -20 1085.74 353.590   2
  -2   3 -20 1334.66 389.571   4
  -2   3 -21 4274.11 625.444   4
  -2  -3 -21 3517.72 627.504   2
   2   3  21 3920.65 638.702   1
  -2   3 -22 617.438 253.562   4
   2   3  22 693.609 298.445   1
  -2  -3 -22 520.247 310.249   2
  -2  -3 -23 334.586 244.029   2
   2   3  23 741.500 251.038   1
  -2   3 -23 660.090 251.802   4
   2   3  24 171.087 198.913   1
  -2  -3 -24-10.7610 127.186   2
  -2   3 -24-72.3532 129.807   4
  -2  -3 -25 425.169 253.135   2
  -2  -3 -26 567.176 301.564   2
  -2  -3 -27 2354.42 640.013   2
   2  -4 -27 4.96415 87.6975   2
   2  -4 -26-131.967 162.355   2
   2  -4 -25 98.2579 250.103   2
   2  -4 -24 18.0441 107.440   2
  -2   4  23 2113.71 419.284   1
   2  -4 -23 1792.50 501.823   2
   2  -4 -22 3521.99 673.861   2
  -2   4  22 3095.72 488.461   1
   2  -4 -21 1821.45 484.081   2
  -2   4  21 1994.29 399.216   1
  -2   4  20 2338.32 401.737   1
   2  -4 -20 2497.55 530.727   2
  -2   4  19 0.85467 91.0798   1
   2  -4 -19-38.5624 116.842   2
   2   4 -18 879.724 186.311   1
   2  -4 -18 794.908 270.521   2
   2   4 -17 125.290 82.0516   1
   2  -4 -17 12.9926 102.993   2
   2  -4 -16 13884.7 1127.72   2
   2   4 -16 12755.9 711.439   1
   2   4 -15 2735.14 312.351   1
   2  -4 -15 2969.95 499.440   2
   2  -4 -14 22535.2 1345.87   2
   2  -4 -13 1623.63 327.408   2
  -2  -4  12 3056.06 261.012   6
   2  -4 -12 3987.11 531.805   2
  -2  -4  11 2597.22 246.014   6
   2  -4 -11 2322.04 385.264   2
   2  -4 -10 6804.54 640.586   2
  -2  -4  10 5920.10 377.960   6
   2  -4  -9 11959.7 838.442   2
   2  -4  -8 6175.72 340.165   5
   2  -4  -8 7193.56 629.166   2
   2  -4  -7 14543.0 555.324   5
   2  -4  -7 14940.6 867.403   2
   2   4  -6 169.150 38.2322   4
   2  -4  -6 143.092 115.690   2
   2  -4  -6 210.225 78.4768   5
   2  -4  -5 4858.39 467.063   2
   2   4  -5 4373.96 228.387   4
   2   4  -4 3069.77 218.784   4
   2  -4  -4 3142.82 355.319   3
   2  -4  -4 2965.22 350.549   2
   2  -4  -3 419.682 128.825   2
   2  -4  -3 366.440 117.961   3
   2   4  -3 173.517 60.5613   4
   2  -4  -2 6672.34 503.473   2
   2   4  -2 5791.29 366.393   4
   2  -4  -2 6288.71 459.812   3
  -2   4   1 1566.02 222.621   3
   2  -4  -1 1533.99 225.882   3
   2   4  -1 1688.43 212.952   4
  -2   4   0 10343.3 543.438   3
   2   4   0 9658.68 541.839   4
   2   4   0 9680.27 626.732   3
  -2   4  -1 7188.33 448.898   3
   2   4   1 7138.92 490.913   4
   2   4   1 7281.64 535.968   3
   2   4   2 123.520 61.0843   4
  -2   4  -2 205.497 75.7297   3
  -2  -4  -2 338.557 120.622   2
   2   4   2 66.0639 44.2341   3
  -2  -4  -3 4067.66 392.593   2
   2   4   3 5607.11 477.388   4
   2   4   3 4955.45 462.020   3
  -2  -4  -4 1121.08 216.040   2
   2   4   4 1035.67 217.314   4
  -2  -4  -5 7084.08 558.672   2
   2   4   5 7667.03 618.979   4
  -2  -4  -5 7335.62 590.297   3
   2   4   6 9630.79 732.626   4
  -2  -4  -6 9925.08 707.237   3
   2   4   6 10811.0 709.708   2
  -2  -4  -6 9383.43 672.757   2
   2  -4   6 9041.05 449.981   6
   2  -4   7 7634.94 382.147   6
   2   4   7 5450.95 528.835   2
  -2  -4  -7 8145.17 657.695   3
   2   4   7 7781.53 671.589   4
   2  -4   7 5554.40 545.123   2
  -2  -4  -7 6713.66 583.558   2
  -2  -4  -8 27129.1 1202.34   2
   2   4   8 22339.8 1107.95   2
   2   4   8 30018.6 1353.38   4
  -2  -4  -8 30648.0 1325.38   3
   2  -4   8 25307.7 624.337   6
   2  -4   8 20907.3 1100.70   2
  -2  -4  -9 1440.59 295.100   3
  -2  -4  -9 1028.19 238.213   2
   2  -4   9 992.081 241.851   2
   2   4   9 912.790 230.048   2
   2   4  10 697.662 216.213   2
  -2  -4 -10 1356.57 284.598   2
   2  -4  10 851.123 227.679   2
  -2  -4 -10 876.311 239.309   3
  -2  -4 -10 877.044 138.372   5
  -2  -4 -11 1009.65 256.542   2
  -2  -4 -11 1370.44 165.570   5
  -2  -4 -12 8856.50 795.056   2
  -2  -4 -12 7662.35 378.037   5
   2   4  13 1531.50 346.045   1
  -2  -4 -13 1515.61 339.422   2
   2   4  14 8165.20 805.248   1
  -2  -4 -14 7067.49 757.935   2
  -2  -4 -15 3424.10 537.247   2
   2   4  15 3504.21 539.000   1
   2   4  16 378.529 222.045   1
  -2  -4 -16-48.6634 90.6504   2
   2   4  17 319.459 183.319   1
  -2  -4 -17 111.644 134.910   2
   2   4  18 4759.71 669.635   1
  -2   4 -18 3830.19 534.186   4
  -2  -4 -18 3816.51 623.352   2
  -2   4 -19 1005.00 296.718   4
   2   4  19 1473.92 398.176   1
  -2  -4 -19 1015.16 348.131   2
   2   4  20 8393.84 927.990   1
  -2  -4 -20 6040.10 845.564   2
  -2   4 -20 6124.39 735.336   4
  -2  -4 -21 2404.60 568.649   2
  -2   4 -21 2824.94 500.970   4
   2   4  21 1956.87 468.634   1
   2   4  22 1364.33 386.168   1
  -2  -4 -22 1891.78 517.279   2
  -2   4 -22 1328.52 352.684   4
  -2   4 -23 473.081 196.458   4
  -2  -4 -23 273.633 178.383   2
   2   4  23 257.064 117.898   1
  -2  -4 -24 251.088 177.139   2
   2   4  24-299.162 195.623   1
   2   4  25 177.659 152.703   1
  -2  -4 -25-7.85891 118.400   2
  -2  -4 -26 56.7252 127.295   2
   2   4  26 69.9030 125.487   1
   2  -5 -26 195.802 229.028   2
   2  -5 -25 67.4584 218.162   2
   2  -5 -24 96.8401 136.410   2
   2  -5 -23 607.228 358.374   2
  -2   5  23 527.897 251.424   1
   2  -5 -22 2071.20 512.685   2
  -2   5  22 3279.02 533.898   1
   2  -5 -21 378.042 283.359   2
  -2   5  21 157.270 149.262   1
   2  -5 -20 1295.02 382.732   2
  -2   5  20 1481.60 352.518   1
   2  -5 -19-55.2542 164.681   2
   2  -5 -18 2255.52 494.458   2
   2   5 -17 670.687 183.725   1
   2  -5 -17 865.036 301.934   2
   2  -5 -16 11110.2 1043.77   2
   2  -5 -15 6113.63 772.131   2
   2  -5 -14 11489.7 997.560   2
  -2  -5  13 1664.86 194.884   6
   2  -5 -13 1577.33 356.087   2
   2  -5 -12 985.159 271.987   2
  -2  -5  12 1176.00 167.158   6
  -2  -5  11 129.602 68.0459   6
   2  -5 -11 154.082 68.1198   2
   2  -5 -10 13065.1 940.091   2
   2  -5 -10 10599.0 436.527   5
   2  -5  -9 1033.60 179.191   5
   2  -5  -9 1630.84 367.231   2
   2  -5  -8 29304.3 870.346   5
   2  -5  -8 31337.6 1396.43   2
   2  -5  -7 1922.49 362.835   2
   2  -5  -6 9353.01 710.313   3
   2  -5  -6 12421.9 838.707   2
   2  -5  -5 8422.25 660.468   2
   2  -5  -5 6239.26 564.063   3
   2   5  -5 7458.58 386.638   4
   2   5  -4 1402.78 186.589   4
   2  -5  -4 1241.18 244.197   3
   2  -5  -4 984.251 227.727   2
   2  -5  -3 2116.61 311.840   3
   2  -5  -3 1942.06 311.688   2
   2   5  -3 2146.95 241.992   4
   2   5  -2 62085.9 1386.68   4
   2  -5  -2 61792.2 1674.90   3
  -2   5   1 3182.78 382.781   3
   2   5  -1 4320.09 477.215   3
   2   5  -1 3040.58 327.835   4
  -2   5   0 68030.6 1616.64   3
   2   5   0 65942.9 1611.13   4
   2   5   0 70765.7 1877.84   3
   2   5   1 2784.92 334.203   4
  -2   5  -1 2570.35 314.782   3
   2   5   1 2933.11 394.801   3
  -2   5  -2 6170.10 481.939   3
   2   5   2 5492.14 491.873   4
   2   5   2 6348.07 561.186   3
  -2  -5  -3 1284.81 246.375   2
   2   5   3 1224.04 245.456   4
   2   5   3 1410.26 271.651   3
  -2   5  -3 1497.99 229.671   3
  -2  -5  -4 3157.24 395.189   2
   2   5   4 3130.46 406.356   4
   2   5   4 2896.15 400.309   3
   2   5   5 2096.48 348.621   4
  -2  -5  -5 1938.33 334.859   2
  -2  -5  -6 30653.5 1363.43   3
  -2  -5  -6 29789.3 1293.53   2
   2   5   6 30649.8 1369.45   4
   2  -5   7 1441.14 206.876   6
  -2  -5  -7 1156.34 304.955   2
  -2  -5  -7 1400.98 308.999   3
   2   5   7 1134.15 284.403   4
   2  -5   8 27273.0 1348.17   2
  -2  -5  -8 27674.1 1306.40   2
   2  -5   8 27848.5 804.275   6
   2   5   8 28474.4 1331.12   2
   2  -5   9 2766.24 222.156   6
  -2  -5  -9 2876.20 431.598   2
   2   5   9 2521.66 408.411   2
  -2  -5 -10 750.826 207.999   2
  -2  -5 -11 91.2959 106.611   2
  -2  -5 -12 11393.9 957.572   2
  -2  -5 -12 9785.50 451.937   5
  -2  -5 -13 236.971 74.6073   5
  -2  -5 -13 237.674 218.411   2
  -2  -5 -14 8940.06 885.614   2
  -2  -5 -15 871.540 323.138   2
   2   5  15 966.423 306.023   1
   2   5  16 1080.79 313.047   1
  -2  -5 -16 727.892 265.738   2
  -2  -5 -17 1105.16 328.607   2
   2   5  17 1424.49 374.393   1
   2   5  18 387.879 234.040   1
  -2  -5 -18 113.489 126.441   2
  -2  -5 -19 961.679 371.954   2
  -2   5 -19 1123.58 303.642   4
   2   5  19 1168.10 336.407   1
   2   5  20 3398.44 627.887   1
  -2  -5 -20 2377.89 536.185   2
  -2   5 -20 3275.45 512.874   4
  -2  -5 -21 77.4209 174.328   2
  -2   5 -21 153.939 164.111   4
   2   5  21 290.290 267.499   1
  -2   5 -22 1634.51 381.876   4
   2   5  22 1419.95 414.477   1
  -2  -5 -22 1626.86 494.050   2
   2   5  23-349.512 224.478   1
  -2  -5 -23-24.6551 100.963   2
   2   5  24-27.6725 125.153   1
  -2  -5 -24 160.911 208.582   2
   2   5  25-85.0066 218.806   1
  -2  -5 -25-46.8100 153.217   2
   2   5  26 116.603 105.807   1
  -2  -5 -26-264.842 224.111   2
   2  -6 -25-47.2064 174.930   2
   2  -6 -24 1334.28 432.466   2
   2  -6 -23 1001.53 412.009   2
  -2   6  23 1193.12 328.664   1
   2  -6 -22 2408.77 605.576   2
  -2   6  22 2392.60 492.593   1
   2  -6 -21 712.341 297.182   2
   2  -6 -20 848.576 320.598   2
   2  -6 -19 13.4114 132.830   2
   2  -6 -18-139.605 179.378   2
   2  -6 -17 285.769 231.343   2
   2  -6 -16 197.150 181.567   2
   2  -6 -15 779.379 318.457   2
   2  -6 -14 183.941 174.114   2
  -2  -6  14 622.443 150.044   6
  -2  -6  13 341.370 106.508   6
   2  -6 -13 327.181 183.541   2
  -2  -6  12 0.99335 51.9921   6
   2  -6 -12-107.549 160.103   2
   2  -6 -11 1027.93 144.409   5
   2  -6 -11 1221.46 334.335   2
   2  -6 -10 8322.27 462.658   5
   2  -6 -10 9724.38 864.682   2
   2  -6  -9 11978.6 955.307   2
   2  -6  -9 10788.9 570.598   5
   2  -6  -8 31513.1 1492.32   2
   2  -6  -7 7007.51 685.607   2
   2  -6  -7 5509.19 604.860   3
   2  -6  -6 29523.6 1377.97   2
   2  -6  -6 29936.4 1363.37   3
   2  -6  -5 3007.25 427.300   3
   2  -6  -5 3373.03 474.293   2
   2  -6  -4 4387.57 514.792   2
   2  -6  -4 2870.45 408.137   3
   2   6  -3 22.7159 58.4832   4
   2  -6  -3-36.2200 54.3734   3
   2  -6  -3 97.4635 102.762   2
   2  -6  -2 9365.23 701.923   3
   2   6  -2 12059.1 673.635   4
   2   6  -1 7952.66 680.559   3
  -2   6   1 6754.69 574.002   3
   2   6  -1 6833.28 527.986   4
   2   6   0 16936.6 1012.87   3
  -2   6   0 16209.2 867.448   3
   2   6   0 17225.6 873.177   4
   2   6   1 2522.39 394.851   3
   2   6   1 2387.72 343.526   4
  -2   6  -1 2402.07 335.851   3
   2   6   2 332.523 148.927   4
  -2   6  -2 118.011 105.810   3
   2   6   2 137.726 89.3848   3
  -2  -6  -3 1895.30 320.892   2
   2   6   3 1576.33 292.400   4
   2   6   3 1897.47 347.618   3
  -2   6  -3 1341.01 265.942   3
  -2  -6  -4 12451.7 867.031   2
   2   6   4 12310.3 888.673   3
   2   6   4 12806.6 876.315   4
   2   6   5 7109.00 670.164   4
  -2  -6  -5 7485.51 683.929   2
  -2  -6  -6 22529.1 1217.87   2
  -2  -6  -7 6948.39 690.770   2
  -2  -6  -8 4238.02 551.411   2
   2  -6   8 5146.27 394.131   6
  -2  -6  -9 1183.85 302.775   2
   2  -6   9 907.616 159.182   6
  -2  -6 -10 103.320 112.982   2
   2  -6  10 17.4191 26.9912   6
  -2  -6 -11 265.484 195.929   2
  -2  -6 -12 2959.99 510.352   2
  -2  -6 -13 880.061 138.040   5
  -2  -6 -13 1351.73 357.315   2
  -2  -6 -14 1959.44 452.786   2
  -2  -6 -14 1728.39 157.029   5
  -2  -6 -15 918.064 314.802   2
  -2  -6 -16 577.161 261.415   2
   2   6  16 448.178 284.746   1
  -2  -6 -17 487.829 225.628   2
   2   6  17 649.301 272.129   1
  -2  -6 -18-22.0204 136.371   2
   2   6  18 313.587 200.286   1
  -2  -6 -19 297.149 268.390   2
   2   6  19 694.192 347.240   1
   2   6  20 1025.35 350.831   1
  -2  -6 -20 1161.00 397.274   2
  -2   6 -20 883.427 277.572   4
  -2  -6 -21 1527.72 471.690   2
   2   6  21 2232.59 554.318   1
  -2  -6 -22 814.198 338.512   2
   2   6  22 1670.72 496.323   1
   2   6  23 366.067 179.127   1
  -2  -6 -23-568.677 300.404   2
   2   6  24 38.0805 186.972   1
  -2  -6 -24 682.664 350.800   2
   2   6  25-336.909 226.177   1
  -2  -6 -25 85.6111 158.995   2
   2   6  26 150.788 162.936   1
   2  -7 -24 79.8038 171.165   2
   2  -7 -23 1571.26 511.131   2
  -2   7  23 1708.41 451.937   1
   2  -7 -22 1350.65 474.182   2
   2  -7 -21 2763.54 628.959   2
   2  -7 -20-45.2778 156.361   2
   2  -7 -19 74.6829 95.0431   2
   2  -7 -18 128.450 101.723   2
   2  -7 -17 2622.43 553.151   2
   2  -7 -16 145.762 142.021   2
   2  -7 -15 10650.2 1072.66   2
  -2  -7  15 8985.78 436.080   6
  -2  -7  14 57.6692 57.2165   6
   2  -7 -14 682.912 397.058   2
   2  -7 -13 5542.89 728.672   2
  -2  -7  13 3850.95 347.876   6
   2  -7 -12 199.746 104.217   2
   2  -7 -12 113.402 52.2856   5
   2  -7 -11 2918.93 526.651   2
   2  -7 -11 2150.85 244.281   5
   2  -7 -10 2274.11 457.924   2
   2  -7 -10 2356.50 283.202   5
   2  -7  -9 16311.4 1161.16   2
   2  -7  -8 5254.90 655.830   2
   2  -7  -7 8151.26 795.826   2
   2  -7  -6 4133.03 559.606   2
   2  -7  -5 371.254 180.042   2
   2  -7  -4 668.937 211.753   2
   2   7  -3 883.164 197.887   4
   2  -7  -3 912.705 233.545   3
   2  -7  -3 765.007 221.109   2
   2   7  -2 551.526 156.956   4
   2   7  -2 417.484 161.316   3
  -2   7   1 6106.07 594.551   3
   2   7  -1 6851.76 574.607   4
   2   7  -1 6592.01 673.402   3
   2   7   0 1778.65 350.563   3
   2   7   0 1489.29 281.240   4
  -2   7   0 1428.64 284.269   3
  -2   7  -1 6263.81 590.011   3
   2   7   1 6145.56 643.506   3
   2   7   1 6054.29 587.811   4
   2   7   2 16.3527 38.3115   4
  -2   7  -2 14.8439 83.3203   3
  -2  -7  -3 470.378 199.618   2
  -2   7  -3 490.958 166.033   3
   2   7   3 644.346 242.604   3
   2   7   3 352.330 162.282   4
  -2  -7  -4 1808.22 355.083   2
   2   7   4 2329.20 430.549   3
  -2   7  -4 1810.99 320.667   3
  -2   7  -5 7380.25 653.220   3
  -2  -7  -5 7498.08 751.405   2
  -2  -7  -6 4175.94 563.362   2
  -2  -7  -7 19719.4 1244.19   2
  -2  -7  -8 846.612 287.683   2
   2  -7   9 11088.9 621.476   6
  -2  -7  -9 10813.4 945.524   2
  -2  -7 -10 42.8727 135.728   2
   2  -7  10 59.3078 72.5258   6
  -2  -7 -11 350.625 200.786   2
   2  -7  11 312.567 89.6125   6
  -2  -7 -12-11.7306 68.1192   2
  -2  -7 -13 4667.80 677.103   2
  -2  -7 -14 608.231 265.977   2
  -2  -7 -14 391.729 91.7835   5
  -2  -7 -15 3588.95 622.281   2
  -2  -7 -16 462.045 217.172   2
  -2  -7 -17 118.200 123.491   2
  -2  -7 -18 168.701 181.999   2
   2   7  18 105.081 165.360   1
   2   7  19 5398.34 824.198   1
  -2  -7 -19 4554.11 799.906   2
   2   7  20 99.9332 182.400   1
  -2  -7 -20 165.811 109.960   2
   2   7  21 4238.75 772.748   1
  -2  -7 -21 3372.38 722.444   2
  -2  -7 -22 464.373 329.233   2
   2   7  22 662.580 333.807   1
   2   7  23 452.870 263.841   1
  -2  -7 -23 54.7494 99.9937   2
   2   7  24 145.138 194.669   1
  -2  -7 -24 113.041 121.558   2
   2   7  25-0.66623 164.302   1
   2  -8 -23 588.839 326.867   2
   2  -8 -22 490.837 307.242   2
   2  -8 -21 2306.10 588.494   2
   2  -8 -20 139.827 204.303   2
   2  -8 -19 231.790 160.850   2
   2  -8 -18-58.1874 168.484   2
   2  -8 -17 1169.76 366.504   2
   2  -8 -16 263.386 253.940   2
   2  -8 -15 7451.88 934.334   2
   2  -8 -14 239.751 223.385   2
  -2  -8  14 572.368 145.740   6
   2  -8 -13 6672.93 853.541   2
   2  -8 -12 426.399 232.730   2
   2   8 -12 220.923 66.5137   4
   2  -8 -12 159.045 75.9571   5
   2  -8 -11 622.800 143.636   5
   2  -8 -11 846.656 300.004   2
   2  -8 -10 196.682 169.120   2
   2  -8  -9 438.472 214.501   2
   2  -8  -8 924.786 305.611   2
   2  -8  -7 2038.20 431.556   2
   2  -8  -6 2156.33 421.618   2
   2  -8  -5 185.738 84.1491   2
   2  -8  -4 1160.61 310.664   2
   2   8  -4 1353.88 257.434   4
   2   8  -3 725.820 195.718   4
   2   8  -3 789.071 263.409   3
   2  -8  -3 1071.05 286.885   2
   2  -8  -2 1989.39 419.440   2
   2   8  -2 1877.98 389.464   3
   2   8  -2 1325.64 266.400   4
  -2   8   1 3023.28 460.524   3
   2   8  -1 3350.50 509.019   3
   2   8  -1 2718.90 390.612   4
   2   8   0 886.625 236.253   4
  -2   8   0 247.040 139.910   3
   2   8   0 660.933 225.092   3
  -2   8  -1 1986.17 369.271   3
   2   8   1 1590.39 324.616   4
   2   8   1 1852.34 382.176   3
  -2   8  -2 311.092 162.402   3
   2   8   2 659.856 226.689   3
   2   8   3 467.354 231.929   3
  -2  -8  -3 6.70498 68.5239   2
  -2   8  -3 715.338 226.210   3
  -2   8  -4 1042.02 269.779   3
  -2  -8  -4 919.025 283.295   2
   2   8   4 1356.76 355.036   3
  -2  -8  -5 1497.16 355.210   2
  -2   8  -5 1819.57 353.006   3
  -2   8  -6 392.473 170.319   3
  -2  -8  -6 383.366 229.872   2
  -2  -8  -7 2087.28 433.003   2
  -2  -8  -8 80.5359 87.0059   2
  -2  -8  -9-43.4672 120.266   2
   2  -8  10 614.420 170.212   6
  -2  -8 -10 367.855 227.577   2
  -2  -8 -11 5461.84 751.581   2
  -2  -8 -12 1446.70 406.186   2
  -2  -8 -13 5833.64 798.963   2
  -2  -8 -14 154.281 98.2760   2
  -2  -8 -15 1550.10 421.085   2
  -2  -8 -16-33.7287 120.188   2
  -2  -8 -17 310.986 169.926   2
  -2  -8 -18 211.766 187.871   2
   2   8  19 3363.71 704.861   1
  -2  -8 -19 8591.50 1373.23   2
   2   8  20 733.628 380.908   1
  -2  -8 -20 231.337 228.917   2
  -2  -8 -21 1489.49 508.425   2
   2   8  21 2278.36 584.821   1
   2   8  22 568.197 340.619   1
  -2  -8 -22 154.542 226.950   2
  -2  -8 -23-3.67805 199.821   2
   2   8  23 71.1657 197.171   1
   2   8  24 269.820 251.506   1
   2   8  25 558.630 261.733   1
   2  -9 -22 1086.03 425.242   2
   2  -9 -21 518.457 311.385   2
   2  -9 -20 465.563 278.761   2
   2  -9 -19-57.8690 146.117   2
   2  -9 -18 147.526 188.186   2
   2  -9 -17 150.371 118.455   2
   2  -9 -16 1162.62 390.533   2
   2  -9 -15 969.258 367.870   2
   2  -9 -14 583.047 291.896   2
   2  -9 -13 193.577 140.956   2
   2  -9 -12 389.660 197.396   2
   2  -9 -11 283.459 191.840   2
   2  -9 -10 2681.74 544.259   2
   2  -9  -9 3821.97 629.859   2
   2  -9  -8 8228.47 916.626   2
   2  -9  -7 9422.49 960.917   2
   2   9  -6 3516.92 416.522   4
   2  -9  -6 5053.45 709.608   2
   2  -9  -5 3367.85 561.251   2
   2   9  -5 4134.20 623.644   3
   2   9  -5 3502.33 423.641   4
   2  -9  -4 691.142 251.829   2
   2   9  -4 447.086 153.230   4
   2   9  -4 571.117 249.644   3
   2   9  -3 507.381 178.086   4
   2  -9  -3 408.996 217.942   2
   2   9  -3 493.056 222.318   3
   2  -9  -2 4074.54 609.953   2
   2   9  -2 4303.63 633.562   3
   2   9  -2 2599.08 397.916   4
   2   9  -1 4469.31 636.518   3
  -2   9   1 4473.72 592.567   3
   2   9   0 4299.98 628.001   3
  -2   9   0 4559.95 602.545   3
  -2   9  -1 1271.88 307.301   3
   2   9   1 1151.77 323.323   3
  -2   9  -2 38.5626 98.9730   3
  -2  -9  -2-39.0066 170.222   2
   2   9   2-19.7193 120.926   3
  -2   9  -3 687.998 228.249   3
  -2  -9  -3 695.103 249.618   2
   2   9   3 988.806 293.716   3
   2   9   4 2549.36 495.518   3
  -2   9  -4 2376.45 427.761   3
  -2  -9  -4 2008.27 446.532   2
  -2   9  -5 3752.34 541.349   3
  -2  -9  -5 3014.73 528.817   2
  -2  -9  -6 5101.04 703.471   2
  -2   9  -6 5594.30 667.074   3
  -2   9  -7 2992.61 489.733   3
  -2  -9  -7 2161.48 472.318   2
  -2  -9  -8 1660.42 420.866   2
  -2  -9  -9 71.5210 85.4361   2
  -2  -9 -10-169.925 169.712   2
  -2  -9 -11 627.420 261.197   2
  -2  -9 -12 2607.95 561.970   2
  -2  -9 -13 1196.55 391.063   2
  -2  -9 -14 2133.14 519.722   2
  -2  -9 -15 538.361 306.676   2
  -2  -9 -16 248.506 164.636   2
  -2  -9 -17-291.748 246.451   2
  -2  -9 -18-177.194 141.182   2
  -2  -9 -19 20.5600 93.2038   2
   2   9  20 1544.38 502.438   1
  -2  -9 -20 908.724 383.588   2
  -2  -9 -21 261.585 277.952   2
   2   9  21 659.030 409.643   1
   2   9  22 625.688 356.277   1
   2   9  23 814.919 390.421   1
   2 -10 -20 822.375 417.164   2
   2 -10 -19 140.356 179.429   2
   2 -10 -18 115.502 170.651   2
   2 -10 -17-226.560 236.671   2
   2 -10 -16 1760.59 523.521   2
   2 -10 -15-91.2764 164.363   2
   2 -10 -14 2773.82 642.768   2
   2 -10 -13 277.778 193.301   2
   2 -10 -12 246.151 228.269   2
   2 -10 -11-4.14257 149.333   2
   2 -10 -10 3264.71 624.102   2
   2 -10  -9 301.303 241.423   2
   2 -10  -8 5407.00 788.909   2
   2 -10  -7 633.029 297.380   2
   2 -10  -6 1662.32 428.086   2
   2  10  -6 1603.53 430.624   3
   2 -10  -5 395.872 234.200   2
   2  10  -5 540.957 247.171   3
   2  10  -4 15.4362 105.096   3
   2 -10  -4-159.484 181.523   2
   2 -10  -3-120.642 163.569   2
   2  10  -3-3.93633 145.867   3
   2  10  -2 2874.09 564.360   3
   2 -10  -2 2481.87 500.019   2
   2  10  -1 431.083 233.656   3
  -2  10   0 3659.55 589.348   3
   2  10   0 3690.09 612.865   3
   2  10   1 94.5158 139.207   3
  -2  10  -1-67.8461 82.8640   3
  -2  10  -2 331.659 161.175   3
   2  10   2 87.4427 168.040   3
  -2 -10  -2 456.935 199.117   2
   2  10   3-43.3797 151.813   3
  -2  10  -3 125.976 136.698   3
  -2 -10  -3 60.8680 76.2105   2
  -2 -10  -4 1958.74 454.902   2
  -2  10  -4 1847.73 403.783   3
  -2 -10  -5 538.734 285.750   2
  -2  10  -5 415.177 204.117   3
  -2  10  -6 7395.48 822.796   3
  -2 -10  -6 6000.13 819.422   2
  -2 -10  -7-131.539 128.126   2
  -2  10  -7 301.070 187.029   3
  -2  10  -8 4764.25 666.735   3
  -2 -10  -8 5732.44 816.164   2
  -2 -10  -9 166.951 144.356   2
  -2  10  -9 120.834 172.012   3
  -2 -10 -10 40.2704 127.701   2
  -2 -10 -11 111.273 157.641   2
  -2 -10 -12 1529.51 452.251   2
  -2 -10 -13 4.55512 118.442   2
  -2 -10 -14 1699.70 499.034   2
  -2 -10 -15-20.1784 107.417   2
  -2 -10 -16 340.974 193.942   2
  -2 -10 -17-483.035 324.304   2
  -2 -10 -18 351.675 222.177   2
  -2 -10 -19-43.1303 95.3606   2
  -2 -10 -20 2733.43 698.158   2
   2  10  21 405.835 261.348   1
   2 -11 -18 69.4594 111.714   2
   2 -11 -17 554.215 264.061   2
   2 -11 -16 2178.97 608.850   2
   2 -11 -15 475.026 276.914   2
   2 -11 -14 1546.12 515.405   2
   2 -11 -13 59.0469 92.0624   2
   2 -11 -12 48.5976 170.366   2
   2 -11 -11 201.746 203.994   2
   2 -11 -10 2195.94 558.183   2
   2 -11  -9 2436.89 578.010   2
   2 -11  -8 3522.29 666.818   2
   2  11  -8 4478.82 737.982   3
   2 -11  -7 2677.79 591.404   2
   2  11  -7 2290.72 538.868   3
   2 -11  -6 1431.91 423.867   2
   2  11  -6 1943.62 492.916   3
   2  11  -5 90.0196 153.813   3
   2 -11  -5 872.899 319.492   2
   2 -11  -4 192.832 116.771   2
   2  11  -4 308.966 221.632   3
   2 -11  -3 695.913 317.364   2
   2  11  -3 69.1935 86.0444   3
   2  11  -2 3839.18 663.288   3
   2 -11  -2 3957.04 687.417   2
   2  11  -1 2494.18 547.862   3
   2 -11  -1 3388.28 652.864   2
  -2  11   0 5319.08 744.073   3
   2  11   0 5766.30 812.526   3
   2  11   1 831.317 348.371   3
  -2 -11  -1 1942.03 501.848   2
  -2  11  -1 1359.08 393.074   3
   2  11   2 1332.69 401.614   3
  -2  11  -2 1001.84 314.954   3
  -2 -11  -2 1492.81 448.847   2
   2  11   3 270.410 212.539   3
  -2 -11  -3 88.1142 120.475   2
  -2  11  -3 341.409 183.311   3
  -2 -11  -4 538.575 235.932   2
  -2  11  -4 567.565 196.290   3
  -2 -11  -5 1114.69 406.075   2
  -2  11  -5 838.360 310.075   3
  -2 -11  -6 5412.62 825.354   2
  -2  11  -6 4886.76 705.660   3
  -2 -11  -7 1388.04 475.582   2
  -2  11  -7 1441.88 415.173   3
  -2 -11  -8 4288.64 737.664   2
  -2  11  -8 4564.38 685.348   3
  -2  11  -9 485.854 267.648   3
  -2 -11  -9 514.075 280.531   2
  -2  11 -10 573.026 268.420   3
  -2 -11 -10 223.251 242.780   2
  -2 -11 -11 331.904 278.557   2
  -2  11 -11 353.187 186.546   3
  -2 -11 -12 1122.42 410.321   2
  -2  11 -12 948.874 331.507   3
  -2 -11 -13 752.633 354.499   2
  -2 -11 -14 1933.18 540.364   2
  -2 -11 -15 253.400 169.981   2
  -2 -11 -16 580.802 283.893   2
  -2 -11 -17-527.752 302.922   2
  -2 -11 -18-257.571 205.472   2
   2 -12 -15 688.310 344.480   2
   2 -12 -14 52.2572 155.238   2
   2 -12 -13 418.581 331.682   2
   2 -12 -12-175.440 136.927   2
   2 -12 -11 218.477 186.226   2
   2  12 -11-77.3860 102.211   3
   2  12 -10 505.781 320.599   3
   2 -12 -10 308.675 85.2156   2
   2 -12  -9 4059.49 768.938   2
   2  12  -9 2483.30 601.737   3
   2  12  -8 1764.31 487.317   3
   2 -12  -8 1319.71 445.370   2
   2  12  -7 4647.52 783.804   3
   2 -12  -7 4311.52 805.761   2
   2 -12  -6 896.488 384.055   2
   2  12  -6 1376.62 442.194   3
   2 -12  -5 1109.72 437.689   2
   2  12  -5 936.708 401.067   3
   2 -12  -4 31.7786 211.536   2
   2  12  -4-35.2436 119.867   3
   2  12  -3 204.992 160.812   3
   2 -12  -3 280.487 239.213   2
   2  12  -2 421.158 226.339   3
   2 -12  -2 444.889 286.002   2
   2  12  -1 2489.96 561.162   3
   2 -12  -1 4177.28 755.231   2
   2 -12   0 694.036 321.565   2
   2  12   0 554.980 267.589   3
  -2  12  -1 647.262 251.496   3
  -2 -12  -1 854.982 346.033   2
   2  12   1 1277.48 418.021   3
  -2 -12  -2 19.2895 204.684   2
  -2  12  -2 182.868 164.446   3
   2  12   2 45.5712 172.251   3
  -2  12  -3 89.3164 83.1069   3
  -2 -12  -3 78.2400 108.126   2
  -2 -12  -4 384.239 250.060   2
  -2  12  -4 281.928 226.632   3
  -2  12  -5 2497.56 531.137   3
  -2 -12  -5 1996.38 539.839   2
  -2  12  -6 1399.87 423.466   3
  -2 -12  -6 937.959 395.322   2
  -2 -12  -7 2638.73 614.056   2
  -2  12  -7 2515.61 529.278   3
  -2  12  -8 704.280 305.850   3
  -2 -12  -8 425.304 241.671   2
  -2 -12  -9 623.155 249.929   2
  -2  12  -9 691.854 357.642   3
  -2  12 -10-46.5454 106.250   3
  -2 -12 -10-39.6189 170.087   2
  -2  12 -11 611.195 302.323   3
  -2 -12 -11 496.131 259.328   2
  -2  12 -12 276.104 192.300   3
  -2 -12 -12 92.9739 182.913   2
  -2 -12 -13 985.095 414.962   2
  -2  12 -13 861.647 338.513   3
  -2  12 -14 615.402 314.853   3
  -2 -12 -14 43.4239 173.036   2
  -2 -12 -15 458.301 320.543   2
  -2  12 -15 653.019 291.772   3
   2  13 -14 302.620 273.209   3
   2  13 -13 1135.66 426.292   3
   2  13 -12 40.1352 200.432   3
   2 -13 -12 85.9063 225.877   2
   2  13 -11 217.347 226.417   3
   2 -13 -11 244.447 222.396   2
   2 -13 -10-258.490 226.018   2
   2  13 -10-164.969 170.013   3
   2 -13  -9 718.490 359.614   2
   2  13  -9 487.710 237.041   3
   2 -13  -8 55.4088 97.8028   2
   2  13  -8 98.9989 154.439   3
   2 -13  -7 156.078 174.327   2
   2  13  -7 99.1483 263.884   3
   2 -13  -6 38.8928 166.090   2
   2  13  -6 78.5848 74.3445   3
   2 -13  -5 5.87542 232.528   2
   2  13  -5 165.109 193.172   3
   2 -13  -4-260.163 183.263   2
   2  13  -4-120.527 154.304   3
   2  13  -3 215.561 149.559   3
   2 -13  -3-32.3456 167.902   2
   2 -13  -2 30.8494 159.076   2
   2  13  -2-15.2693 100.562   3
   2  13  -1 761.061 326.895   3
   2 -13  -1 1487.83 503.417   2
   2  13   0 83.7568 169.006   3
   2 -13   0 36.4111 129.324   2
  -2 -13   0 48.2502 128.891   2
   2  13   1 284.546 197.376   3
  -2 -13  -1 637.279 334.189   2
  -2 -13  -2-110.431 175.691   2
  -2  13  -2 139.195 162.027   3
  -2 -13  -3-174.977 164.661   2
  -2  13  -3 139.973 196.930   3
  -2 -13  -4 244.031 212.939   2
  -2  13  -4 80.4547 82.3691   3
  -2 -13  -5 956.621 376.316   2
  -2  13  -5 631.618 296.575   3
  -2 -13  -6-70.7247 124.294   2
  -2  13  -6-39.7335 105.514   3
  -2 -13  -7 492.256 307.523   2
  -2  13  -7 305.212 179.767   3
  -2 -13  -8-37.0969 119.627   2
  -2  13  -8 267.687 205.522   3
  -2  13  -9 25.7212 131.976   3
  -2 -13  -9-2.09022 208.229   2
  -2  13 -10-72.2495 148.085   3
  -2 -13 -10-137.994 134.910   2
  -2 -13 -11 726.331 376.291   2
  -2  13 -11 294.124 202.001   3
  -2 -13 -12 852.033 434.100   2
  -2  13 -12-301.211 209.954   3
  -2  13 -13 860.964 378.939   3
  -2  13 -14 407.980 274.058   3
  -2  13 -15 419.534 280.618   3
   2  14  -9 1210.13 476.587   3
   2  14  -8 969.424 421.060   3
   2 -14  -7 1186.72 443.275   2
   2  14  -7 936.736 392.601   3
   2 -14  -6 735.611 373.162   2
   2  14  -6 180.589 219.942   3
   2 -14  -5-224.061 191.659   2
   2  14  -5 332.699 240.578   3
   2 -14  -4-5.80806 240.339   2
   2  14  -4 11.5306 126.956   3
   2  14  -3-247.542 285.765   3
   2 -14  -3-82.5399 236.736   2
   2 -14  -2 89.0263 223.919   2
   2  14  -2 857.183 390.989   3
   2  14  -1 858.117 388.252   3
  -2 -14   1 253.933 201.095   2
   2 -14  -1 1006.56 441.401   2
   2 -14   0 898.287 403.630   2
  -2 -14   0 641.813 305.735   2
   2  14   0 210.000 206.780   3
  -2 -14  -1 745.817 356.169   2
   2 -14   1 372.312 287.042   2
   2 -14   2 290.441 244.490   2
  -2 -14  -2 175.029 180.091   2
  -2 -14  -3-559.477 312.488   2
  -2  14  -3 52.3817 132.705   3
  -2  14  -4 109.547 160.622   3
  -2 -14  -4 67.0350 119.078   2
  -2  14  -5 543.258 305.328   3
  -2 -14  -5 571.459 374.562   2
  -2 -14  -6-22.3201 151.516   2
  -2  14  -6 698.796 274.250   3
  -2  14  -7 323.166 236.466   3
  -2 -14  -7 898.789 419.922   2
  -2  14  -8 239.247 175.666   3
  -2  14  -9 44.9391 104.387   3
  -2  14 -10 65.2792 119.540   3
  -2  14 -11 5.03816 108.873   3
  -2  15  -5-43.6443 89.5384   3
  -2  15  -6 788.364 379.937   3
  -2  15  -7 419.528 264.861   3
   3   0 -28 246.434 260.967   2
   3   0 -27-175.361 239.288   2
   3   0 -26 325.819 255.807   2
   3   0 -25 238.657 279.990   2
   3   0 -24 270.689 218.991   2
   3   0 -23 4594.24 751.872   2
   3   0 -22-140.270 204.918   2
   3   0 -21 7072.47 877.530   2
   3   0 -20-53.4586 77.7036   6
   3   0 -20 109.081 120.764   2
   3   0 -19 442.147 156.223   6
   3   0 -19 567.261 231.840   2
   3   0 -18 303.157 243.465   2
   3   0 -18 275.293 132.062   6
  -3   0  17 12268.2 835.512   4
   3   0 -17 14213.0 1109.76   2
   3   0 -17 12037.2 776.363   6
   3   0 -16 242.669 196.380   2
   3   0 -16 105.159 116.590   6
  -3   0  16 248.977 114.681   4
  -3   0  15 30424.2 1231.87   4
   3   0 -15 32163.6 1560.16   2
   3   0 -15 27885.5 1144.14   6
   3   0 -14 514.509 193.823   6
  -3   0  14 248.921 157.574   4
   3   0 -14 286.140 239.264   2
   3   0 -13 8532.71 613.018   6
  -3   0  13 8655.08 610.305   4
   3   0 -13 9662.24 786.184   2
   3   0 -12-12.0991 73.9535   2
   3   0 -12 107.894 87.8496   6
  -3   0  12 191.941 124.727   2
   3   0 -11 2162.22 342.492   2
   3   0 -11 2190.12 293.642   6
  -3   0  11 2312.76 359.613   2
   3   0 -10 44.9595 62.2343   2
   3   0 -10 151.796 91.3858   6
  -3   0  10 131.245 96.5988   2
  -3   0   9 12418.7 745.152   2
   3   0  -9 12374.2 727.350   2
   3   0  -9 11697.1 651.062   6
   3   0  -8 162.188 113.786   6
  -3   0   8 118.155 80.8295   2
   3   0  -8 104.088 110.126   2
  -3   0   7 103.532 51.8658   2
   3   0  -7 65.8603 51.7729   6
   3   0  -7 235.508 99.7342   2
  -3   0   6 34.4091 21.8485   2
   3   0  -6 32.9258 31.5637   2
   3   0  -6 161.294 91.9032   6
  -3   0   5 1490.33 116.973   1
  -3   0   5 1482.75 187.427   2
   3   0  -5 1438.26 184.002   2
   3   0  -5 1236.72 195.127   6
  -3   0   4 31.5465 33.3806   2
   3   0  -4 20.8574 25.6695   2
   3   0  -4 3.73796 35.1066   6
  -3   0   4 0.10210 12.9168   1
  -3   0   3 60261.1 981.786   1
  -3   0   3 59882.5 957.177   2
   3   0  -3 60562.2 964.808   2
   3   0  -3 57516.3 1269.56   6
   3   0  -2 47.4706 25.2697   2
   3   0  -2 117.534 62.2063   6
  -3   0   2 70.1210 29.5909   2
  -3   0   2 118.693 77.4359   1
  -3   0   1 201930. 2186.50   1
   3   0   1 114677. 1788.02   1
   3   0   1 112441. 1051.08   3
  -3   0  -2-10.6499 15.7405   2
   3   0   2 1.08029 47.3129   1
   3   0   2 6.52707 15.6984   2
   3   0   3 29992.4 637.879   2
   3   0   3 30320.5 990.502   1
  -3   0  -3 30765.7 595.453   3
  -3   0  -3 29393.9 619.386   2
  -3   0  -4 13.7605 34.1980   5
   3   0   4 10.8805 18.3540   2
   3   0   4 36.6214 68.7827   1
  -3   0  -4 4.36518 22.8292   2
   3   0   5 584.562 139.320   5
   3   0   5 721.427 163.671   1
   3   0   5 465.025 103.531   2
  -3   0  -5 457.407 101.939   2
  -3   0  -5 643.358 138.326   5
   3   0   6 17.2019 63.5963   5
  -3   0  -6 51.5055 39.4896   5
   3   0   6-21.3917 59.2189   1
   3   0   6 58.2416 64.4717   2
  -3   0  -6 7.52043 48.9619   2
   3   0   7 23434.0 1020.13   1
   3   0   7 23054.0 885.482   2
   3   0   7 25138.2 933.120   5
  -3   0  -7 24056.6 878.237   2
  -3   0  -8 44.4046 55.3932   2
   3   0   8-17.5235 38.0370   2
   3   0   8 18.3131 46.1454   5
   3   0   9 1398.53 245.386   2
   3   0   9 1547.57 276.985   1
  -3   0  -9 1252.42 230.862   2
   3   0   9 1580.24 247.882   5
  -3   0 -10 41.9732 66.7617   1
  -3   0 -10-1.55843 44.5656   2
   3   0  10 2.53915 26.6223   5
   3   0  10 21.3326 49.4477   2
   3   0  10-7.50239 52.1887   1
   3   0  11 27023.6 1066.67   5
  -3   0 -11 24750.8 1150.31   2
  -3   0 -11 25932.5 1259.16   1
   3   0  11 26342.7 1230.38   2
   3   0  11 26912.3 1253.15   1
  -3   0 -12 191.413 153.041   2
  -3   0 -12 28.5578 63.0757   4
   3   0  12 142.034 107.894   5
   3   0  12-22.7923 78.2557   2
  -3   0 -12 255.745 153.566   1
   3   0  13 65293.7 1748.77   5
   3   0  13 67981.1 2150.85   2
  -3   0 -13 69895.4 2266.79   4
  -3   0 -13 70636.5 2099.44   2
  -3   0 -14-108.219 85.1436   4
  -3   0 -14 57.4708 128.445   2
   3   0  15 10774.2 723.329   5
  -3   0 -15 11563.6 987.919   4
  -3   0 -15 12330.9 967.324   2
   3   0  16 129.899 130.873   5
  -3   0 -16 41.5291 221.624   2
  -3   0 -16 127.868 175.961   4
  -3   0 -17-134.605 113.543   4
  -3   0 -17 22.7616 84.9188   2
   3   0  17-27.1342 64.2814   5
  -3   0 -18 177.898 185.804   4
   3   0  18-80.4030 77.6313   5
  -3   0 -18 163.487 154.590   2
  -3   0 -19 2961.74 540.917   2
  -3   0 -19 3357.45 585.215   4
  -3   0 -20 123.262 157.482   4
  -3   0 -20-12.5160 119.917   2
  -3   0 -21 231.834 211.727   4
  -3   0 -21 264.451 154.443   2
  -3   0 -22-56.1098 122.003   2
  -3   0 -22 879.082 370.659   4
  -3   0 -23 399.213 172.363   2
  -3   0 -23 267.171 179.213   4
  -3   0 -24 148.790 174.348   2
  -3   0 -25-25.7925 104.332   2
  -3   0 -26 122.943 210.992   2
  -3   0 -27 73.6486 110.867   2
   3  -1 -28 2074.75 567.894   2
   3   1 -28 1549.50 504.297   2
   3  -1 -27 286.971 250.162   2
   3   1 -27 348.805 252.391   2
   3  -1 -26 27.3175 138.217   2
   3   1 -26 170.613 192.995   2
   3   1 -25 210.324 210.131   2
   3  -1 -25 128.947 95.3816   2
   3   1 -24 234.955 259.155   2
   3  -1 -24 213.794 178.214   2
   3  -1 -23 2825.38 595.199   2
   3   1 -23 2732.97 570.477   2
   3   1 -22 558.184 290.046   2
   3  -1 -22 1105.07 394.914   2
   3   1 -21 4196.70 716.771   2
   3  -1 -21 4881.71 744.227   2
   3   1 -20 347.769 215.251   2
   3  -1 -20 283.317 174.358   2
   3  -1 -19 471.124 194.460   6
   3  -1 -19 677.098 265.799   2
   3   1 -19 617.157 250.883   2
   3   1 -19 615.975 170.426   6
   3   1 -18 361.194 125.199   6
   3  -1 -18 451.816 203.042   2
   3  -1 -18 457.894 155.698   6
   3   1 -18 629.801 250.978   2
   3   1 -17 972.306 200.465   6
  -3   1  17 1168.09 290.192   4
   3  -1 -17 987.378 241.285   6
  -3   1  17 1231.59 187.505   1
   3   1 -17 1814.70 389.056   2
   3  -1 -17 1189.78 343.529   2
   3  -1 -16-7.34931 63.8383   2
   3  -1 -16 65.6631 96.3761   6
  -3   1  16 159.848 70.3718   1
   3   1 -16 52.4300 108.878   2
   3   1 -16 146.872 76.1421   6
   3  -1 -15 6896.77 611.794   6
  -3   1  15 6908.14 409.169   1
   3   1 -15 6939.82 523.750   6
   3   1 -15 7935.21 758.101   2
   3  -1 -15 7836.96 765.687   2
  -3   1  15 7499.31 674.341   4
   3  -1 -14 5485.59 623.462   2
  -3  -1  14 5207.21 436.832   4
  -3   1  14 5853.66 570.052   4
   3  -1 -14 5134.87 510.933   6
   3   1 -14 5275.22 455.450   6
  -3   1  14 6094.24 366.504   1
   3   1 -14 5714.58 636.922   2
  -3   1  13 6647.16 365.987   1
  -3   1  13 6507.11 577.631   4
   3   1 -13 6467.18 492.370   6
   3  -1 -13 6561.01 564.919   6
   3   1 -13 7464.58 700.388   2
   3  -1 -13 7002.43 663.212   2
  -3  -1  13 6208.86 457.127   4
   3   1 -12 5423.02 437.714   6
  -3  -1  12 6656.70 644.302   2
   3  -1 -12 5865.26 597.393   2
  -3   1  12 6567.30 346.845   1
  -3  -1  12 5545.39 406.137   4
  -3   1  12 6951.13 650.588   2
   3   1 -12 6654.49 622.531   2
   3  -1 -12 5766.83 514.579   6
   3  -1 -11 229.456 101.950   6
  -3  -1  11 320.167 147.325   2
  -3  -1  11 268.656 99.2250   4
  -3   1  11 425.573 146.995   2
   3  -1 -11 291.432 145.477   2
   3   1 -11 271.248 119.178   2
   3   1 -11 259.607 98.1332   6
  -3   1  10 620.874 164.039   2
  -3  -1  10 497.357 155.747   2
   3  -1 -10 476.761 142.976   6
  -3  -1  10 619.710 128.122   4
   3  -1 -10 533.891 165.393   2
   3   1 -10 611.863 173.781   2
   3   1 -10 440.014 125.237   6
   3  -1  -9 4192.71 410.128   6
   3  -1  -9 4247.69 438.778   2
   3   1  -9 4817.83 458.985   2
  -3   1   9 4191.64 436.476   2
  -3  -1   9 4339.90 445.716   2
   3   1  -9 4316.81 376.477   6
  -3  -1   9 4652.34 389.815   6
   3   1  -8 16232.0 716.289   6
  -3   1   8 19653.0 890.270   2
   3  -1  -8 16085.1 793.373   6
  -3  -1   8 18190.7 868.030   2
   3   1  -8 18012.0 843.392   2
  -3  -1   8 18178.3 768.897   6
   3  -1  -8 18145.5 856.293   2
   3  -1  -7 2167.22 269.742   2
  -3  -1   7 2125.63 276.569   2
  -3   1   7 1997.32 265.806   2
  -3  -1   7 2081.89 256.245   6
   3  -1  -7 2272.42 294.225   6
   3   1  -7 2059.63 249.488   6
   3   1  -7 2372.36 281.498   2
   3  -1  -6 19250.0 770.784   2
  -3   1   6 19308.7 779.591   2
  -3  -1   6 20677.0 787.378   6
   3  -1  -6 20161.6 838.377   6
   3   1  -6 20282.1 775.956   2
  -3  -1   6 19703.1 781.471   2
   3  -1  -5 4005.24 319.276   2
   3   1  -5 3854.09 311.424   2
  -3  -1   5 3650.80 309.782   2
   3  -1  -5 3620.31 341.739   6
   3   1  -5 3585.91 175.566   1
  -3   1   5 3659.63 308.815   2
  -3   1   4 3095.45 259.359   2
   3   1  -4 2997.11 252.795   2
  -3  -1   4 3042.82 257.283   2
   3   1  -4 3495.19 201.350   1
   3  -1  -4 2978.02 311.722   6
   3  -1  -4 3096.23 258.278   2
   3  -1  -3 891.317 124.727   2
   3  -1  -3 1111.73 184.870   6
   3   1  -3 759.362 110.552   1
  -3   1   3 1102.76 143.302   2
  -3  -1   3 1009.84 131.250   2
   3  -1  -2 1581.96 146.987   2
   3   1  -2 1263.06 151.552   1
  -3  -1   2 1647.34 147.934   2
   3  -1  -2 1938.98 236.741   6
  -3   1   2 1528.67 146.270   2
   3  -1  -1 1296.68 116.402   2
   3  -1  -1 1727.69 214.504   6
   3   1  -1 733.837 125.681   1
   3  -1   0 1610.17 214.400   5
   3  -1   0 1677.84 212.360   6
  -3   1  -1 60.3246 51.8344   6
   3  -1   1-3.89926 29.2887   5
  -3  -1  -1 101.026 34.9061   2
   3   1   1 45.1069 32.3382   3
   3   1   1 97.2501 64.0679   1
   3  -1   1 159.808 56.5729   6
   3   1   2 22184.9 515.733   2
   3   1   2 21419.1 624.192   3
  -3   1  -2 19758.3 713.442   6
   3  -1   2 21318.8 527.922   2
   3   1   2 22508.7 817.959   1
  -3  -1  -2 21796.0 503.154   2
   3  -1   2 21776.5 820.305   5
   3  -1   3 5553.68 303.028   2
  -3  -1  -3 5341.59 285.227   2
   3   1   3 5754.66 299.758   2
  -3  -1  -3 6131.09 343.940   3
   3   1   3 5236.76 414.181   1
  -3   1  -3 5944.83 377.440   6
   3  -1   3 6510.38 457.815   5
  -3  -1  -4 46029.2 960.717   2
  -3  -1  -4 50033.5 1056.87   3
  -3  -1  -4 47198.5 1162.82   5
  -3   1  -4 47070.9 1083.28   6
   3   1   4 47414.2 982.366   2
   3  -1   4 45987.8 996.255   2
   3   1   4 48344.9 1314.87   1
   3  -1   4 48873.9 1293.42   5
  -3  -1  -5 3392.08 316.200   5
  -3  -1  -5 3710.56 296.465   2
   3   1   5 3362.57 354.070   1
  -3   1  -5 3175.35 276.128   6
  -3  -1  -5 3931.22 312.473   3
   3   1   5 3578.65 297.939   2
   3  -1   5 3714.84 364.250   5
   3  -1   5 3385.61 293.178   2
   3  -1   6 5223.55 396.655   2
   3  -1   6 5222.90 441.425   5
  -3   1  -6 5534.77 367.600   6
   3   1   6 5619.86 483.464   1
  -3   1  -6 5869.17 407.632   2
  -3  -1  -6 5680.26 410.446   5
   3   1   6 5484.81 404.642   2
  -3  -1  -6 5811.14 403.914   2
   3  -1   7 7045.34 521.219   5
   3  -1   7 7088.24 500.836   2
  -3  -1  -7 6753.05 454.750   5
   3   1   7 6307.78 469.340   2
  -3   1  -7 6319.47 469.658   2
   3   1   7 6368.83 537.562   1
  -3  -1  -7 6505.78 468.948   2
  -3  -1  -8-6.28984 32.4438   5
   3  -1   8 101.088 80.3610   2
   3  -1   8 52.7031 37.9399   5
   3   1   8 8.81061 62.6260   1
  -3   1  -8-0.15901 58.6973   2
   3   1   8 41.4978 46.4176   2
  -3  -1  -8 25.5502 33.6889   2
  -3  -1  -9 95.0961 37.5394   2
   3  -1   9 38.1583 30.5552   5
   3   1   9-13.5663 45.2441   1
   3  -1   9 224.104 104.008   2
  -3   1  -9 203.232 107.340   2
   3   1   9 162.290 93.6506   2
   3   1  10 1166.80 263.183   1
  -3   1 -10 748.576 194.372   2
  -3  -1 -10 726.555 206.292   2
   3  -1  10 900.959 219.956   2
  -3   1 -10 689.828 210.199   1
   3   1  10 1310.90 255.208   2
   3  -1  10 681.447 175.382   5
   3   1  11 11612.0 829.020   1
  -3  -1 -11 11517.4 774.787   2
  -3  -1 -11 11820.1 889.973   4
   3   1  11 11442.5 803.005   2
  -3   1 -11 11508.5 837.219   1
  -3   1 -11 11351.4 768.863   2
   3  -1  11 12053.8 743.097   5
   3  -1  11 11403.0 812.312   2
  -3   1 -12 66.5777 88.9094   1
   3  -1  12 115.547 104.089   2
  -3  -1 -12 71.8378 96.2889   2
  -3   1 -12 97.2119 146.176   2
  -3  -1 -12 537.722 239.195   4
   3  -1  12 271.315 144.354   5
   3   1  12 151.513 127.214   2
   3  -1  13 11985.1 774.093   5
   3  -1  13 11217.3 890.178   2
  -3  -1 -13 13163.7 1003.46   4
   3   1  13 12849.0 934.064   2
  -3  -1 -13 12753.3 896.503   2
  -3   1 -13 13623.2 926.829   2
   3   1  13 13106.4 938.583   1
   3  -1  14 3230.60 410.726   5
  -3   1 -14 3034.76 455.072   2
   3   1  14 3490.60 497.861   1
  -3  -1 -14 2859.82 499.284   4
  -3  -1 -14 3267.40 468.250   2
  -3   1 -15 801.175 242.525   4
  -3  -1 -15 1175.66 323.857   4
  -3  -1 -15 904.248 261.264   2
   3   1  15 1427.45 328.379   1
  -3   1 -15 903.051 266.605   2
   3  -1  15 987.383 240.127   5
   3   1  16 460.674 201.310   1
  -3  -1 -16 693.381 258.566   4
  -3  -1 -16 1027.32 292.266   2
  -3   1 -16 721.568 240.178   2
  -3   1 -16 1162.99 307.798   4
   3  -1  16 511.561 162.372   5
  -3  -1 -17 497.591 205.249   2
  -3  -1 -17 295.741 203.430   4
  -3   1 -17 218.682 168.526   2
  -3   1 -17 219.106 85.5740   4
   3   1  17 462.651 227.682   1
   3  -1  17 312.634 132.002   5
  -3  -1 -18 240.647 173.880   2
  -3   1 -18 180.674 200.398   4
  -3   1 -18 75.9589 104.417   2
  -3  -1 -19 4321.53 682.513   4
  -3   1 -19 3584.68 609.951   2
  -3  -1 -19 3265.53 563.367   2
  -3   1 -19 4499.87 672.016   4
  -3   1 -20 2936.78 568.832   2
  -3  -1 -20 3061.55 623.622   4
  -3  -1 -20 3034.70 586.207   2
  -3   1 -20 2597.45 530.088   4
  -3  -1 -21 1970.92 466.014   2
  -3   1 -21 2013.49 463.116   4
  -3   1 -21 1636.94 412.439   2
  -3  -1 -21 2936.55 589.623   4
  -3   1 -22 4309.87 712.133   4
  -3   1 -22 2620.06 563.691   2
  -3  -1 -22 2680.38 575.034   4
  -3  -1 -22 2799.38 580.045   2
  -3   1 -23-146.246 124.745   4
  -3   1 -23 189.783 140.741   2
  -3  -1 -23 207.277 177.231   2
  -3  -1 -24 271.815 225.053   2
  -3   1 -24-219.045 242.706   4
  -3   1 -24 67.4034 166.651   2
  -3   1 -25-56.5600 155.950   4
  -3  -1 -25 283.871 145.999   2
  -3   1 -25-93.7127 184.536   2
  -3   1 -26 1101.12 403.434   2
  -3  -1 -26 830.372 399.831   2
  -3  -1 -27 558.038 293.481   2
  -3   1 -27 795.072 394.483   2
   3  -2 -28 903.993 350.907   2
   3  -2 -27 439.194 311.298   2
   3   2 -27 474.604 253.592   2
   3  -2 -26-60.2012 111.907   2
   3   2 -26 1.27132 129.679   2
   3   2 -25-67.4495 144.653   2
   3  -2 -25 100.775 147.860   2
   3  -2 -24 1419.83 443.265   2
   3   2 -24 1253.04 413.864   2
   3  -2 -23 1546.19 505.834   2
   3   2 -23 647.648 307.820   2
   3  -2 -22 5679.66 828.717   2
   3   2 -22 5108.73 790.964   2
   3   2 -21 492.376 241.599   2
   3  -2 -21 404.279 261.788   2
  -3   2  21 362.891 155.810   1
   3   2 -20 2237.99 503.453   2
  -3   2  20 2708.42 345.041   1
   3  -2 -20 2627.90 556.209   2
   3  -2 -19 692.902 261.134   2
  -3   2  19 778.445 179.835   1
   3   2 -19 737.913 229.483   2
   3   2 -18 447.922 191.537   2
  -3   2  18 349.841 118.798   1
   3  -2 -18 459.751 185.323   2
  -3   2  18 325.132 57.4324   5
   3   2 -17 197.624 179.266   2
  -3   2  17 143.556 51.6440   5
   3  -2 -17 150.865 181.628   2
  -3   2  17 115.255 60.5909   1
   3  -2 -16 3483.28 539.976   2
  -3   2  16 2904.90 211.377   5
   3   2 -16 2465.90 466.658   2
  -3   2  16 3221.96 329.545   1
  -3   2  15 171.574 71.5208   5
   3   2 -15 388.821 231.970   2
   3  -2 -15 124.232 114.272   2
  -3   2  15 35.5780 60.0537   1
  -3   2  15 497.567 217.486   4
  -3   2  14 21051.6 1159.83   4
  -3   2  14 19459.4 592.548   5
   3  -2 -14 21827.0 1267.85   2
   3   2 -14 20525.4 1212.70   2
  -3   2  13 3785.50 266.304   5
   3  -2 -13 3879.16 505.643   2
   3   2 -13 3722.12 497.286   2
  -3  -2  12 6103.53 632.289   2
  -3   2  12 7595.88 687.590   2
   3   2 -12 7341.38 677.474   2
  -3   2  12 6656.86 359.003   5
   3  -2 -12 6147.53 620.401   2
  -3   2  11 1487.83 171.429   5
  -3  -2  11 1380.15 284.716   2
  -3   2  11 1391.10 282.316   2
   3  -2 -11 1493.75 288.950   2
   3   2 -11 1078.78 92.8287   1
   3   2 -11 1486.12 273.854   2
  -3   2  10 4532.58 309.070   5
  -3   2  10 5237.73 527.783   2
   3  -2 -10 4655.20 491.940   2
   3   2 -10 5122.10 503.837   2
  -3  -2  10 4670.22 500.162   2
  -3  -2  10 4637.08 389.413   6
   3   2 -10 4050.72 177.336   1
  -3  -2   9 2430.38 284.072   6
  -3  -2   9 1452.39 266.104   2
  -3   2   9 2263.87 222.320   5
   3  -2  -9 2351.66 335.330   2
  -3   2   9 1736.40 296.600   2
   3   2  -9 2457.56 347.385   2
  -3  -2   9 1913.41 142.807   4
  -3  -2   8 17528.1 740.429   6
  -3   2   8 18330.9 638.015   5
   3  -2  -8 18150.2 878.742   2
  -3   2   8 17736.3 887.062   2
  -3  -2   8 15247.7 368.328   4
  -3  -2   8 17972.7 892.682   2
   3   2  -8 18107.5 874.205   2
  -3   2   7 19622.3 670.004   5
  -3  -2   7 18687.1 750.453   6
  -3   2   7 17986.1 832.313   2
   3  -2  -7 17153.2 815.904   2
  -3  -2   7 17906.0 843.911   2
  -3   2   6 16383.7 631.137   5
  -3   2   6 13725.9 701.185   2
  -3  -2   6 16763.8 706.497   6
   3  -2  -6 14089.2 693.945   2
  -3  -2   6 14188.8 707.568   2
  -3   2   5 9628.32 486.996   5
   3  -2  -5 9529.66 536.855   2
  -3   2   5 9483.29 538.490   2
  -3  -2   5 9584.17 543.610   2
  -3   2   4 1500.09 205.801   5
   3  -2  -4 2027.62 234.792   2
  -3   2   4 2225.45 250.525   2
  -3  -2   4 2121.97 240.951   2
   3  -2  -4 1832.38 254.788   6
   3  -2  -3 3.80502 41.5490   6
   3  -2  -3 139.992 60.9576   2
  -3   2   3 59.0018 36.0273   2
   3  -2  -3-5.62599 41.2760   5
   3  -2  -2 773.704 165.285   6
   3  -2  -2 837.233 166.872   5
   3  -2  -2 867.857 138.626   2
   3  -2  -1 912.709 169.112   6
   3  -2  -1 1209.61 150.525   2
   3  -2  -1 1054.72 171.466   5
   3  -2   0 420.144 116.928   5
   3  -2   0 458.292 68.6747   3
   3  -2   0 600.299 136.086   6
   3  -2   1 1457.31 204.975   6
   3  -2   1 1524.98 219.358   5
  -3   2  -1 1441.36 199.293   6
   3   2   1 1476.37 198.603   3
  -3  -2  -1 1644.78 172.133   2
  -3   2  -2 2005.45 243.363   6
   3   2   2 1950.94 229.055   3
  -3   2  -2 1974.67 123.639   3
  -3  -2  -2 2271.62 215.839   2
   3  -2   2 1912.09 257.394   5
   3  -2   2 1857.89 223.390   6
   3  -2   3 27679.7 843.980   6
  -3   2  -3 29181.6 878.768   6
  -3  -2  -3 29216.7 905.146   3
   3   2   3 25513.5 961.950   1
   3   2   3 28376.0 905.084   3
  -3  -2  -3 27383.0 783.063   2
   3  -2   3 29697.7 1036.53   5
  -3  -2  -4 19781.7 703.069   2
  -3  -2  -4 19604.1 773.406   3
   3   2   4 21395.8 903.039   1
   3  -2   4 19103.5 846.406   5
   3  -2   4 18777.4 719.239   2
   3   2   4 20215.8 720.281   2
  -3   2  -4 19269.5 701.314   6
   3  -2   4 18645.3 678.328   6
   3  -2   5 19841.6 876.965   5
  -3   2  -5 19265.6 685.462   6
  -3  -2  -5 19134.1 796.105   3
   3   2   5 19083.0 755.896   2
   3  -2   5 18838.8 755.693   2
   3   2   5 20560.5 925.017   1
  -3  -2  -5 18989.2 738.387   2
   3   2   6 4622.79 460.210   1
   3  -2   6 4456.55 429.953   5
  -3   2  -6 4381.30 320.716   6
  -3  -2  -6 4697.20 412.225   3
  -3  -2  -6 4620.21 385.608   2
   3   2   6 4591.85 397.366   2
   3  -2   6 4616.09 399.822   2
   3   2   7 215.513 99.2918   2
   3  -2   7 115.681 76.9563   5
   3   2   7 75.1435 81.5345   1
   3  -2   7 105.381 62.6516   2
  -3  -2  -7 191.183 105.137   3
  -3  -2  -7 135.810 83.2118   5
  -3  -2  -7 137.458 84.9209   2
  -3   2  -7 163.691 68.1121   6
  -3   2  -8 1627.48 188.844   6
   3  -2   8 1962.72 290.832   2
  -3  -2  -8 1903.33 281.917   2
   3   2   8 2067.27 301.796   2
  -3  -2  -8 1693.70 228.720   5
   3  -2   8 1952.92 294.730   5
   3   2   8 2237.90 339.386   1
   3  -2   9 18.1768 73.4093   5
   3  -2   9 219.304 98.0057   2
  -3  -2  -9 233.775 98.1500   2
  -3   2  -9 249.453 115.339   1
  -3   2  -9 287.756 85.2330   6
   3   2   9 253.682 128.037   1
   3   2   9 202.111 110.434   2
  -3  -2  -9 261.165 106.779   5
   3  -2  10 3576.98 438.790   2
  -3   2 -10 3060.83 417.592   1
   3   2  10 3644.93 466.547   1
  -3  -2 -10 2733.48 293.073   5
  -3  -2 -10 3098.44 393.574   2
  -3   2 -10 2956.34 248.302   6
   3   2  10 3549.13 435.622   2
   3  -2  10 3130.90 390.369   5
  -3  -2 -11 145.926 115.886   2
   3  -2  11 189.667 112.427   2
   3   2  11 75.0600 79.5223   2
  -3   2 -11 114.851 122.605   1
   3   2  11 89.2413 99.6498   1
  -3   2 -11 108.270 54.8947   6
   3  -2  11 102.267 92.8950   5
  -3  -2 -12 12347.3 976.199   4
   3  -2  12 11267.7 771.732   5
   3   2  12 12395.9 899.800   1
  -3  -2 -12 13381.4 896.759   2
   3   2  12 9595.98 783.713   2
  -3   2 -12 11182.2 470.256   6
   3  -2  12 8693.38 768.349   2
  -3   2 -12 12806.5 888.161   2
   3  -2  13 4840.96 519.162   5
  -3  -2 -13 4835.28 568.227   2
  -3   2 -13 4372.07 287.849   6
   3   2  13 4779.58 596.020   1
  -3  -2 -13 4611.56 612.591   4
  -3   2 -13 4688.46 566.231   2
   3  -2  14 688.180 198.822   5
  -3  -2 -14 943.886 270.640   2
  -3   2 -14 844.985 123.684   6
  -3  -2 -14 883.160 290.325   4
   3   2  14 643.964 223.934   1
  -3   2 -14 1484.10 335.555   2
  -3  -2 -15 170.328 122.825   2
  -3   2 -15 58.1793 35.3519   6
   3   2  15 166.809 158.575   1
  -3   2 -15 179.727 103.509   2
  -3  -2 -15 215.677 126.825   4
  -3  -2 -16 1858.08 427.328   4
  -3  -2 -16 1667.33 368.926   2
  -3   2 -16 1361.56 320.457   4
  -3   2 -16 1023.64 120.901   6
   3   2  16 1197.83 302.329   1
  -3   2 -16 1119.02 296.368   2
  -3   2 -17 139.775 38.8823   6
  -3   2 -17-23.0934 103.444   4
  -3  -2 -17 34.1824 107.320   4
  -3   2 -17 100.819 142.345   2
   3   2  17 103.597 80.2082   1
  -3  -2 -17 270.777 146.842   2
  -3   2 -18 2030.11 433.362   2
  -3  -2 -18 2539.59 521.714   4
   3   2  18 2420.24 470.368   1
  -3   2 -18 2454.89 471.219   4
  -3  -2 -18 2866.79 524.520   2
  -3  -2 -19 330.499 189.720   2
  -3  -2 -19 501.953 314.475   4
   3   2  19 145.564 146.133   1
  -3   2 -19 233.788 211.417   2
  -3   2 -19 927.135 372.463   4
  -3  -2 -20 5775.54 816.161   4
  -3   2 -20 5357.36 766.440   2
   3   2  20 5864.72 778.729   1
  -3   2 -20 5194.72 733.607   4
  -3  -2 -20 4478.26 703.340   2
  -3   2 -21 2164.70 496.155   4
  -3  -2 -21 2297.23 525.098   2
  -3   2 -21 1957.98 496.910   2
  -3  -2 -22 1601.23 436.952   2
  -3   2 -22 1675.69 429.570   4
  -3   2 -23 1049.51 350.810   4
  -3  -2 -23 914.040 319.025   2
  -3  -2 -24 24.6114 101.790   2
  -3   2 -24-57.6609 120.950   4
  -3   2 -25 27.1831 90.9256   4
  -3  -2 -25 44.5418 136.305   2
  -3   2 -26 984.482 368.433   4
  -3  -2 -26 739.585 374.476   2
  -3  -2 -27 735.784 390.406   2
   3  -3 -27 267.418 176.835   2
   3  -3 -26-51.4346 121.204   2
   3  -3 -25 4.93725 108.133   2
   3  -3 -24 1105.57 406.053   2
   3  -3 -23 441.508 257.050   2
  -3   3  22 9961.28 741.341   1
   3  -3 -22 10290.0 1112.49   2
   3  -3 -21 391.748 231.691   2
   3   3 -21 582.048 265.862   2
  -3   3  21 420.509 151.614   1
   3  -3 -20 9899.63 1042.52   2
  -3   3  20 10222.5 731.217   1
   3   3 -20 8561.72 983.882   2
   3   3 -19 407.149 186.290   2
  -3   3  19 327.425 147.344   1
   3  -3 -19 276.516 202.026   2
   3   3 -18 150.093 77.8513   2
  -3   3  18-44.6120 71.5537   1
   3  -3 -18-61.8405 139.482   2
  -3   3  17 999.253 222.424   1
   3  -3 -17 864.078 281.112   2
   3   3 -17 755.802 283.779   2
   3   3 -16 9227.52 436.337   1
   3   3 -16 10605.6 956.878   2
   3  -3 -16 10558.3 948.290   2
   3  -3 -15 615.658 238.574   2
   3   3 -15 1044.51 147.293   1
   3  -3 -14 23426.8 1327.92   2
   3   3 -14 21038.7 638.312   1
   3  -3 -13 776.561 252.536   2
   3   3 -13 703.839 118.524   1
   3  -3 -12 7432.50 690.345   2
  -3  -3  12 7516.71 502.440   6
  -3   3  11 724.461 227.765   2
  -3  -3  11 581.612 153.433   6
   3  -3 -11 470.098 188.721   2
  -3  -3  11 686.741 210.949   2
  -3   3  10 42.9634 30.4921   2
  -3  -3  10 16.1484 27.6773   6
   3  -3 -10 96.9713 70.9298   2
  -3  -3  10-8.98447 100.896   2
  -3  -3   9 124.330 67.9698   6
  -3   3   9 17.0729 59.0518   2
   3  -3  -9 85.4145 71.2729   2
  -3  -3   9 115.079 69.1952   2
  -3  -3   8 859.732 170.239   6
  -3   3   8 742.485 186.343   2
  -3  -3   8 537.181 165.607   2
   3  -3  -8 996.015 225.666   2
  -3   3   7 608.516 169.951   2
  -3  -3   7 875.457 201.796   2
   3  -3  -7 641.372 166.896   2
   3  -3  -6 339.081 108.145   2
  -3   3   6 606.749 163.058   2
   3  -3  -6 312.653 93.1728   5
  -3  -3   6 543.340 138.198   2
   3  -3  -5 3307.70 300.185   5
   3  -3  -5 3479.89 361.997   2
  -3   3   5 3202.92 346.647   2
  -3  -3   4 433.788 80.2055   4
   3  -3  -4 607.766 150.073   2
   3  -3  -4 410.561 112.738   5
  -3   3   4 720.346 156.841   2
   3  -3  -3 46.7809 39.5476   5
  -3  -3   3-26.8963 23.2266   4
   3  -3  -3-33.0303 31.6258   2
   3  -3  -2 236.495 92.5797   5
  -3  -3   2 215.682 68.1846   4
   3  -3  -2 215.158 80.6860   3
   3  -3  -2 467.684 120.926   2
   3  -3  -1 1671.55 192.127   3
   3  -3  -1 1461.58 222.792   5
  -3  -3   1 1618.72 197.958   4
  -3  -3   0 4441.79 359.319   4
   3  -3   0 4598.05 297.750   3
   3  -3   0 4163.89 387.033   5
   3  -3   0 4265.45 381.118   6
  -3  -3  -1 236.957 100.230   4
   3  -3   1 222.269 86.7670   6
  -3   3  -1 168.389 54.8852   3
   3   3   1 70.7299 65.0592   3
  -3  -3  -2 197.682 66.6012   2
   3   3   2 357.163 114.457   3
   3  -3   2 445.020 117.368   6
  -3  -3  -2 417.570 131.679   4
  -3   3  -2 475.336 87.0335   3
   3  -3   3 27.8312 49.5819   6
   3   3   3 80.1456 62.9084   3
  -3  -3  -3 31.4010 52.4393   2
  -3  -3  -3 130.406 79.0469   4
  -3  -3  -3 53.8689 67.0959   3
  -3  -3  -4 2310.40 273.997   2
  -3  -3  -4 2402.95 306.879   3
   3  -3   4 2697.25 274.142   6
  -3  -3  -5 30.3659 30.9805   3
  -3  -3  -5 95.0126 58.5310   2
   3  -3   5 122.260 58.2755   6
   3   3   5 106.907 77.7984   2
   3  -3   6 351.669 119.091   2
  -3  -3  -6 454.498 134.081   2
   3  -3   6 473.980 109.583   6
   3   3   6 477.689 145.486   2
  -3  -3  -6 461.568 129.701   3
  -3  -3  -7 733.184 185.515   3
   3   3   7 801.825 198.162   2
   3  -3   7 1024.57 230.524   2
  -3  -3  -7 900.714 199.325   2
   3   3   8 12.2511 61.7429   2
  -3  -3  -8 30.5719 26.7613   5
   3   3   8 107.467 106.219   1
  -3  -3  -8-26.1081 77.3297   3
  -3  -3  -8 61.6794 179.697   2
   3  -3   8-1.88867 37.3291   2
   3   3   9 334.985 166.577   1
   3   3   9 553.225 171.306   2
   3  -3   9 547.533 183.688   2
  -3  -3  -9 549.653 189.740   2
  -3  -3  -9 387.733 124.900   5
  -3  -3  -9 231.912 133.609   3
  -3   3 -10 14431.6 945.078   1
  -3  -3 -10 15094.6 925.680   2
   3   3  10 10902.7 799.855   2
   3  -3  10 10714.2 804.269   2
  -3  -3 -10 14563.1 672.093   5
   3   3  10 15125.0 977.933   1
  -3  -3 -11 2100.54 260.888   5
   3  -3  11 1393.67 314.801   2
   3   3  11 2110.24 373.771   2
   3   3  11 3069.18 469.686   1
  -3  -3 -11 1876.61 335.692   2
  -3  -3 -11 2872.78 488.593   4
   3   3  12 45451.5 1790.18   1
  -3  -3 -12 51475.8 2021.42   4
   3   3  12 44992.1 1763.46   2
  -3  -3 -12 46808.6 1748.62   2
   3   3  13 7261.41 733.420   1
  -3  -3 -13 8071.47 825.817   4
  -3  -3 -13 7099.38 700.772   2
  -3  -3 -14 14250.5 1129.93   4
   3   3  14 17463.2 1161.95   1
  -3  -3 -14 16318.6 1110.72   2
   3   3  15-74.4628 111.780   1
  -3  -3 -15-46.2909 111.941   2
  -3  -3 -15-69.9820 125.090   4
  -3  -3 -16 62.3703 111.242   2
   3   3  16 138.966 103.847   1
  -3  -3 -16 216.841 192.434   4
   3   3  17 271.180 116.711   1
  -3  -3 -17 449.883 237.733   4
  -3  -3 -17 124.107 133.908   2
  -3  -3 -18 5774.44 752.299   2
  -3   3 -18 5807.29 725.399   4
   3   3  18 5604.48 735.893   1
  -3  -3 -19 1056.77 322.346   2
  -3   3 -19 603.970 255.427   4
   3   3  19 330.686 190.164   1
  -3   3 -20 3949.83 636.776   4
  -3  -3 -20 4338.85 701.545   2
   3   3  20 4557.32 693.807   1
   3   3  21 315.035 244.427   1
  -3  -3 -21 351.082 286.951   2
  -3   3 -21 438.384 250.003   4
  -3   3 -22 238.627 192.514   4
   3   3  22 149.071 177.099   1
  -3  -3 -22-29.5648 185.557   2
  -3  -3 -23 103.805 107.327   2
   3   3  23 298.089 210.057   1
  -3   3 -23 253.567 182.526   4
  -3  -3 -24 853.464 460.489   2
  -3   3 -24 415.677 282.561   4
  -3  -3 -25 194.638 179.078   2
  -3   3 -25-82.4880 126.684   4
  -3  -3 -26 274.009 217.241   2
  -3  -3 -27-497.104 292.993   2
   3  -4 -27 21.2267 178.455   2
   3  -4 -26-301.793 227.556   2
   3  -4 -25-197.150 225.787   2
   3  -4 -24 432.900 201.168   2
   3  -4 -23 1618.41 454.962   2
   3  -4 -22 2964.05 619.386   2
  -3   4  22 2352.91 405.917   1
   3  -4 -21 549.294 280.500   2
  -3   4  21 372.527 147.157   1
  -3   4  20 1516.31 325.632   1
   3  -4 -20 1655.25 445.951   2
  -3   4  19 99.8733 76.9531   1
   3  -4 -19 2.76798 84.4259   2
   3  -4 -18 17.7864 114.567   2
   3   4 -18 41.0764 44.5024   1
   3   4 -17 897.464 156.770   1
   3  -4 -17 766.927 278.121   2
   3   4 -16 4213.47 348.460   1
   3  -4 -16 5105.08 685.101   2
   3  -4 -15 2289.22 444.665   2
   3   4 -15 2507.37 266.399   1
   3  -4 -14 3362.30 540.831   2
  -3  -4  13 8368.24 531.482   6
   3  -4 -13 9238.81 841.412   2
   3  -4 -12 1379.81 301.404   2
  -3  -4  12 1015.74 192.129   6
   3  -4 -11 1175.76 265.659   2
  -3  -4  11 1309.66 210.520   6
  -3   4  10 131.689 109.949   2
  -3  -4  10 332.099 173.850   2
   3  -4 -10 223.481 115.892   2
  -3  -4  10 285.366 118.324   6
  -3   4   9 8433.16 708.721   2
   3  -4  -9 8094.54 689.754   2
  -3  -4   9 7948.08 695.431   2
  -3  -4   9 7941.32 528.041   6
  -3  -4   8 1201.26 267.527   2
   3  -4  -8 738.091 206.395   2
  -3   4   8 1157.65 261.827   2
   3  -4  -7 12563.2 803.815   2
   3  -4  -7 11526.7 575.397   5
  -3  -4   7 9003.92 697.663   2
  -3   4   7 11634.1 782.028   2
   3  -4  -6 2101.04 254.567   5
   3  -4  -6 1918.30 313.736   2
  -3   4   6 1146.32 237.355   2
   3  -4  -5 14375.1 688.391   5
   3  -4  -5 15765.2 840.753   2
   3  -4  -4 557.294 144.846   5
   3  -4  -4 754.473 181.934   2
   3  -4  -4 837.420 176.632   3
   3  -4  -3 896.235 183.951   2
   3  -4  -3 875.584 183.026   5
   3  -4  -3 884.996 180.976   3
   3  -4  -2 3000.57 340.159   2
   3  -4  -2 2804.31 301.898   3
   3  -4  -1 15652.9 690.829   3
  -3  -4   0 5378.42 427.393   4
   3   4   0 4656.77 444.106   3
  -3  -4  -1 116.640 52.3727   4
  -3   4  -1 154.693 66.4817   3
   3   4   1 190.427 109.870   3
   3  -4   2 63.0089 72.1953   6
  -3  -4  -2 40.3757 89.3046   4
   3   4   2 15.5246 65.9317   3
  -3   4  -2 36.0741 28.1193   3
  -3  -4  -2 23.6820 46.4729   2
  -3  -4  -3 17465.3 836.606   2
  -3  -4  -3 19302.2 937.381   4
   3   4   3 18384.7 914.955   3
  -3   4  -3 18609.8 685.672   3
   3  -4   3 18283.1 790.590   6
  -3  -4  -4 251.244 112.464   2
  -3  -4  -4 487.435 177.212   4
  -3  -4  -4 210.517 98.6529   3
   3   4   4 237.209 104.366   3
   3  -4   4 229.895 97.2554   6
   3  -4   5 16611.0 723.881   6
  -3  -4  -5 17529.6 970.677   4
  -3  -4  -5 17761.2 886.492   2
  -3  -4  -6 2580.29 371.010   3
  -3  -4  -6 4180.78 492.943   4
  -3  -4  -6 3785.30 415.793   2
   3  -4   6 3883.85 334.641   6
  -3  -4  -7 4249.60 488.731   3
  -3  -4  -7 6070.37 544.503   2
   3   4   7 6045.91 556.495   2
   3  -4   7 4463.04 339.813   6
   3  -4   7 4981.73 522.211   2
   3   4   8 776.543 213.605   2
  -3  -4  -8 755.144 216.945   3
   3  -4   8 907.566 233.067   2
  -3  -4  -8 651.881 189.210   2
  -3  -4  -9 119.190 88.7541   3
   3  -4   9 81.2388 50.4587   2
  -3  -4  -9 256.451 111.775   2
   3   4   9 194.507 104.896   2
  -3  -4 -10 1722.33 236.245   5
   3  -4  10 1711.82 328.295   2
  -3  -4 -10 2297.69 426.778   4
   3   4  10 1286.63 283.940   2
  -3  -4 -10 1624.07 320.390   2
  -3  -4 -11 2115.95 422.816   4
   3   4  11 2420.76 423.915   1
  -3  -4 -11 1552.62 228.269   5
  -3  -4 -11 2174.97 374.284   2
   3   4  12 10066.1 882.546   1
  -3  -4 -12 10203.0 557.386   5
  -3  -4 -12 11139.4 985.216   4
  -3  -4 -12 10965.4 878.399   2
  -3  -4 -13 622.991 207.869   2
   3   4  13 866.748 265.454   1
  -3  -4 -13 1208.51 339.321   4
  -3  -4 -14 5503.23 674.552   2
   3   4  14 6695.49 761.366   1
   3   4  15 83.4455 62.7080   1
  -3  -4 -15-122.178 153.316   2
  -3  -4 -16 37.3854 79.9245   2
   3   4  16 154.489 121.067   1
   3   4  17 169.881 114.666   1
  -3  -4 -17-94.9276 114.439   2
   3   4  18 1308.55 385.928   1
  -3  -4 -18 1111.14 345.714   2
  -3  -4 -19 1731.64 454.240   2
  -3   4 -19 1472.45 364.163   4
   3   4  19 2026.29 481.942   1
  -3   4 -20 1508.62 405.070   4
  -3  -4 -20 1421.25 435.046   2
   3   4  20 494.467 252.199   1
  -3   4 -21 4176.14 653.826   4
  -3  -4 -21 4451.56 740.547   2
   3   4  21 4464.76 738.266   1
  -3   4 -22 126.729 115.257   4
  -3  -4 -22-233.703 229.991   2
   3   4  22-164.724 164.048   1
  -3   4 -23 278.515 183.378   4
  -3  -4 -23 168.361 168.250   2
   3   4  23 327.661 223.632   1
  -3   4 -24 104.852 164.168   4
   3   4  24 312.457 242.071   1
  -3  -4 -24-302.244 220.361   2
  -3  -4 -25-171.351 229.372   2
   3   4  25 129.982 210.157   1
  -3  -4 -26-263.941 218.631   2
   3  -5 -26 179.354 227.304   2
   3  -5 -25-32.6895 89.7096   2
   3  -5 -24 488.577 281.270   2
   3  -5 -23 1949.83 516.174   2
   3  -5 -22 535.712 298.044   2
  -3   5  22 420.883 198.578   1
   3  -5 -21 1787.86 496.539   2
  -3   5  21 2036.35 398.966   1
   3  -5 -20 779.375 296.128   2
   3  -5 -19 130.350 156.970   2
   3  -5 -18-6.89809 136.840   2
   3   5 -17 2521.02 304.649   1
   3  -5 -17 2957.66 546.608   2
   3  -5 -16 356.617 224.810   2
   3  -5 -15 8739.36 905.583   2
  -3  -5  14 640.813 166.224   6
   3  -5 -14 911.370 307.177   2
   3  -5 -13 10167.3 913.478   2
  -3  -5  13 10583.8 603.842   6
  -3  -5  12 719.562 157.470   6
   3  -5 -12 505.997 208.262   2
   3  -5 -11 181.033 139.077   2
  -3  -5  11 224.353 92.0356   6
   3  -5 -10 1219.89 296.656   2
   3  -5  -9 18207.3 723.563   5
   3  -5  -9 20301.3 1152.49   2
   3  -5  -8 1513.29 309.834   2
  -3  -5   8 1434.52 308.698   2
  -3   5   8 1255.24 289.463   2
   3  -5  -8 1526.88 223.319   5
   3  -5  -7 12234.0 649.735   5
   3  -5  -7 14117.7 911.660   2
   3  -5  -6 4355.35 493.101   2
   3  -5  -6 4205.67 390.733   5
   3  -5  -6 3809.97 449.864   3
   3  -5  -5 166.894 90.2748   3
   3  -5  -5 143.031 102.304   2
   3  -5  -5 232.089 98.9766   5
   3  -5  -4 821.026 205.033   2
   3  -5  -4 1107.89 225.916   3
   3  -5  -3 19542.4 982.872   2
   3  -5  -3 19564.1 933.464   3
   3   5  -2 519.313 145.477   4
   3  -5  -2 814.312 191.017   3
   3  -5  -2 738.904 198.599   2
   3  -5  -1 39324.5 1257.64   3
   3   5  -1 40171.3 1204.90   4
  -3   5   0 930.381 189.978   3
   3   5   0 1003.72 237.777   3
   3   5   0 950.648 202.302   4
   3   5   1 14827.0 804.339   4
  -3   5  -1 15998.0 743.300   3
   3   5   1 15135.1 909.831   3
  -3  -5  -2 3314.98 397.054   2
   3   5   2 3266.39 393.174   4
   3   5   2 3572.40 439.044   3
  -3   5  -2 3181.74 328.366   3
   3   5   3 2019.12 339.214   3
   3   5   3 1823.05 319.800   4
  -3   5  -3 1690.92 238.545   3
  -3  -5  -3 2229.42 335.638   2
   3   5   4 3173.43 419.793   4
   3   5   4 3389.08 443.180   3
  -3   5  -4 3240.31 334.387   3
   3  -5   4 3094.59 341.692   6
  -3  -5  -4 2430.00 348.203   2
  -3  -5  -5 12031.5 803.316   2
  -3  -5  -5 12591.8 861.434   3
   3  -5   5 11936.5 661.248   6
  -3  -5  -6 2193.19 349.701   2
  -3  -5  -6 2557.74 404.210   3
   3  -5   6 2301.39 282.201   6
  -3  -5  -7 8635.80 751.202   3
  -3  -5  -7 8695.28 718.689   2
   3  -5   7 8276.96 515.771   6
   3  -5   8 366.484 105.954   6
  -3  -5  -8 538.144 180.789   2
   3  -5   8 643.230 219.586   2
  -3  -5  -9 507.875 189.083   2
   3   5   9 364.084 161.278   2
   3  -5   9 591.082 117.520   6
  -3  -5 -10-18.3299 96.1815   2
  -3  -5 -11 4902.40 596.425   2
  -3  -5 -12 2748.08 483.684   2
  -3  -5 -12 2272.64 286.366   5
  -3  -5 -13 3211.10 303.145   5
   3   5  13 3358.24 546.373   1
  -3  -5 -13 3272.41 523.584   2
   3   5  14 1356.29 368.512   1
  -3  -5 -14 760.420 292.582   2
  -3  -5 -15 2841.37 511.842   2
   3   5  15 3390.33 559.673   1
  -3  -5 -16 447.001 211.676   2
   3   5  16 761.191 294.215   1
  -3  -5 -17 346.562 210.599   2
   3   5  17 379.475 243.937   1
  -3  -5 -18 71.5640 117.605   2
   3   5  18 344.989 219.157   1
  -3  -5 -19 1430.68 427.895   2
   3   5  19 2132.36 509.012   1
  -3  -5 -20 353.535 244.210   2
   3   5  20 183.428 169.538   1
  -3   5 -20 207.791 151.451   4
  -3   5 -21 3353.54 576.173   4
   3   5  21 3776.86 687.047   1
  -3  -5 -21 3955.75 731.428   2
  -3   5 -22 560.835 254.083   4
  -3  -5 -22 361.163 258.461   2
   3   5  22-101.615 197.061   1
  -3  -5 -23 496.010 299.496   2
   3   5  23 85.8340 92.7374   1
   3   5  24-22.7491 103.683   1
  -3  -5 -24-108.699 143.322   2
   3   5  25 269.564 201.892   1
  -3  -5 -25 42.2791 143.363   2
   3   5  26 248.657 153.740   1
   3  -6 -25-11.2458 132.275   2
   3  -6 -24-33.5283 161.197   2
   3  -6 -23 2125.60 570.802   2
  -3   6  22 2383.06 466.420   1
   3  -6 -22 1127.05 384.835   2
   3  -6 -21 4661.77 786.782   2
   3  -6 -20 793.031 329.601   2
   3  -6 -19 468.380 249.297   2
   3  -6 -18 172.368 135.970   2
   3  -6 -17 840.872 277.727   2
   3  -6 -16 1545.25 428.514   2
  -3  -6  15 7829.65 510.472   6
   3  -6 -15 7642.97 872.000   2
   3  -6 -14 1742.49 419.530   2
  -3  -6  14 1306.42 211.718   6
  -3  -6  13 2997.18 328.621   6
   3  -6 -13 4061.49 607.962   2
  -3  -6  12 104.542 62.8632   6
   3  -6 -12 94.9594 92.7543   2
   3  -6 -11 1616.90 363.281   2
   3  -6 -10 1883.23 247.860   5
   3  -6 -10 1868.63 403.062   2
   3  -6  -9 6117.21 462.922   5
   3  -6  -9 6310.92 688.437   2
   3  -6  -8 1006.68 204.209   5
   3  -6  -8 1586.31 355.404   2
   3  -6  -7 1736.68 348.176   2
   3  -6  -7 1506.04 250.708   5
   3  -6  -7 1726.03 343.195   3
   3  -6  -6 537.344 191.218   3
   3  -6  -6 568.157 185.213   2
   3   6  -5 825.685 142.516   4
   3  -6  -5 1007.69 252.352   2
   3  -6  -5 580.790 186.973   3
   3  -6  -4 236.913 121.130   2
   3   6  -4 147.093 68.6255   4
   3  -6  -4 74.2892 80.9514   3
   3   6  -3 3693.04 360.635   4
   3  -6  -3 3636.37 444.097   3
   3  -6  -3 4039.99 490.082   2
   3   6  -2 4756.42 435.554   4
   3  -6  -2 4481.76 488.516   3
   3  -6  -2 5964.57 598.514   2
   3   6  -1 5469.33 588.260   3
   3   6  -1 5977.45 511.092   4
   3   6   0 5037.03 488.796   4
  -3   6   0 5063.53 475.903   3
   3   6   0 5564.42 588.067   3
   3   6   1 5833.69 541.549   4
  -3   6  -1 5346.36 482.243   3
   3   6   1 5556.15 597.573   3
   3   6   2 375.996 144.708   3
  -3  -6  -2 395.041 148.476   2
   3   6   2 536.846 181.565   4
  -3   6  -2 230.443 109.982   3
  -3  -6  -3 42.1144 96.3103   2
   3   6   3-180.527 106.003   4
   3   6   3-166.164 151.385   3
  -3   6  -3-4.20619 48.2175   3
   3   6   4 331.693 191.006   3
   3   6   4 104.744 100.166   4
  -3   6  -4 333.081 144.224   3
  -3  -6  -4 362.578 149.984   2
  -3  -6  -5 1497.54 313.245   2
  -3  -6  -6 2532.74 419.148   2
   3  -6   6 2000.95 284.568   6
  -3  -6  -7 4299.41 541.101   2
   3  -6   7 4928.85 436.087   6
  -3  -6  -8 2885.46 450.738   2
   3  -6   8 2918.21 322.228   6
  -3  -6  -9 566.498 199.734   2
   3  -6   9 590.856 134.775   6
   3  -6  10 203.491 74.6563   6
  -3  -6 -10 162.977 126.031   2
  -3  -6 -11 8708.95 847.585   2
  -3  -6 -12 8057.56 835.278   2
  -3  -6 -13 7419.38 487.564   5
  -3  -6 -13 7300.16 809.897   2
  -3  -6 -14 1694.65 219.910   5
  -3  -6 -14 2104.48 461.037   2
  -3  -6 -15 3933.69 626.741   2
   3   6  15 3894.88 639.727   1
  -3  -6 -16 98.3624 125.660   2
   3   6  16 182.027 155.138   1
  -3  -6 -17 155.206 192.496   2
   3   6  17-45.2130 157.146   1
   3   6  18 312.320 228.478   1
  -3  -6 -18 387.045 225.875   2
   3   6  19 1766.34 493.712   1
  -3  -6 -19 3196.31 667.070   2
  -3  -6 -20 115.945 165.288   2
   3   6  20 662.478 286.514   1
  -3   6 -21 848.243 280.017   4
   3   6  21 765.929 318.490   1
  -3  -6 -21 482.597 268.071   2
  -3  -6 -22 54.5712 112.634   2
   3   6  22 131.477 151.078   1
   3   6  23-35.7244 99.9182   1
  -3  -6 -23 363.903 269.450   2
   3   6  24-297.534 270.226   1
  -3  -6 -24 4.11930 98.5528   2
  -3  -6 -25 299.762 271.137   2
   3   6  25 367.766 234.652   1
   3   6  26 224.823 197.509   1
   3  -7 -24 1003.70 436.803   2
   3  -7 -23 266.252 227.983   2
   3  -7 -22 1196.87 417.419   2
   3  -7 -21 905.395 349.065   2
   3  -7 -20-60.8977 192.385   2
   3  -7 -19-270.276 226.654   2
   3  -7 -18 607.711 275.931   2
   3  -7 -17 251.870 149.017   2
   3  -7 -16 2306.35 520.836   2
  -3  -7  16 1590.73 224.044   6
   3  -7 -15 1743.85 462.890   2
  -3  -7  15 1646.00 256.384   6
  -3  -7  14 2239.71 295.747   6
   3  -7 -14 2443.77 492.030   2
  -3  -7  13 392.543 153.300   6
   3  -7 -13 35.2975 141.986   2
   3  -7 -12 793.346 288.987   2
   3  -7 -11 174.946 130.406   2
   3  -7 -11 196.508 89.4050   5
   3  -7 -10 2548.04 311.576   5
   3  -7 -10 3336.22 531.427   2
   3  -7  -9 456.544 267.926   2
   3  -7  -9 402.215 143.794   5
   3  -7  -8 11809.7 741.535   5
   3  -7  -8 13649.3 1051.79   2
   3  -7  -7 886.770 312.378   2
   3   7  -7 1017.50 157.229   4
   3   7  -6 12955.3 617.954   4
   3  -7  -6 13799.2 1021.04   2
   3   7  -5 35.4431 52.1838   4
   3  -7  -5 144.963 174.047   2
   3   7  -4 2114.42 281.582   4
   3  -7  -4 2170.56 377.395   3
   3  -7  -4 2784.66 445.576   2
   3  -7  -3 119.243 85.5608   3
   3  -7  -3 227.967 137.882   2
   3   7  -3 132.571 94.7121   4
   3   7  -2 8530.45 629.331   4
   3  -7  -2 9213.39 798.454   2
   3   7  -2 9773.58 848.262   3
   3   7  -1 1185.42 242.886   4
   3   7  -1 1119.65 279.258   3
   3   7   0 9825.18 848.225   3
   3   7   0 8302.90 679.590   4
  -3   7   0 8933.64 696.799   3
   3   7   1 1328.38 282.489   4
  -3   7  -1 1117.29 238.191   3
   3   7   1 792.496 237.841   3
   3   7   2 1406.06 312.328   3
   3   7   2 1717.72 330.545   4
  -3  -7  -2 1303.38 292.997   2
  -3   7  -2 727.739 195.462   3
   3   7   3 3.43954 89.1514   3
  -3  -7  -3 58.9084 108.185   2
  -3   7  -3 103.150 101.326   3
  -3  -7  -4 9437.03 829.870   2
  -3   7  -4 8839.29 695.756   3
   3   7   4 9467.45 862.992   3
  -3   7  -5 634.506 216.731   3
  -3  -7  -5 106.976 83.2064   2
  -3   7  -6 14719.6 905.345   3
  -3  -7  -6 13699.6 1024.43   2
  -3  -7  -7 1551.86 352.740   2
   3  -7   7 1603.75 271.396   6
   3  -7   8 3994.47 412.463   6
  -3  -7  -8 4251.82 580.620   2
  -3  -7  -9 202.070 162.447   2
   3  -7   9 216.910 93.9756   6
  -3  -7 -10-20.0878 75.2060   2
   3  -7  10 6.64466 29.7436   6
   3  -7  11 1807.00 215.553   6
  -3  -7 -11 1517.14 360.893   2
  -3  -7 -12 2466.69 470.759   2
  -3  -7 -13 2385.60 484.123   2
  -3  -7 -14 616.855 146.810   5
  -3  -7 -14 792.043 312.050   2
  -3  -7 -15 844.365 337.384   2
  -3  -7 -16-80.7954 204.334   2
   3   7  16 56.0854 103.713   1
   3   7  17-167.003 127.868   1
  -3  -7 -17 81.0351 138.714   2
  -3  -7 -18-4.89938 169.936   2
   3   7  18 644.320 289.204   1
  -3  -7 -19 271.752 188.469   2
   3   7  19 575.901 310.465   1
   3   7  20 2314.10 566.602   1
  -3  -7 -20 2592.80 649.631   2
  -3  -7 -21 219.826 220.614   2
   3   7  21 148.323 157.923   1
  -3  -7 -22 1077.29 418.404   2
   3   7  22 1393.94 461.332   1
   3   7  23 344.769 215.915   1
  -3  -7 -23 156.234 176.696   2
   3   7  24-189.075 163.495   1
  -3  -7 -24-243.484 213.430   2
   3   7  25 7.10089 96.6791   1
   3  -8 -23 256.627 282.199   2
   3  -8 -22 489.269 281.031   2
   3  -8 -21 842.750 370.508   2
   3  -8 -20 363.568 259.672   2
   3  -8 -19-9.53650 216.157   2
   3  -8 -18-73.7234 181.450   2
   3  -8 -17 62.1055 92.6578   2
   3  -8 -16 2625.13 582.301   2
   3  -8 -15 1378.08 419.153   2
  -3  -8  15 676.659 184.107   6
   3  -8 -14 5431.07 784.532   2
  -3  -8  14 4837.79 467.356   6
   3  -8 -13 1582.05 443.188   2
   3  -8 -12 4839.48 420.767   5
   3  -8 -12 6205.79 800.477   2
   3  -8 -11 146.215 90.7372   5
   3  -8 -11 404.558 248.698   2
   3  -8 -10 198.319 116.242   5
   3  -8 -10-56.2999 101.284   2
   3  -8  -9 355.271 121.353   5
   3  -8  -9 577.932 239.998   2
   3   8  -8 1134.79 176.999   4
   3  -8  -8 1126.93 319.086   2
   3  -8  -7 292.436 204.821   2
   3   8  -7 316.960 105.377   4
   3   8  -6 821.561 177.412   4
   3  -8  -6 868.069 276.437   2
   3   8  -5 490.228 147.590   4
   3  -8  -5 533.040 222.164   2
   3   8  -4 28.8529 66.1688   4
   3  -8  -4-190.506 166.765   2
   3  -8  -3 276.301 185.330   2
   3   8  -3 116.167 148.507   3
   3   8  -3 162.129 90.4885   4
   3   8  -2 2983.84 493.984   3
   3   8  -2 2242.85 352.760   4
   3  -8  -2 2202.56 411.656   2
   3   8  -1-5.54101 54.9589   4
   3   8  -1 33.2562 76.8458   3
   3   8   0 1729.94 317.642   4
  -3   8   0 1835.87 336.090   3
   3   8   0 1911.68 402.337   3
  -3   8  -1 109.244 64.9694   3
   3   8   1 35.5108 73.6243   3
  -3   8  -2 432.927 175.366   3
  -3  -8  -2 437.361 212.321   2
   3   8   2 800.852 295.840   3
   3   8   3 279.432 177.593   3
  -3   8  -3 249.421 135.693   3
  -3  -8  -3 347.326 202.570   2
   3   8   4 1409.04 349.120   3
  -3  -8  -4 1673.15 362.447   2
  -3   8  -4 1622.59 324.853   3
  -3   8  -5 75.6949 52.9981   3
  -3  -8  -5 299.195 144.374   2
  -3  -8  -6 1132.04 326.001   2
  -3   8  -6 1176.84 274.817   3
  -3   8  -7 106.911 156.568   3
  -3  -8  -7 246.660 152.760   2
   3  -8   8 373.573 138.197   6
  -3  -8  -8 509.490 193.159   2
  -3  -8  -9-133.527 171.405   2
   3  -8   9 47.4055 47.3800   6
  -3  -8 -10 3887.34 611.183   2
  -3  -8 -11 1228.00 352.818   2
  -3  -8 -12 3990.03 646.551   2
  -3  -8 -13 1274.08 400.180   2
  -3  -8 -14 1416.89 420.472   2
  -3  -8 -15 123.450 171.512   2
  -3  -8 -16-94.0663 168.236   2
   3   8  17-108.090 183.336   1
  -3  -8 -17-288.005 246.204   2
   3   8  18 1196.56 414.896   1
  -3  -8 -18 725.353 312.613   2
  -3  -8 -19 90.6580 162.906   2
   3   8  19 469.891 256.129   1
  -3  -8 -20 2286.35 586.974   2
   3   8  20 3478.58 740.947   1
   3   8  21 138.532 250.950   1
  -3  -8 -21 626.839 354.475   2
  -3  -8 -22 325.573 306.982   2
   3   8  22 653.605 276.770   1
  -3  -8 -23-17.7245 166.174   2
   3   8  23-113.920 156.678   1
   3  -9 -22 752.180 370.753   2
   3  -9 -21 1589.97 498.757   2
   3  -9 -20 534.625 291.231   2
   3  -9 -19-154.909 193.264   2
   3  -9 -18-364.288 257.571   2
   3  -9 -17 943.035 339.318   2
   3  -9 -16 2249.65 545.781   2
   3  -9 -15 2701.66 592.895   2
   3  -9 -14 2804.79 592.340   2
   3  -9 -13 1391.18 426.550   2
   3  -9 -12 0.97005 108.337   2
   3  -9 -11 514.662 275.857   2
   3  -9 -10 1071.39 328.512   2
   3  -9  -9 2320.51 497.913   2
   3  -9  -8 1617.59 422.306   2
   3   9  -8 2039.77 271.457   4
   3   9  -7 1023.45 208.824   4
   3  -9  -7 1471.95 395.406   2
   3   9  -6 51.3767 64.9848   4
   3  -9  -6-22.1478 105.305   2
   3   9  -5 139.573 65.6814   4
   3  -9  -5 111.906 164.821   2
   3   9  -5 89.9197 156.991   3
   3   9  -4 542.318 159.462   4
   3  -9  -4 431.076 153.932   2
   3   9  -4 620.980 256.720   3
   3   9  -3 1076.74 248.225   4
   3  -9  -3 1416.06 367.058   2
   3   9  -3 1444.53 386.761   3
   3   9  -2 957.422 238.080   4
   3   9  -2 1503.64 391.619   3
   3  -9  -2 992.112 310.440   2
   3   9  -1 3546.83 594.926   3
  -3   9   0 1607.35 340.737   3
   3   9   0 1972.92 446.719   3
   3   9   1 2744.81 512.274   3
  -3   9  -1 2156.04 399.466   3
  -3  -9  -2 495.228 222.061   2
  -3   9  -2 566.826 189.633   3
   3   9   2 393.866 110.195   3
   3   9   3-34.2961 107.158   3
  -3   9  -3-11.2029 101.796   3
  -3  -9  -3 84.3566 92.9996   2
   3   9   4 131.402 92.5114   3
  -3  -9  -4 4.02858 115.481   2
  -3   9  -4-51.5453 77.9786   3
  -3   9  -5 856.223 271.252   3
  -3  -9  -5 1246.57 338.828   2
  -3  -9  -6 548.698 237.307   2
  -3   9  -6 1139.75 295.038   3
  -3   9  -7 2025.72 388.174   3
  -3  -9  -7 2360.36 486.098   2
  -3  -9  -8 235.370 194.322   2
  -3   9  -8 473.367 215.111   3
  -3   9  -9 309.238 153.468   3
  -3  -9  -9 111.143 131.193   2
  -3  -9 -10 278.441 179.950   2
  -3  -9 -11 3027.05 608.805   2
  -3  -9 -12 1622.17 445.498   2
  -3  -9 -13 2883.95 601.877   2
  -3  -9 -14 1625.83 445.681   2
  -3  -9 -15 1261.26 399.926   2
  -3  -9 -16 467.226 236.235   2
  -3  -9 -17 280.650 225.800   2
  -3  -9 -18 175.943 213.822   2
   3   9  18 213.822 174.574   1
  -3  -9 -19 334.042 246.943   2
   3   9  19 867.249 391.953   1
   3   9  20 1722.50 547.171   1
  -3  -9 -20 422.207 217.451   2
  -3  -9 -21 476.687 293.111   2
   3   9  21 1020.08 438.943   1
   3 -10 -20 248.978 278.299   2
   3 -10 -19-300.543 234.374   2
   3 -10 -18 157.922 162.335   2
   3 -10 -17 951.848 359.474   2
   3 -10 -16 174.515 188.682   2
   3 -10 -15 1165.38 407.896   2
   3 -10 -14 343.479 265.421   2
   3 -10 -13 620.986 302.078   2
   3 -10 -12 8.05742 133.153   2
   3 -10 -11-135.437 196.781   2
   3 -10 -10 127.815 141.738   2
   3 -10  -9 2841.13 562.845   2
   3 -10  -8 202.158 172.773   2
   3 -10  -7 3776.34 653.935   2
   3 -10  -6 61.4139 152.390   2
   3  10  -6 108.895 151.010   3
   3  10  -5 1198.69 380.834   3
   3 -10  -5 1483.64 423.003   2
   3 -10  -4 174.017 92.8583   2
   3  10  -4 17.3405 70.8999   3
   3 -10  -3 1271.01 353.592   2
   3  10  -3 1219.10 358.012   3
   3  10  -2 195.166 144.950   3
   3 -10  -2 784.775 307.255   2
   3 -10  -1 5615.36 765.855   2
   3  10  -1 5414.21 750.415   3
   3  10   0-99.1879 156.132   3
  -3  10  -1 1320.78 327.026   3
   3  10   1 1269.26 349.073   3
  -3  10  -2 503.409 211.968   3
   3  10   2 334.523 198.693   3
  -3 -10  -2 631.417 290.772   2
   3  10   3 1708.38 445.316   3
  -3  10  -3 1055.32 298.880   3
  -3 -10  -3 1219.37 371.707   2
   3  10   4-120.845 157.184   3
  -3 -10  -4 177.802 189.294   2
  -3  10  -4-57.2265 133.284   3
  -3 -10  -5 4206.95 675.640   2
  -3  10  -5 4157.58 597.664   3
  -3 -10  -6 67.6427 143.793   2
  -3  10  -6 59.1302 118.052   3
  -3 -10  -7 3777.10 663.112   2
  -3  10  -7 2975.42 520.248   3
  -3 -10  -8 344.793 198.739   2
  -3  10  -8 137.680 136.967   3
  -3  10  -9 221.349 122.034   3
  -3 -10  -9 326.106 227.138   2
  -3  10 -10 206.720 176.367   3
  -3 -10 -10 203.867 133.406   2
  -3 -10 -11 816.355 330.314   2
  -3  10 -11 1515.24 374.151   3
  -3 -10 -12 271.140 231.797   2
  -3 -10 -13 1861.42 509.443   2
  -3 -10 -14 123.590 176.164   2
  -3 -10 -15 40.0577 153.267   2
  -3 -10 -16 68.5187 92.5626   2
  -3 -10 -17-74.9433 202.950   2
  -3 -10 -18 196.503 195.691   2
  -3 -10 -19 1000.58 413.176   2
   3  10  19 1571.51 489.659   1
   3 -11 -18 1548.63 490.302   2
   3 -11 -17 1292.94 466.419   2
   3 -11 -16 762.060 369.226   2
   3 -11 -15 1003.12 383.964   2
   3 -11 -14 569.083 302.688   2
   3 -11 -13-33.5228 155.678   2
   3 -11 -12-103.361 178.434   2
   3 -11 -11 228.654 216.475   2
   3 -11 -10 1286.65 448.569   2
   3 -11  -9 2412.56 574.864   2
   3 -11  -8 1597.95 478.299   2
   3  11  -8 1325.91 425.174   3
   3 -11  -7 3788.64 706.502   2
   3  11  -7 4429.14 758.873   3
   3 -11  -6 48.8475 146.465   2
   3  11  -6-43.5332 108.649   3
   3 -11  -5 234.600 164.571   2
   3  11  -5 548.064 276.714   3
   3  11  -4 354.043 188.561   3
   3 -11  -4-16.4687 75.6518   2
   3 -11  -3 2268.66 516.718   2
   3  11  -3 2519.19 556.949   3
   3 -11  -2 2473.67 564.326   2
   3  11  -2 1328.01 413.387   3
   3 -11  -1 5079.36 784.984   2
   3  11  -1 5253.98 799.140   3
   3  11   0 1223.59 395.465   3
  -3  11  -1 2117.22 436.769   3
   3  11   1 1919.28 472.797   3
  -3 -11  -1 1401.61 419.357   2
  -3  11  -2 8.34665 80.2867   3
   3  11   2 88.6626 136.655   3
  -3 -11  -2 106.387 129.665   2
   3  11   3 193.725 151.582   3
  -3  11  -3 146.034 134.536   3
  -3 -11  -3 28.7044 107.143   2
  -3  11  -4 61.1305 80.7690   3
  -3 -11  -4 41.6649 156.806   2
  -3  11  -5 3350.01 553.220   3
  -3 -11  -5 2696.47 585.865   2
  -3 -11  -6 1136.51 391.208   2
  -3  11  -6 1192.98 363.571   3
  -3 -11  -7 1839.21 499.389   2
  -3  11  -7 2648.15 507.060   3
  -3 -11  -8 745.510 337.208   2
  -3  11  -8 720.741 287.712   3
  -3 -11  -9 1012.91 406.073   2
  -3  11  -9 203.183 151.982   3
  -3 -11 -10 82.5442 151.004   2
  -3  11 -10-159.718 133.304   3
  -3 -11 -11 321.778 300.376   2
  -3  11 -11 79.6478 117.562   3
  -3  11 -12 194.063 171.666   3
  -3 -11 -12 626.422 305.793   2
  -3 -11 -13 739.449 332.147   2
  -3  11 -13 1406.18 386.294   3
  -3  11 -14 775.793 302.462   3
  -3 -11 -14 947.604 381.877   2
  -3 -11 -15 375.537 265.094   2
  -3 -11 -16 145.838 71.7697   2
  -3 -11 -17-405.889 309.936   2
   3 -12 -15 187.233 185.454   2
   3 -12 -14 929.115 479.692   2
   3 -12 -13 337.535 270.596   2
   3 -12 -12 409.856 312.446   2
   3 -12 -11 219.584 189.833   2
   3  12 -10 1511.90 516.907   3
   3 -12 -10 1775.97 519.644   2
   3 -12  -9 722.092 331.485   2
   3  12  -9 722.950 370.897   3
   3  12  -8 1509.28 475.398   3
   3 -12  -8 2171.01 559.010   2
   3 -12  -7 92.3040 171.343   2
   3  12  -7 464.603 314.108   3
   3 -12  -6 884.197 354.925   2
   3  12  -6 487.176 291.268   3
   3 -12  -5 332.049 160.496   2
   3  12  -5 265.744 271.059   3
   3 -12  -4 294.414 221.062   2
   3  12  -4 35.8851 135.126   3
   3 -12  -3 19.6706 159.266   2
   3  12  -3 511.222 229.529   3
   3 -12  -2 2314.87 583.729   2
   3  12  -2 1541.36 434.661   3
   3 -12  -1 720.212 313.511   2
   3  12  -1 857.057 359.188   3
   3  12   0 1219.71 402.334   3
   3 -12   0 1839.27 474.010   2
  -3 -12   0 1945.49 497.851   2
   3  12   1 458.141 266.337   3
  -3 -12  -1-13.6351 204.352   2
   3  12   2 361.057 223.716   3
  -3 -12  -2 211.739 145.363   2
  -3  12  -2 298.639 162.716   3
  -3  12  -3-104.928 200.779   3
  -3 -12  -3 121.067 171.704   2
  -3  12  -4 173.538 173.035   3
  -3 -12  -4 361.869 295.848   2
  -3  12  -5 448.062 248.045   3
  -3 -12  -5 752.775 325.938   2
  -3 -12  -6 1644.95 463.527   2
  -3  12  -6 2167.47 493.403   3
  -3 -12  -7 234.310 236.140   2
  -3  12  -7 432.591 270.576   3
  -3 -12  -8 990.644 380.160   2
  -3  12  -8 1028.14 323.965   3
  -3 -12  -9 40.5753 87.5330   2
  -3  12  -9 153.693 137.559   3
  -3  12 -10 358.003 222.867   3
  -3 -12 -10 100.706 151.616   2
  -3 -12 -11 175.502 163.138   2
  -3  12 -11 110.881 181.748   3
  -3 -12 -12 539.717 327.253   2
  -3  12 -12 1067.44 378.291   3
  -3  12 -13 416.014 252.871   3
  -3 -12 -13 305.332 229.956   2
  -3  12 -14 908.214 340.284   3
  -3 -12 -14 464.774 283.042   2
  -3 -12 -15 78.5011 170.268   2
   3  13 -13 942.702 368.624   3
   3  13 -12 599.821 324.967   3
   3 -13 -12 348.578 281.279   2
   3  13 -11 157.100 202.112   3
   3 -13 -11 46.5978 168.639   2
   3  13 -10 77.0484 118.411   3
   3 -13 -10 186.699 202.496   2
   3 -13  -9-54.8345 106.547   2
   3  13  -9 193.888 111.735   3
   3 -13  -8 204.083 145.904   2
   3  13  -8 262.346 234.640   3
   3 -13  -7 129.393 159.290   2
   3  13  -7-92.1601 178.600   3
   3 -13  -6 342.681 211.345   2
   3  13  -6 423.589 259.143   3
   3 -13  -5-314.746 266.657   2
   3  13  -5 152.344 99.1882   3
   3  13  -4-305.965 223.053   3
   3 -13  -4 175.509 249.415   2
   3 -13  -3-36.4417 96.8785   2
   3  13  -3-88.9879 132.121   3
   3  13  -2 782.148 341.031   3
   3 -13  -2 1031.17 424.379   2
   3 -13  -1 524.077 299.165   2
  -3 -13   1 434.758 213.100   2
   3  13  -1 290.922 261.800   3
   3  13   0 640.022 263.575   3
   3 -13   0 679.476 342.374   2
  -3 -13   0 1133.86 444.242   2
   3 -13   1-35.4756 206.579   2
  -3 -13  -1 129.557 95.5687   2
   3  13   2 256.081 210.188   3
  -3 -13  -2 490.673 303.111   2
  -3 -13  -3-229.406 224.131   2
  -3  13  -3 74.4954 119.194   3
  -3 -13  -4 234.168 199.742   2
  -3  13  -4 185.755 209.531   3
  -3 -13  -5-46.5375 164.437   2
  -3  13  -5-72.2108 78.1967   3
  -3 -13  -6 80.9817 102.672   2
  -3  13  -6 640.932 290.104   3
  -3 -13  -7 163.126 99.9688   2
  -3  13  -7-105.481 81.7331   3
  -3 -13  -8-300.931 249.027   2
  -3  13  -8 224.041 202.786   3
  -3 -13  -9 321.524 272.986   2
  -3  13  -9 95.9715 127.056   3
  -3  13 -10 547.598 239.697   3
  -3 -13 -10 841.827 392.909   2
  -3  13 -11 222.545 194.206   3
  -3 -13 -11 38.9052 215.491   2
   3  14  -7 291.811 237.038   3
   3  14  -6 576.297 336.057   3
   3 -14  -6 466.984 309.891   2
   3 -14  -5 66.0747 286.072   2
   3  14  -5-198.814 197.044   3
   3 -14  -4 133.511 179.932   2
   3  14  -4-199.050 156.958   3
   3 -14  -3 123.633 223.050   2
   3  14  -3-140.858 249.696   3
   3  14  -2 391.104 293.638   3
   3 -14  -2 663.116 386.140   2
  -3 -14   2 785.139 383.625   2
   3  14  -1 925.127 410.135   3
   3 -14  -1 763.102 419.129   2
  -3 -14   1 1019.99 424.815   2
   3  14   0 746.634 324.565   3
   3 -14   0 176.873 297.096   2
  -3 -14   0 674.227 381.780   2
   3  14   1 139.549 197.342   3
  -3 -14  -1 89.5236 187.535   2
   3 -14   1 73.7150 196.788   2
  -3 -14  -2 36.3588 115.728   2
   3 -14   2 346.986 310.650   2
  -3 -14  -3-268.748 227.667   2
  -3 -14  -4 206.374 187.178   2
  -3 -14  -5 191.334 178.721   2
  -3  14  -5 428.032 262.378   3
  -3  14  -6 314.280 231.427   3
  -3 -14  -6 597.227 323.665   2
  -3  14  -7 153.094 162.148   3
  -3  14  -8-214.503 182.141   3
  -3  14  -9-268.965 198.550   3
   4   0 -28 548.072 308.111   2
   4   0 -27-57.3107 92.3081   2
   4   0 -26 502.350 226.127   2
   4   0 -25-46.5877 120.876   2
   4   0 -24 1960.12 513.413   2
   4   0 -23 244.700 227.325   2
   4   0 -22 299.274 161.151   2
   4   0 -21 264.966 207.616   2
   4   0 -20 1648.29 407.879   2
  -4   0  19-266.527 131.285   4
   4   0 -19-24.5815 44.5353   6
   4   0 -19-9.49692 152.359   2
   4   0 -18 9664.28 751.274   6
   4   0 -18 12441.0 1069.71   2
  -4   0  18 10299.8 788.089   4
   4   0 -17 470.594 225.621   2
  -4   0  17 407.985 165.863   4
   4   0 -17 513.171 206.866   6
   4   0 -16 4307.60 490.269   6
  -4   0  16 4698.19 498.396   4
   4   0 -16 5037.19 634.840   2
   4   0 -15 775.561 226.025   6
  -4   0  15 375.550 157.764   4
   4   0 -15 505.300 256.757   2
   4   0 -14 32695.7 1314.75   6
   4   0 -14 34584.0 1570.18   2
  -4   0  14 32806.6 1243.38   4
   4   0 -13-100.936 104.329   2
   4   0 -13 25.6354 51.6381   6
   4   0 -12 6266.16 556.738   6
   4   0 -12 7284.63 655.459   2
  -4   0  12 7424.04 674.736   2
   4   0 -11 229.243 195.817   2
  -4   0  11 204.998 142.051   2
   4   0 -10 10952.3 705.578   6
  -4   0  10 8884.05 674.420   2
   4   0 -10 12153.2 763.693   2
   4   0  -9 631.394 179.590   6
  -4   0   9 386.353 160.169   2
   4   0  -9 423.269 195.997   2
  -4   0   8 30816.0 1115.33   2
   4   0  -8 31475.4 1161.84   6
  -4   0   8 31966.8 1171.11   6
   4   0  -8 31407.2 1106.26   2
   4   0  -7 27.4697 53.7653   2
  -4   0   7 3.37998 17.7206   1
  -4   0   7 60.5531 61.6973   2
   4   0  -7 95.6757 71.8692   6
  -4   0   6 16586.8 701.568   2
   4   0  -6 15955.2 797.517   6
  -4   0   6 16865.8 486.010   1
   4   0  -6 16088.8 685.580   2
   4   0  -5 28.5664 45.4450   2
  -4   0   5 95.9961 53.1350   1
  -4   0   5-72.0161 44.7497   2
   4   0  -5 11.5031 48.1873   6
  -4   0   4 82621.1 1300.68   2
   4   0  -4 80436.0 1765.75   6
  -4   0   4 78877.5 1299.38   1
   4   0  -4 81759.7 1300.13   2
   4   0  -3 0.06105 23.5827   2
   4   0  -3 48.7789 76.9909   6
  -4   0   2 256801. 1802.26   2
   4   0  -2 256829. 1801.08   2
  -4   0   2 258465. 2768.59   1
  -4   0   1 117.014 123.940   1
  -4   0   0 153771. 2299.51   1
   4   0   1 117.952 60.8203   3
  -4   0  -2 10673.3 607.330   6
   4   0   3 6.49126 14.0406   2
  -4   0  -3-1.14140 11.8591   2
   4   0   3 99.1543 98.9166   1
  -4   0  -4 40754.6 1253.76   5
   4   0   4 39066.3 845.108   2
  -4   0  -4 40069.2 834.061   2
  -4   0  -4 41740.7 803.754   3
   4   0   4 42564.7 1361.78   1
  -4   0  -5 19.2906 24.2670   2
  -4   0  -5 24.2426 42.7683   5
   4   0   5 107.402 131.140   1
   4   0   5 2.20717 26.8018   2
  -4   0  -5 7.07778 27.2978   3
  -4   0  -6 28953.7 1094.26   5
   4   0   6 30159.9 931.022   2
  -4   0  -6 30020.8 897.060   2
   4   0   6 32222.1 1261.85   1
  -4   0  -7 400.613 152.604   5
   4   0   7 438.922 188.533   1
   4   0   7 110.076 86.7411   2
  -4   0  -7 188.743 117.945   2
   4   0   8 11161.4 788.701   1
   4   0   8 10925.3 661.719   2
  -4   0  -8 11061.8 640.383   2
   4   0   9 30.3317 29.4848   2
  -4   0  -9 11.1140 46.4094   2
  -4   0 -10-2.15181 64.5211   2
   4   0  10 94.8796 87.0748   2
   4   0  11 236.691 135.975   5
  -4   0 -11 234.695 116.336   2
   4   0  11 67.9956 128.227   2
   4   0  12 5715.87 537.673   5
   4   0  12 3598.19 469.690   2
  -4   0 -12 5959.18 595.470   2
  -4   0 -13 751.876 239.922   2
   4   0  13 348.033 190.259   2
  -4   0 -14 383.419 177.728   2
  -4   0 -14 103.759 152.227   4
  -4   0 -15 417.379 304.082   4
  -4   0 -15 300.266 226.883   2
  -4   0 -16 6266.37 800.301   4
  -4   0 -16 6593.09 727.836   2
  -4   0 -17 64.6350 125.481   2
  -4   0 -17-198.973 156.966   4
  -4   0 -18 732.462 286.652   4
  -4   0 -18 237.313 140.641   2
  -4   0 -19-39.5367 153.579   2
  -4   0 -19-145.600 103.613   4
  -4   0 -20 7064.50 923.523   4
  -4   0 -20 5324.12 763.912   2
  -4   0 -21-278.973 202.626   4
  -4   0 -21-6.81666 150.220   2
  -4   0 -22 6928.67 951.175   4
  -4   0 -22 5397.42 809.295   2
  -4   0 -23 106.544 165.933   2
  -4   0 -23 413.149 279.068   4
  -4   0 -24 1172.76 439.670   4
  -4   0 -24 507.280 177.000   2
  -4   0 -25 188.156 136.394   4
  -4   0 -25-182.322 217.110   2
  -4   0 -26 112.424 123.613   2
  -4   0 -27 91.5652 110.964   2
   4  -1 -28 704.777 406.501   2
   4   1 -28 80.7941 134.699   2
   4   1 -27 453.152 304.422   2
   4  -1 -27 537.171 312.116   2
   4  -1 -26-77.5032 143.207   2
   4   1 -26-23.3078 141.486   2
   4  -1 -25-97.2726 239.596   2
   4   1 -25 274.125 216.214   2
   4  -1 -24 731.829 293.398   2
   4   1 -24 1332.61 423.683   2
   4  -1 -23 3886.58 687.686   2
   4   1 -23 3417.80 657.258   2
   4  -1 -22 2521.31 544.543   2
   4   1 -22 3058.10 596.778   2
   4   1 -21 7134.77 875.619   2
   4  -1 -21 6210.51 843.173   2
   4  -1 -20 747.910 337.404   2
   4   1 -20 721.948 303.154   2
   4  -1 -19 906.827 290.437   2
   4   1 -19 737.053 255.296   2
   4   1 -19 756.701 193.604   6
   4   1 -18 1282.72 261.892   6
   4   1 -18 1460.76 363.290   2
   4  -1 -18 1192.23 331.091   2
   4   1 -17 1919.50 308.681   6
  -4   1  17 1867.80 353.228   4
  -4  -1  17 1940.96 293.645   4
   4  -1 -17 2716.96 490.334   2
   4   1 -17 1981.06 415.455   2
   4   1 -16 2271.28 422.588   2
   4   1 -16 1519.87 272.321   6
   4  -1 -16 1969.32 397.365   2
  -4   1  16 1680.54 334.886   4
  -4  -1  16 1570.18 255.998   4
  -4   1  16 1871.04 171.084   1
   4  -1 -16 1310.22 286.298   6
   4  -1 -15 5224.98 566.698   6
  -4  -1  15 5307.60 457.270   4
  -4   1  15 5132.24 556.097   4
   4   1 -15 4746.38 606.352   2
   4  -1 -15 4838.19 592.315   2
   4   1 -15 4836.82 488.896   6
  -4   1  15 5573.28 284.730   1
  -4   1  14 9102.41 356.881   1
   4  -1 -14 8317.07 686.782   6
   4   1 -14 9582.90 671.698   6
  -4  -1  14 9161.68 580.106   4
   4   1 -14 9134.23 808.766   2
   4  -1 -14 10540.5 866.498   2
  -4   1  13 2672.11 187.801   1
  -4  -1  13 2774.07 301.107   4
   4   1 -13 2917.57 365.820   6
   4  -1 -13 2963.51 400.467   6
   4  -1 -13 2766.30 422.990   2
   4   1 -13 2809.01 430.185   2
   4  -1 -12 115.115 111.825   6
   4  -1 -12 257.029 160.611   2
  -4  -1  12 146.743 118.304   2
   4   1 -12 62.9574 101.472   6
  -4   1  12 213.930 131.488   2
   4   1 -12 195.642 153.216   2
  -4  -1  11 17836.5 1006.16   2
   4   1 -11 19266.5 919.164   6
   4  -1 -11 20864.0 1075.99   2
  -4   1  11 19251.3 1042.66   2
   4   1 -11 21412.0 1084.53   2
   4  -1 -11 20247.6 1026.89   6
  -4  -1  10 8409.51 660.504   2
   4   1 -10 11126.0 689.752   6
   4  -1 -10 11498.5 753.655   2
  -4   1  10 9068.89 680.380   2
   4   1 -10 12427.8 773.667   2
   4  -1 -10 11504.0 751.459   6
  -4  -1  10 11461.3 710.661   6
  -4   1   9 19362.3 939.952   2
   4  -1  -9 17737.3 908.034   2
   4  -1  -9 18141.6 934.556   6
   4   1  -9 19023.4 929.649   2
   4   1  -9 16645.5 829.383   6
  -4  -1   9 17861.2 873.118   6
  -4  -1   9 18683.6 936.508   2
  -4  -1   8 11161.2 682.827   2
   4   1  -8 10748.7 657.127   6
  -4   1   8 10671.8 665.322   2
   4  -1  -8 10879.2 709.767   6
   4   1  -8 10941.9 655.825   2
  -4  -1   8 11372.0 683.098   6
   4  -1  -8 11141.0 666.987   2
   4  -1  -7 143.788 88.1363   6
   4  -1  -7 134.999 73.0667   2
  -4   1   7 103.931 69.9962   2
  -4  -1   7 78.6641 58.9754   2
   4   1  -7 154.408 88.8250   2
  -4  -1   7 215.097 123.573   6
   4  -1  -6 7352.35 476.698   2
  -4  -1   6 7861.77 494.884   2
   4  -1  -6 7087.75 553.587   6
  -4   1   6 7893.68 497.201   2
   4   1  -6 7658.91 481.006   2
  -4  -1   5 6360.14 407.453   2
  -4   1   5 5919.59 395.441   2
   4  -1  -5 6204.28 403.225   2
   4  -1  -5 6684.68 524.778   6
   4   1  -5 6384.10 407.991   2
   4   1  -5 5550.03 299.458   1
   4  -1  -4 5548.51 346.102   2
   4  -1  -4 5248.42 456.717   6
   4   1  -4 5511.71 322.230   1
  -4   1   4 5377.52 341.657   2
  -4  -1   4 5479.33 343.018   2
  -4  -1   3 642.528 105.638   2
  -4   1   3 527.610 97.2480   2
   4  -1  -3 590.167 98.5582   2
   4   1  -3 746.437 130.768   1
   4  -1  -3 592.654 159.556   6
   4  -1  -2 16095.9 473.120   2
   4  -1  -2 17023.5 798.698   6
   4   1  -2 16681.2 650.048   1
  -4  -1   2 17411.8 471.001   2
  -4   1   2 16832.7 483.128   2
   4   1  -1 3894.46 331.359   1
   4  -1  -1 4146.21 387.800   6
   4  -1  -1 3674.23 194.783   2
  -4  -1   1 3620.47 182.478   2
   4  -1   0 9643.75 588.711   6
  -4  -1   0 7918.89 503.044   1
   4   1   0 8277.42 509.302   1
   4  -1   0 8365.35 271.341   2
   4   1   1 4458.82 302.283   3
  -4  -1  -1 5300.78 434.110   1
  -4  -1  -1 4458.64 186.819   2
   4   1   1 5128.76 417.161   1
  -4   1  -1 4810.90 406.873   6
   4   1   2 307.105 121.315   1
   4  -1   2 353.216 122.042   5
  -4   1  -2 314.652 106.504   6
   4  -1   2 359.801 67.6383   2
  -4  -1  -2 275.396 55.0442   2
   4   1   2 425.212 96.1332   3
  -4  -1  -3 1595.17 152.561   2
   4   1   3 1913.85 285.477   1
   4   1   3 1732.61 159.971   2
   4  -1   3 1464.45 250.304   5
  -4   1  -3 1342.50 218.533   6
   4  -1   3 1647.61 162.370   2
   4   1   4 21118.7 951.681   1
  -4  -1  -4 20469.4 872.298   5
   4  -1   4 21958.8 969.257   5
  -4   1  -4 18790.1 398.187   3
  -4  -1  -4 20597.6 696.097   3
  -4   1  -4 20658.9 823.915   6
   4   1   4 19328.5 611.761   2
   4  -1   4 18788.5 622.861   2
  -4  -1  -4 20324.8 617.140   2
   4   1   5 100.777 56.9518   2
  -4  -1  -5 86.3440 63.5418   5
  -4  -1  -5 82.8511 52.4522   2
   4  -1   5 53.4709 50.2648   2
  -4   1  -5 101.151 81.9340   6
  -4  -1  -5 158.471 70.5576   3
   4  -1   5 125.822 106.872   5
   4   1   5 190.411 113.886   1
  -4  -1  -6 16774.3 825.890   5
   4  -1   6 18861.5 929.998   5
  -4   1  -6 16941.1 745.913   6
   4  -1   6 16827.0 717.156   2
   4   1   6 17028.5 705.067   2
  -4  -1  -6 18396.0 738.857   3
   4   1   6 18284.3 950.942   1
  -4  -1  -6 16711.9 694.880   2
  -4  -1  -7 20672.9 904.157   5
  -4  -1  -7 20254.5 822.812   2
   4  -1   7 19877.4 844.220   2
  -4   1  -7 19852.1 820.301   6
   4   1   7 19892.8 832.073   2
  -4  -1  -7 21194.4 840.649   3
  -4   1  -7 19919.5 826.249   2
   4   1   7 19903.9 1033.92   1
   4  -1   7 20933.8 1000.02   5
  -4  -1  -8 7728.50 554.747   5
  -4  -1  -8 7928.79 542.618   2
   4   1   8 8582.00 693.437   1
   4  -1   8 8280.00 637.529   5
  -4   1  -8 8097.31 562.313   2
   4   1   8 7764.04 556.587   2
  -4   1  -8 7166.92 488.393   6
   4  -1   8 7671.21 556.882   2
   4   1   9 3326.98 442.841   1
  -4   1  -9 2627.13 298.447   6
   4  -1   9 3073.83 373.433   2
   4   1   9 3363.65 391.948   2
  -4   1  -9 2897.28 348.861   2
   4  -1   9 2845.93 383.075   5
  -4  -1  -9 2652.21 338.340   2
  -4  -1  -9 3040.97 357.922   5
  -4   1 -10 854.213 199.892   2
  -4  -1 -10 632.364 184.467   2
   4   1  10 1030.33 236.536   2
   4  -1  10 1116.26 245.219   2
   4  -1  10 1032.46 225.826   5
   4   1  10 969.201 255.355   1
  -4   1 -11 8464.73 677.248   2
   4  -1  11 8198.40 667.499   5
  -4  -1 -11 8766.31 820.770   4
   4  -1  11 8438.05 697.466   2
   4   1  11 8483.57 691.936   2
  -4  -1 -11 8390.32 666.086   2
   4   1  11 9374.79 789.065   1
   4  -1  12 9848.76 753.275   5
   4  -1  12 6984.81 664.702   2
  -4  -1 -12 9966.80 893.119   4
   4   1  12 7681.83 694.564   2
  -4   1 -12 11310.4 808.611   2
  -4  -1 -12 10454.4 776.932   2
   4   1  12 10366.3 867.950   1
   4  -1  13 25353.5 1318.74   2
   4   1  13 25349.7 1313.90   2
   4  -1  13 24754.4 1206.35   5
   4   1  13 25505.2 1391.32   1
  -4  -1 -13 27586.4 1530.88   4
  -4   1 -13 26766.1 1305.75   2
  -4  -1 -13 25336.5 1277.42   2
  -4   1 -14 921.259 262.591   2
   4  -1  14 705.712 214.306   5
  -4  -1 -14 1114.71 343.035   4
  -4  -1 -14 804.753 223.724   2
   4   1  14 885.701 277.989   1
  -4  -1 -15 4544.28 674.682   4
   4   1  15 4919.93 633.727   1
  -4   1 -15 4707.34 596.852   2
  -4  -1 -15 5286.03 624.428   2
  -4   1 -16 1377.60 366.484   4
  -4  -1 -16 1657.37 410.129   4
   4   1  16 1480.01 358.446   1
  -4   1 -16 1281.48 322.768   2
  -4  -1 -16 1531.65 354.806   2
  -4   1 -17 87.4952 64.9355   6
  -4  -1 -17 75.1468 102.943   2
  -4   1 -17 48.7474 116.950   2
  -4   1 -17 227.019 180.786   4
  -4  -1 -17 54.2657 84.1271   4
  -4  -1 -18 2095.78 434.662   2
  -4   1 -18 1867.69 426.607   2
  -4   1 -18 1772.12 435.300   4
  -4  -1 -18 2251.58 498.221   4
  -4   1 -18 1640.22 237.858   6
  -4   1 -19 1097.60 375.484   4
  -4  -1 -19 1207.82 411.741   4
  -4   1 -19 972.907 323.462   2
  -4   1 -19 726.160 158.021   6
  -4  -1 -19 1124.76 332.394   2
  -4  -1 -20 3371.73 603.853   2
  -4  -1 -20 3316.24 664.365   4
  -4   1 -20 2666.75 550.225   2
  -4   1 -20 3585.99 656.124   4
  -4   1 -21 671.128 315.784   4
  -4  -1 -21 191.857 223.956   4
  -4   1 -21 45.9699 112.310   2
  -4  -1 -21 265.667 168.399   2
  -4  -1 -22 945.773 334.504   2
  -4  -1 -22 2078.68 542.004   4
  -4   1 -22 1101.49 403.775   4
  -4   1 -22 1126.24 348.722   2
  -4  -1 -23 2051.29 519.735   2
  -4  -1 -23 2066.63 557.546   4
  -4   1 -23 2055.10 503.240   2
  -4   1 -23 2593.38 598.746   4
  -4   1 -24-51.9607 89.6733   4
  -4  -1 -24 34.5941 93.7315   4
  -4  -1 -24-99.7980 177.719   2
  -4   1 -24-39.6025 85.0286   2
  -4  -1 -25 518.219 284.196   2
  -4   1 -25 33.4099 183.275   4
  -4   1 -25 280.682 169.376   2
  -4   1 -26 409.407 236.672   4
  -4  -1 -26 459.382 289.074   2
  -4  -1 -27 245.574 211.303   2
   4  -2 -27 40.9224 114.729   2
   4   2 -27 55.3891 210.932   2
   4  -2 -26 371.064 275.429   2
   4   2 -26 201.956 228.808   2
   4  -2 -25 429.212 251.624   2
   4   2 -25 348.171 256.335   2
   4  -2 -24 257.993 238.624   2
   4   2 -24 994.248 406.147   2
   4   2 -23 5107.60 816.891   2
   4  -2 -23 6148.12 900.641   2
   4  -2 -22 4298.84 736.266   2
   4   2 -22 4846.69 770.074   2
   4   2 -21 4657.83 736.149   2
   4  -2 -21 4276.62 691.694   2
   4   2 -20 3263.01 584.113   2
   4  -2 -20 3241.54 582.873   2
  -4   2  20 3419.68 327.115   1
  -4   2  19 73.0248 53.9458   5
   4  -2 -19-142.515 137.202   2
  -4   2  19 8.16122 32.3693   1
   4   2 -19 167.437 198.237   2
   4   2 -18 112.143 153.595   2
   4  -2 -18 171.304 183.710   2
  -4   2  18 82.4765 62.4721   1
  -4   2  18 109.519 57.7674   5
  -4   2  17 4293.29 335.843   5
  -4   2  17 4776.23 368.169   1
   4   2 -17 4389.60 634.502   2
   4  -2 -17 3725.71 576.087   2
  -4   2  16 2827.92 279.915   1
   4  -2 -16 3204.25 508.034   2
   4   2 -16 3222.87 518.834   2
  -4   2  16 3401.30 299.212   5
   4  -2 -15 12713.8 998.085   2
   4   2 -15 12029.2 973.434   2
  -4   2  15 11954.6 573.952   5
   4  -2 -14 368.989 186.356   6
  -4   2  14 334.853 123.198   5
   4  -2 -14 210.261 193.443   2
   4   2 -14 330.613 210.671   2
   4  -2 -13 1918.53 347.728   6
  -4  -2  13 1695.15 195.224   4
   4  -2 -13 1926.49 367.501   2
   4   2 -13 1938.01 394.040   2
  -4   2  13 1724.94 227.967   5
   4  -2 -12 9308.48 732.516   6
  -4  -2  12 8551.03 404.304   4
  -4  -2  12 8738.61 622.151   6
   4  -2 -12 9094.54 751.150   2
  -4   2  12 8395.60 730.356   2
  -4  -2  12 9675.90 791.705   2
   4   2 -12 8689.48 737.052   2
  -4   2  12 8597.34 500.456   5
  -4  -2  11 7380.15 664.851   2
  -4  -2  11 6130.90 325.004   4
  -4   2  11 6962.81 644.177   2
  -4  -2  11 6134.45 518.826   6
   4  -2 -11 6229.73 592.748   6
   4   2 -11 7362.61 654.122   2
  -4   2  11 6111.06 429.332   5
   4  -2 -11 6654.46 626.899   2
  -4   2  10 12754.1 620.884   5
   4  -2 -10 11849.6 799.880   6
  -4  -2  10 12667.1 733.505   6
  -4   2  10 9222.12 705.344   2
   4  -2 -10 12057.8 796.139   2
   4   2 -10 13189.0 837.146   2
  -4  -2  10 9751.48 728.491   2
   4  -2  -9 27233.6 1135.46   2
  -4  -2   9 25610.9 1031.88   6
   4   2  -9 26968.8 1131.61   2
   4  -2  -9 25323.2 1142.83   6
  -4   2   9 22428.7 1059.37   2
  -4  -2   9 26970.4 1156.97   2
  -4   2   9 26797.0 910.012   5
   4   2  -8 1063.91 100.954   1
  -4   2   8 1731.00 277.621   2
  -4  -2   8 1496.30 270.667   6
  -4   2   8 1699.41 251.680   5
   4  -2  -8 1752.52 279.728   2
   4  -2  -8 1726.99 308.285   6
  -4  -2   8 1543.41 265.487   2
  -4   2   7 9258.92 541.116   5
   4  -2  -7 8392.82 565.225   2
   4   2  -7 8968.12 342.755   1
  -4   2   7 8984.05 601.871   2
   4  -2  -7 9273.96 671.677   6
  -4  -2   7 9055.96 605.386   2
  -4  -2   7 8279.49 567.977   6
   4  -2  -6 176.742 103.021   6
  -4   2   6 183.757 93.0765   5
  -4  -2   6 187.816 124.337   6
   4  -2  -6 253.608 110.308   2
  -4   2   6 273.050 108.369   2
  -4  -2   6 137.147 96.9384   2
   4   2  -6 293.343 77.9293   1
  -4   2   5 15249.7 716.778   5
   4  -2  -5 13904.7 787.119   6
   4   2  -5 12937.6 500.252   1
   4  -2  -5 13239.8 635.259   2
  -4  -2   5 13565.7 641.326   2
  -4   2   5 13355.3 651.119   2
  -4   2   4 5919.54 403.799   2
   4  -2  -4 5876.44 400.475   2
  -4   2   4 5699.59 435.446   5
   4   2  -4 6016.46 366.351   1
  -4  -2   4 5581.71 387.541   2
   4  -2  -4 5411.48 483.970   6
  -4   2   3 3592.47 293.675   2
   4   2  -3 3701.24 305.098   1
   4  -2  -3 3915.53 306.366   2
   4  -2  -3 3987.49 414.592   6
  -4  -2   3 3447.01 287.005   2
   4  -2  -2 5932.69 472.561   5
   4   2  -2 5766.09 400.345   1
   4  -2  -2 5608.77 345.597   2
   4  -2  -2 6168.83 501.713   6
   4  -2  -1 9065.20 595.403   5
   4  -2  -1 9484.33 429.143   2
   4  -2  -1 10086.3 633.271   6
   4   2  -1 9638.07 545.355   1
   4  -2   0 430.866 128.778   6
  -4   2   0 279.568 112.017   6
   4  -2   0 245.611 48.4145   3
   4   2   0 424.058 121.241   1
   4  -2   0 243.878 98.5402   5
  -4  -2  -1 7329.37 364.450   2
  -4   2  -1 7610.69 523.328   6
   4   2   1 7544.87 528.540   1
   4   2   1 7429.00 467.850   3
   4  -2   1 7097.66 543.400   5
   4  -2   1 7404.76 525.457   6
   4  -2   2 11.4892 28.5021   6
   4  -2   2 10.9836 45.4845   5
  -4  -2  -2-5.20599 30.1259   2
   4   2   2 16.9162 52.0156   1
  -4   2  -2-20.7687 45.1458   6
   4   2   2 13.5101 39.7812   3
   4  -2   3 12841.6 752.946   5
  -4   2  -3 12321.4 660.743   6
   4   2   3 13823.7 765.378   1
  -4  -2  -3 12667.6 519.284   2
   4   2   3 12689.3 624.037   3
   4  -2   3 11075.4 627.683   6
  -4   2  -4 776.741 161.853   6
  -4  -2  -4 581.313 114.779   2
   4   2   4 787.902 188.394   1
  -4  -2  -4 878.962 177.266   3
   4   2   4 757.099 134.044   2
   4  -2   4 723.867 182.205   5
   4  -2   4 698.860 140.577   2
   4  -2   5 10773.9 716.906   5
  -4  -2  -5 9969.17 529.609   2
   4   2   5 10563.3 721.436   1
  -4  -2  -5 10941.2 623.188   3
   4  -2   5 9983.53 555.946   2
   4   2   5 10394.7 548.912   2
  -4   2  -5 10421.8 589.721   6
  -4  -2  -6 3982.74 397.023   5
  -4   2  -6 3873.15 354.699   6
  -4  -2  -6 3663.33 341.795   2
   4   2   6 3380.17 422.017   1
  -4  -2  -6 3991.19 381.007   3
   4  -2   6 4342.20 465.412   5
   4  -2   6 3540.05 356.798   2
   4   2   6 3515.07 345.194   2
  -4  -2  -7 26237.8 1019.36   5
  -4   2  -7 27375.0 936.632   6
  -4  -2  -7 28204.5 1066.14   3
  -4  -2  -7 27220.6 995.105   2
   4  -2   7 27220.8 1188.91   5
   4   2   7 26831.9 1014.04   2
   4  -2   7 25784.2 1012.41   2
   4   2   7 28261.4 1262.00   1
  -4  -2  -8 7147.76 537.083   2
   4  -2   8 7290.89 572.320   2
  -4  -2  -8 6646.48 517.068   5
   4  -2   8 7355.21 622.019   5
   4   2   8 7242.60 650.851   1
  -4  -2  -8 7170.81 563.903   3
   4   2   8 6979.91 545.873   2
  -4   2  -8 7352.70 478.444   6
  -4  -2  -9 2727.66 349.063   2
   4   2   9 3109.62 441.636   1
   4  -2   9 2534.10 369.845   5
   4  -2   9 2490.17 350.482   2
  -4  -2  -9 2717.98 328.045   5
  -4  -2  -9 2550.67 348.759   3
   4   2   9 2358.31 337.850   2
  -4   2  -9 2223.09 260.167   6
  -4   2  -9 2725.76 416.967   1
  -4   2 -10 444.060 121.360   6
   4   2  10 298.363 144.578   1
   4  -2  10 476.877 174.662   5
   4   2  10 398.084 137.610   2
   4  -2  10 252.504 118.461   2
  -4  -2 -10 442.603 136.316   5
  -4  -2 -10 287.191 118.585   2
   4  -2  11 6438.71 614.378   5
  -4   2 -11 6306.18 434.286   6
  -4  -2 -11 7213.48 748.807   4
   4   2  11 5119.74 551.589   2
  -4  -2 -11 6770.31 611.296   2
   4  -2  11 4728.38 537.401   2
   4   2  11 7050.84 702.776   1
   4   2  12 9625.03 847.986   1
  -4  -2 -12 10595.4 798.567   2
  -4  -2 -12 10628.5 971.318   4
   4   2  12 8086.70 722.326   2
  -4   2 -12 10440.1 556.195   6
   4  -2  12 8265.82 741.353   2
   4   2  13 13362.1 1012.93   1
  -4  -2 -13 12478.5 1060.95   4
  -4   2 -13 11194.1 569.027   6
  -4  -2 -13 12734.7 912.001   2
   4   2  14 11950.2 990.661   1
  -4  -2 -14 12445.3 1077.53   4
  -4  -2 -14 11219.9 888.256   2
  -4   2 -14 10833.3 551.555   6
  -4  -2 -15 1972.08 372.307   2
  -4  -2 -15 2168.75 480.260   4
   4   2  15 2033.49 424.361   1
  -4   2 -15 2030.99 231.169   6
  -4  -2 -16 103.734 145.951   2
  -4  -2 -16 359.843 220.617   4
  -4   2 -16 120.131 60.8017   6
   4   2  16 53.7166 62.3884   1
  -4  -2 -17 254.044 147.480   4
  -4   2 -17 64.9128 46.4086   6
   4   2  17 16.2019 82.3378   1
  -4  -2 -17 160.030 120.284   2
  -4  -2 -18 306.163 156.182   2
   4   2  18 551.053 263.053   1
  -4   2 -18 35.4972 121.681   4
  -4  -2 -18 796.164 326.597   4
   4   2  19 4833.95 709.914   1
  -4   2 -19 4488.44 709.206   4
  -4  -2 -19 4895.81 792.357   4
  -4  -2 -19 4198.19 666.138   2
  -4  -2 -20 69.2467 168.545   2
  -4   2 -20 443.464 300.495   4
  -4  -2 -20 312.300 199.020   4
  -4  -2 -21 1783.13 468.287   2
  -4   2 -21 2226.28 519.426   4
  -4  -2 -21 3343.64 681.250   4
  -4   2 -22 2034.30 511.144   4
  -4  -2 -22 1747.90 464.143   2
  -4  -2 -22 1675.68 464.764   4
  -4  -2 -23 81.3353 164.288   2
  -4   2 -23 332.442 208.644   4
  -4  -2 -24 1092.17 387.940   2
  -4   2 -24 605.142 301.175   4
  -4  -2 -25 260.119 248.323   2
  -4   2 -25 97.3312 118.422   4
  -4   2 -26 489.274 284.331   4
  -4  -2 -26 307.451 225.844   2
  -4  -2 -27 805.143 351.386   2
   4  -3 -27 448.448 328.726   2
   4  -3 -26 53.6404 137.035   2
   4  -3 -25 197.909 200.674   2
   4  -3 -24 282.404 217.911   2
   4  -3 -23 2139.38 547.589   2
   4  -3 -22 775.872 358.167   2
   4  -3 -21 470.898 242.821   2
  -4   3  21 400.428 158.699   1
   4  -3 -20 266.111 289.078   2
  -4   3  20 246.901 153.048   1
   4  -3 -19 880.992 306.529   2
  -4   3  19 1018.63 215.285   1
   4  -3 -18 590.493 225.098   2
  -4   3  18 627.210 171.402   1
   4  -3 -17 2098.55 444.383   2
   4  -3 -16 203.086 151.931   2
   4  -3 -15 9702.22 885.721   2
  -4   3  14 4462.18 329.667   5
   4  -3 -14 5246.08 630.541   2
   4  -3 -13 24910.3 1327.24   2
  -4   3  13 25583.7 805.214   5
  -4  -3  13 24022.3 1032.79   6
  -4   3  12 1525.12 203.537   5
  -4  -3  12 1620.15 280.409   6
   4  -3 -12 1696.29 339.640   2
   4  -3 -11 5137.99 554.503   2
  -4  -3  11 4381.58 431.063   6
  -4  -3  11 4685.54 546.623   2
  -4   3  11 4177.71 510.234   2
  -4   3  11 4602.86 359.170   5
  -4   3  10 641.631 142.419   5
  -4  -3  10 586.082 168.842   6
  -4  -3  10 352.553 150.025   2
  -4   3  10 636.059 199.247   2
   4  -3 -10 527.187 171.418   2
  -4   3   9 2977.36 297.901   5
   4  -3  -9 2260.08 347.871   2
  -4   3   9 1909.56 318.444   2
  -4  -3   9 1882.42 320.328   2
  -4  -3   9 2638.62 335.961   6
  -4  -3   8 556.915 137.189   6
  -4   3   8 876.426 159.625   5
   4  -3  -8 1348.63 329.043   2
  -4   3   8 929.219 218.475   2
  -4  -3   8 1044.97 224.464   2
   4  -3  -7 9831.35 652.009   2
  -4   3   7 10217.2 581.012   5
  -4  -3   7 9907.86 673.929   2
  -4  -3   7 9515.75 631.153   6
  -4   3   7 9341.88 656.557   2
   4  -3  -6 2109.32 289.275   2
   4  -3  -6 2170.05 327.986   6
  -4  -3   6 2631.06 331.420   2
  -4   3   6 2406.04 279.647   5
  -4   3   6 3017.43 355.247   2
   4  -3  -5 1461.09 232.523   2
   4  -3  -5 1468.78 259.256   6
  -4  -3   5 1378.10 235.634   2
  -4   3   5 1522.53 240.717   2
   4  -3  -4 2940.53 313.399   2
   4  -3  -4 2541.09 310.930   5
   4  -3  -4 2505.93 345.441   6
   4  -3  -3 22500.1 943.659   5
   4  -3  -3 23663.8 1041.56   6
   4  -3  -3 22792.3 863.571   2
   4  -3  -2 3761.26 332.951   2
   4  -3  -2 3383.73 375.878   5
   4  -3  -2 3154.99 280.250   3
   4  -3  -2 3705.13 414.726   6
   4  -3  -1 30931.5 1153.08   6
   4  -3  -1 29421.9 1124.32   5
   4  -3  -1 29126.4 782.084   3
   4  -3  -1 28075.6 902.380   2
   4  -3   0 284.487 72.3909   3
   4  -3   0 528.979 155.873   6
   4  -3   0 363.549 124.016   5
   4  -3   1 1245.37 240.621   5
  -4  -3  -1 1354.52 237.974   4
   4   3   1 1307.73 219.894   3
   4  -3   1 1335.66 245.688   6
  -4  -3  -1 1243.24 186.705   2
  -4  -3  -2-0.91037 84.9521   4
   4  -3   2 76.0416 68.1265   6
   4  -3   2 24.5689 38.2499   5
  -4  -3  -2-19.0102 47.5639   2
   4   3   2 110.256 38.7327   3
   4  -3   3 17643.0 922.515   5
  -4  -3  -3 16137.4 885.827   4
   4   3   3 16999.5 816.739   3
  -4   3  -3 16586.1 454.565   3
  -4  -3  -3 16384.0 707.800   2
   4  -3   3 17775.8 819.199   6
   4  -3   4 3865.16 443.958   5
  -4  -3  -4 3405.79 435.973   4
  -4  -3  -4 3277.14 326.956   2
   4   3   4 4657.95 486.656   1
   4  -3   4 4105.24 385.830   6
   4  -3   5 12680.0 809.562   5
   4  -3   5 11487.6 626.559   6
  -4  -3  -5 12217.6 831.828   4
  -4  -3  -5 12207.1 652.667   2
   4   3   5 14103.7 868.322   1
  -4  -3  -5 12832.4 750.916   3
   4  -3   5 11319.9 668.273   2
   4  -3   6 154.225 85.0491   2
   4  -3   6 222.364 109.189   5
   4   3   6 345.219 136.673   1
  -4  -3  -6 152.123 105.050   3
   4   3   6 188.221 96.4079   2
  -4  -3  -6 197.332 96.5764   2
  -4  -3  -7 1839.09 275.041   2
  -4  -3  -7 1922.41 303.149   3
   4  -3   7 1947.75 297.074   2
   4   3   7 1988.71 343.087   1
   4  -3   7 2255.02 348.530   5
   4   3   7 1915.88 292.979   2
  -4  -3  -8 76.6472 89.5293   3
   4  -3   8-4.67641 66.4197   5
   4   3   8-18.3708 67.1651   2
   4   3   8-6.58342 59.3475   1
  -4  -3  -8-21.0111 73.4301   2
  -4  -3  -8 125.306 79.6234   5
  -4  -3  -9 1129.84 212.180   5
   4   3   9 1303.27 263.221   2
  -4  -3  -9 935.715 214.211   2
  -4  -3  -9 1046.73 240.813   3
   4   3   9 894.418 249.269   1
   4  -3   9 990.870 223.590   2
   4   3  10 528.005 224.867   1
   4  -3  10 257.989 135.952   2
  -4  -3 -10 318.700 124.776   5
   4   3  10 323.935 148.073   2
  -4  -3 -10 402.807 223.065   4
  -4  -3 -10 496.854 139.623   2
  -4  -3 -10 268.207 127.023   3
  -4  -3 -11 5180.12 460.041   5
  -4  -3 -11 5940.78 610.135   3
   4   3  11 4218.30 516.653   2
   4   3  11 5378.68 641.326   1
   4  -3  11 4160.91 522.541   2
  -4  -3 -11 5003.27 548.361   2
   4   3  12 1806.08 371.082   2
  -4  -3 -12 1611.94 273.574   5
  -4  -3 -12 1459.98 338.344   2
   4   3  12 1666.34 395.364   1
  -4  -3 -13 65.4302 70.9054   2
  -4  -3 -13 204.783 165.009   4
   4   3  13-22.4879 133.422   1
  -4  -3 -14 1606.62 360.081   2
  -4  -3 -14 1447.18 407.516   4
   4   3  14 1171.88 328.733   1
  -4  -3 -15-293.088 161.659   2
  -4  -3 -15 82.6842 136.317   4
   4   3  15-55.3788 108.920   1
  -4  -3 -16 577.469 223.078   2
  -4  -3 -16 624.991 313.350   4
   4   3  16 510.252 212.187   1
   4   3  17 412.485 201.992   1
  -4  -3 -17 399.855 209.128   2
  -4  -3 -17-62.3284 179.869   4
  -4  -3 -18 192.657 141.821   2
  -4  -3 -18 256.816 230.813   4
   4   3  18 709.977 295.280   1
  -4  -3 -19 4902.01 792.286   4
  -4   3 -19 5530.50 751.460   4
   4   3  19 4855.17 729.852   1
  -4  -3 -19 5203.99 729.989   2
  -4  -3 -20 306.491 193.385   2
  -4   3 -20 479.401 234.704   4
  -4  -3 -20 723.078 355.081   4
   4   3  20 518.217 275.511   1
   4   3  21 8422.78 1006.63   1
  -4   3 -21 8357.33 977.740   4
  -4  -3 -21 6110.98 858.197   2
  -4   3 -22 347.588 261.004   4
   4   3  22 928.718 357.296   1
  -4  -3 -22 396.512 272.481   2
  -4  -3 -23 1595.81 476.584   2
  -4   3 -23 1760.51 474.843   4
  -4  -3 -24 98.4728 197.996   2
  -4   3 -24 144.494 117.621   4
  -4   3 -25 655.055 358.571   4
  -4  -3 -25-43.9951 135.752   2
  -4  -3 -26 9.37643 68.6408   2
   4  -4 -27 229.231 224.309   2
   4  -4 -26 96.6992 123.863   2
   4  -4 -25-0.63688 121.333   2
   4  -4 -24 933.326 392.514   2
   4  -4 -23 1243.22 448.451   2
   4  -4 -22 7057.95 967.613   2
  -4   4  21 419.406 156.523   1
   4  -4 -21 66.7434 82.6324   2
   4  -4 -20 4362.58 700.808   2
  -4   4  20 3856.74 467.350   1
   4  -4 -19 65.5212 141.031   2
   4  -4 -18 889.778 300.409   2
   4  -4 -17 807.592 257.314   2
   4   4 -17 797.023 105.256   1
   4  -4 -16 4133.67 617.547   2
   4   4 -16 3830.85 247.781   1
   4  -4 -15 3218.11 536.990   2
   4   4 -15 2431.39 209.159   1
  -4  -4  14 4714.28 470.041   6
   4  -4 -14 4945.75 643.235   2
  -4  -4  13 6685.08 551.441   6
   4  -4 -13 7453.85 757.350   2
  -4  -4  12 3556.75 393.512   6
   4  -4 -12 3394.03 488.640   2
   4  -4 -11 85.1359 85.3947   2
  -4  -4  11 437.454 156.153   6
  -4   4  10 25133.5 1272.00   2
   4  -4 -10 23021.4 1205.36   2
  -4  -4  10 23629.3 1241.91   2
  -4  -4  10 21684.7 974.489   6
   4  -4  -9 5833.45 581.597   2
  -4   4   9 5705.11 578.168   2
  -4  -4   9 6031.65 607.184   2
  -4  -4   9 6656.61 541.135   6
   4  -4  -8 7212.59 645.175   2
  -4  -4   8 5255.72 547.782   2
  -4   4   8 5272.83 542.937   2
   4  -4  -7 9970.00 603.813   5
  -4   4   7 7087.89 611.853   2
  -4  -4   7 8027.27 658.037   2
   4  -4  -7 10372.5 737.046   2
   4  -4  -6 2518.28 316.202   5
  -4   4   6 2952.11 379.914   2
   4  -4  -6 3032.91 379.528   2
  -4  -4   6 2693.20 365.263   2
   4  -4  -5 138.978 55.1600   5
   4  -4  -5 106.545 70.8203   2
   4  -4  -4 93.8804 96.5037   5
   4  -4  -4-10.4922 65.2507   2
  -4  -4   4 93.3329 55.0556   4
   4  -4  -3 10912.3 660.862   2
   4  -4  -3 10059.6 672.508   5
  -4  -4   3 10252.9 534.078   4
   4  -4  -3 9833.05 590.397   3
   4  -4  -2 2584.86 319.589   2
   4  -4  -2 2364.25 275.273   3
  -4  -4   2 1816.99 245.622   4
   4  -4  -2 1832.92 296.291   5
   4  -4  -2 2147.62 321.657   6
  -4  -4   1 11743.4 650.837   4
   4  -4  -1 10830.2 562.705   3
   4  -4  -1 11266.3 729.778   5
   4  -4  -1 11980.6 747.914   6
   4  -4   0 2599.12 351.620   6
   4  -4   0 2960.38 381.758   5
  -4  -4   0 2729.59 337.257   4
   4   4   0 2729.83 363.170   3
   4  -4   1 1649.62 294.187   5
  -4  -4  -1 1851.24 288.828   4
   4   4   1 1942.65 303.601   3
   4  -4   1 2071.29 306.557   6
   4  -4   2 840.573 185.546   6
  -4  -4  -2 685.506 181.815   4
   4  -4   2 675.453 190.493   5
  -4  -4  -2 695.775 163.826   2
  -4   4  -2 754.241 119.058   3
   4   4   2 659.703 190.805   3
  -4  -4  -3 1960.81 276.598   2
  -4  -4  -3 2162.59 337.310   4
   4   4   3 2079.29 324.590   3
  -4   4  -3 2372.20 223.460   3
   4  -4   3 2222.39 343.142   5
   4  -4   3 2289.85 311.595   6
   4  -4   4 2819.77 400.159   5
   4   4   4 2601.90 366.143   3
  -4   4  -4 2640.93 246.645   3
  -4  -4  -4 2616.12 333.724   2
   4  -4   4 2286.34 306.943   6
  -4  -4  -4 2875.75 410.120   4
  -4  -4  -5 10984.0 812.162   4
   4  -4   5 10054.0 622.115   6
  -4  -4  -5 9862.58 664.872   2
  -4  -4  -6 10018.8 812.246   4
   4  -4   6 10202.0 725.091   2
  -4  -4  -6 7814.29 657.563   3
   4  -4   6 8969.02 570.292   6
  -4  -4  -6 10501.1 697.942   2
  -4  -4  -7 2739.85 366.745   2
  -4  -4  -7 2900.80 447.169   4
   4  -4   7 2706.57 383.677   2
  -4  -4  -7 2272.48 368.646   3
   4  -4   7 2951.36 314.170   6
  -4  -4  -8 11477.9 784.408   2
  -4  -4  -8 9503.41 844.987   4
   4   4   8 11742.4 910.167   1
  -4  -4  -8 11455.0 838.621   3
   4   4   8 10634.9 763.018   2
   4  -4   8 9385.63 745.532   2
  -4  -4  -9-95.0017 87.4136   3
   4   4   9 46.3657 35.0660   2
  -4  -4  -9 45.6727 109.593   2
   4   4   9-20.5468 114.482   1
   4  -4   9 79.9210 68.4137   2
   4  -4  10 1186.82 277.492   2
   4   4  10 1175.15 297.337   1
  -4  -4 -10 819.491 278.947   4
  -4  -4 -10 848.219 194.935   5
   4   4  10 643.782 201.157   2
  -4  -4 -10 598.767 185.179   2
  -4  -4 -11 3079.34 355.601   5
  -4  -4 -11 3723.06 580.001   4
  -4  -4 -11 2884.81 426.009   2
   4   4  11 2872.01 479.598   1
  -4  -4 -12 23039.0 1287.98   2
   4   4  12 23768.2 1408.95   1
  -4  -4 -12 24654.7 1508.64   4
  -4  -4 -12 21505.8 936.490   5
  -4  -4 -13-29.4787 73.1013   2
   4   4  13 353.443 198.920   1
  -4  -4 -13 479.163 265.386   4
  -4  -4 -13 257.237 100.664   5
  -4  -4 -14 7849.19 798.830   2
   4   4  14 8781.51 901.997   1
  -4  -4 -14 8659.53 950.506   4
  -4  -4 -15 811.843 308.172   4
   4   4  15 656.893 258.141   1
  -4  -4 -15 963.448 292.278   2
  -4  -4 -16 2154.15 450.611   2
  -4  -4 -16 2601.86 544.223   4
   4   4  16 1870.49 436.527   1
  -4  -4 -17 74.1857 159.862   2
   4   4  17 8.52852 81.5985   1
  -4  -4 -17-99.0743 130.940   4
   4   4  18 1163.67 368.071   1
  -4  -4 -18 1333.71 377.984   2
   4   4  19 1018.40 349.696   1
  -4  -4 -19 1462.25 421.934   2
  -4   4 -20 426.359 227.428   4
  -4  -4 -20 432.522 270.370   2
   4   4  20 775.747 316.106   1
  -4  -4 -21 1929.23 498.958   2
  -4   4 -21 2673.18 556.209   4
   4   4  21 2155.33 542.092   1
  -4  -4 -22 258.787 202.331   2
  -4   4 -22 757.646 319.073   4
   4   4  22 165.138 172.379   1
  -4  -4 -23 446.216 260.279   2
  -4   4 -23 666.950 266.472   4
   4   4  23 510.683 211.482   1
   4   4  24 637.279 302.113   1
  -4  -4 -24 350.540 236.849   2
  -4   4 -24 692.714 342.650   4
  -4  -4 -25 399.676 278.562   2
   4   4  25 14.6978 75.6180   1
  -4  -4 -26 471.837 312.025   2
   4  -5 -26 18.1178 155.654   2
   4  -5 -25 1343.45 445.458   2
   4  -5 -24 1350.21 465.960   2
   4  -5 -23 126.445 214.917   2
   4  -5 -22 3604.70 707.094   2
   4  -5 -21 1178.42 391.951   2
   4  -5 -20 336.986 207.951   2
   4  -5 -19 827.705 323.076   2
   4  -5 -18 2416.26 497.048   2
   4  -5 -17 325.537 233.225   2
   4  -5 -16 9364.20 957.479   2
  -4  -5  16 9957.41 660.303   6
  -4  -5  15 137.285 104.491   6
   4  -5 -15 383.079 253.934   2
  -4  -5  14 4318.34 446.937   6
   4  -5 -14 5109.33 671.050   2
   4  -5 -13 1320.20 348.557   2
  -4  -5  13 1018.43 228.057   6
   4  -5 -12 2019.39 401.095   2
  -4  -5  12 2076.81 313.290   6
  -4  -5  11 3817.81 423.057   6
   4  -5 -11 3829.29 527.839   2
   4  -5 -10 19148.4 1152.97   2
   4  -5  -9 979.162 262.331   2
  -4   5   8 13189.8 911.963   2
   4  -5  -8 12876.4 891.726   2
  -4  -5   8 12133.2 893.318   2
   4  -5  -8 11731.8 682.234   5
   4  -5  -7 383.959 197.117   2
   4  -5  -7 198.383 100.495   5
   4  -5  -6 2111.38 308.293   5
   4  -5  -6 1567.45 288.897   2
   4  -5  -6 1973.11 326.189   3
   4  -5  -5 273.181 115.046   5
   4  -5  -5 202.721 115.588   3
   4  -5  -5 250.725 131.893   2
   4  -5  -4 2784.92 367.188   5
   4  -5  -4 2223.62 336.908   2
   4  -5  -4 2640.15 345.644   3
   4  -5  -3 2141.79 319.560   3
   4  -5  -3 1973.60 319.992   5
   4  -5  -3 2501.55 352.415   2
   4  -5  -2 41776.0 1487.68   5
   4  -5  -2 40733.1 1295.59   3
   4  -5  -2 42847.0 1443.44   2
   4  -5  -1 3464.69 441.892   5
   4  -5  -1 3634.54 373.802   3
   4   5   0 45311.6 1608.02   3
  -4  -5   0 42253.0 1374.35   4
  -4  -5  -1 193.989 142.027   4
   4   5   1 100.584 136.709   3
   4  -5   1 75.3580 58.6977   6
  -4  -5  -2 1911.74 303.673   2
   4  -5   2 1871.75 295.687   6
  -4  -5  -2 1963.54 331.128   4
  -4   5  -2 2134.02 257.570   3
   4   5   2 1939.72 317.696   3
   4  -5   3 1490.07 259.752   6
  -4  -5  -3 1497.76 306.762   4
  -4  -5  -3 1697.97 286.176   2
   4   5   3 1388.88 281.501   3
  -4   5  -3 1660.70 221.040   3
   4  -5   4 4448.68 444.712   6
  -4  -5  -4 4562.14 534.195   4
   4   5   4 4731.49 541.687   3
  -4   5  -4 4853.18 392.388   3
  -4  -5  -4 4282.50 466.925   2
   4  -5   5 144.092 93.3886   6
  -4  -5  -5 105.107 65.4672   2
  -4  -5  -5 455.014 215.870   4
  -4   5  -5 226.030 106.642   3
  -4  -5  -6 21826.3 1241.38   4
  -4  -5  -6 20328.1 1148.79   3
  -4  -5  -6 21185.1 1102.81   2
   4  -5   6 21645.5 953.274   6
   4  -5   7 507.645 151.707   6
  -4  -5  -7 919.413 316.342   4
  -4  -5  -7 665.196 215.592   2
   4  -5   8 14704.5 723.139   6
  -4  -5  -8 15382.9 1097.36   4
  -4  -5  -8 14951.8 973.402   2
   4  -5   8 13407.2 959.361   2
  -4  -5  -9 279.458 206.588   4
  -4  -5  -9 14.6067 81.1132   2
  -4  -5 -10 393.293 230.264   4
   4   5  10 89.1902 88.9138   1
  -4  -5 -10 391.864 166.436   2
  -4  -5 -11 1602.33 264.849   5
  -4  -5 -11 1446.68 351.444   2
  -4  -5 -11 1708.09 403.924   4
   4   5  11 990.542 320.441   1
  -4  -5 -12 13646.2 1031.05   2
  -4  -5 -12 13024.0 748.015   5
   4   5  12 16187.5 1215.37   1
  -4  -5 -12 14986.4 1203.58   4
  -4  -5 -13 2042.76 289.008   5
   4   5  13 1991.82 442.808   1
  -4  -5 -13 2291.66 444.018   2
  -4  -5 -14 11459.8 1008.23   2
  -4  -5 -14 9793.11 613.854   5
   4   5  15 1149.97 324.393   1
  -4  -5 -15 976.634 303.228   2
  -4  -5 -16 1858.90 426.392   2
   4   5  16 1713.87 459.412   1
  -4  -5 -17 42.9549 116.201   2
   4   5  17 22.0700 94.4384   1
  -4  -5 -18 1140.34 356.456   2
   4   5  18 964.018 328.004   1
  -4  -5 -19 190.253 213.669   2
   4   5  19 362.349 252.365   1
   4   5  20 1842.43 505.618   1
  -4  -5 -20 1487.60 442.646   2
   4   5  21 845.977 347.566   1
  -4   5 -21 1217.79 357.955   4
  -4  -5 -21 1015.17 392.124   2
  -4  -5 -22 123.684 207.095   2
  -4   5 -22 376.739 214.703   4
   4   5  22 57.4569 136.676   1
  -4  -5 -23 15.9935 161.272   2
  -4   5 -23 620.275 277.329   4
   4   5  23 273.200 200.740   1
   4   5  24 201.610 252.520   1
  -4  -5 -24-45.4033 110.274   2
   4   5  25 106.284 100.026   1
  -4  -5 -25-243.083 204.844   2
   4   5  26 77.5629 113.936   1
   4  -6 -25 280.381 232.552   2
   4  -6 -24 826.097 372.025   2
   4  -6 -23 546.673 341.847   2
   4  -6 -22 732.896 339.597   2
   4  -6 -21 188.986 209.187   2
   4  -6 -20-42.1450 75.3038   2
   4  -6 -19 26.5054 116.233   2
   4  -6 -18 575.980 240.176   2
   4  -6 -17 260.278 226.806   2
   4  -6 -16 4298.14 691.283   2
  -4  -6  16 3577.99 398.646   6
   4  -6 -15 1631.16 418.994   2
  -4  -6  15 1077.42 228.817   6
   4  -6 -14 1938.19 437.947   2
  -4  -6  14 2423.27 339.983   6
  -4  -6  13 2964.18 375.945   6
   4  -6 -13 3123.40 524.320   2
  -4  -6  12 494.965 162.167   6
   4  -6 -12 823.314 253.670   2
   4  -6 -11 396.651 202.323   2
   4  -6 -10 2765.89 472.252   2
   4  -6 -10 2465.29 309.987   5
   4  -6  -9 5425.36 487.556   5
   4  -6  -9 7360.95 737.734   2
   4  -6  -8 9337.73 651.406   5
   4  -6  -8 8781.17 788.885   2
   4  -6  -7 4082.74 448.306   5
   4  -6  -7 3863.60 521.688   2
   4  -6  -7 3552.64 478.506   3
   4  -6  -6 1404.71 293.876   3
   4  -6  -6 1648.53 290.477   5
   4  -6  -6 2007.97 366.192   2
   4  -6  -5-2.64425 65.6039   2
   4  -6  -5 84.5312 71.6720   5
   4  -6  -5 73.9395 82.6372   3
   4  -6  -4 1406.88 296.302   2
   4  -6  -4 2400.70 365.317   5
   4  -6  -4 2043.40 333.465   3
   4  -6  -3 9256.75 740.523   2
   4  -6  -3 8074.25 649.457   3
   4  -6  -3 8181.10 690.763   5
   4  -6  -2 25189.8 1217.66   2
   4  -6  -2 25790.4 1139.43   3
   4   6  -1 10643.7 877.957   3
   4   6   0 15769.4 1035.80   3
   4   6   1 882.449 235.108   3
  -4   6  -2 1508.20 243.677   3
   4   6   2 1466.68 313.499   3
  -4  -6  -2 1561.38 301.963   2
  -4  -6  -3 2419.05 373.191   2
  -4   6  -3 1773.56 268.250   3
   4   6   3 1866.01 372.634   3
   4  -6   3 2107.28 336.805   6
   4  -6   4 9528.24 697.812   6
   4   6   4 11000.4 873.528   3
  -4   6  -4 9416.39 612.215   3
  -4  -6  -4 8489.33 717.004   2
   4  -6   5 3556.17 419.264   6
  -4   6  -5 4725.72 447.738   3
  -4  -6  -5 4745.41 552.503   2
  -4   6  -6 14733.2 784.810   3
  -4  -6  -6 13220.7 930.335   2
   4  -6   6 14781.2 836.974   6
   4  -6   7 2427.61 335.699   6
  -4  -6  -7 4101.70 533.139   2
   4  -6   8 3619.79 386.626   6
  -4  -6  -8 3125.77 464.430   2
  -4  -6  -9-60.4958 134.609   2
   4  -6   9 139.815 85.1216   6
  -4  -6 -10 62.7112 74.9271   2
  -4  -6 -11 636.917 219.384   2
  -4  -6 -12 379.575 137.411   5
   4   6  12 387.893 176.849   1
  -4  -6 -12 492.845 213.126   2
  -4  -6 -13 47.7958 71.2689   5
   4   6  13 169.535 215.670   1
  -4  -6 -13-42.8057 104.417   2
  -4  -6 -14 1212.38 220.771   5
   4   6  14 1162.75 366.091   1
  -4  -6 -14 1146.84 342.021   2
  -4  -6 -15 79.6700 74.6497   5
  -4  -6 -15-24.1923 126.428   2
   4   6  15-130.464 162.798   1
   4   6  16 42.0122 110.584   1
  -4  -6 -16 50.1684 112.193   2
   4   6  17 273.000 218.804   1
  -4  -6 -17-188.161 120.099   2
  -4  -6 -18 1127.68 366.046   2
   4   6  18 1195.81 410.890   1
  -4  -6 -19 808.402 335.945   2
   4   6  19 1316.06 427.672   1
   4   6  20 2878.98 641.888   1
  -4  -6 -20 3889.22 708.750   2
   4   6  21 1654.71 513.462   1
  -4  -6 -21 1313.66 450.652   2
   4   6  22 1931.56 547.905   1
  -4  -6 -22 1997.92 546.775   2
  -4  -6 -23 50.9653 176.431   2
   4   6  23 285.353 211.969   1
  -4  -6 -24 269.743 225.986   2
   4   6  24 61.8879 189.154   1
   4   6  25-111.621 150.847   1
   4  -7 -24 99.4405 181.162   2
   4  -7 -23 2200.87 597.156   2
   4  -7 -22 451.061 305.323   2
   4  -7 -21 3947.91 733.805   2
   4  -7 -20-141.352 124.148   2
   4  -7 -19-62.1435 85.5638   2
   4  -7 -18-155.934 191.302   2
   4  -7 -17 1873.35 481.679   2
  -4  -7  16 698.334 177.767   6
   4  -7 -16 440.042 222.395   2
   4  -7 -15 3948.22 649.035   2
  -4  -7  15 2794.64 372.072   6
   4  -7 -14 332.553 224.201   2
  -4  -7  14 550.496 175.051   6
  -4  -7  13 718.104 210.977   6
   4  -7 -13 572.860 245.084   2
   4  -7 -12 451.245 223.915   2
   4  -7 -11 7407.61 552.154   5
   4  -7 -11 9077.84 900.283   2
   4  -7 -10 527.234 232.693   2
   4  -7 -10 380.425 148.867   5
   4  -7  -9 16118.5 890.075   5
   4  -7  -9 20037.3 1288.04   2
   4  -7  -8 4002.92 459.980   5
   4  -7  -8 4121.58 584.972   2
   4  -7  -7 10629.1 914.066   2
   4  -7  -7 9381.90 719.783   5
   4  -7  -6 542.405 171.498   5
   4  -7  -6 488.246 190.469   2
   4  -7  -5 895.023 240.526   5
   4  -7  -5 883.370 230.583   2
   4  -7  -5 1386.70 307.385   3
   4  -7  -4 1292.08 299.089   5
   4  -7  -4 1115.56 261.672   2
   4  -7  -4 947.214 243.578   3
   4  -7  -3 1847.12 342.917   3
   4  -7  -3 3049.28 464.243   2
   4  -7  -2 2949.77 454.238   2
   4   7  -2 4004.05 578.579   3
   4   7  -1 6724.15 717.904   3
   4   7   0 2827.91 464.210   3
  -4   7  -1 2370.27 349.714   3
   4   7   1 2602.26 439.769   3
  -4   7  -2 422.551 157.955   3
   4   7   2 365.314 145.316   3
  -4  -7  -2 227.380 105.557   2
   4   7   3 465.486 160.102   3
  -4   7  -3 555.210 170.322   3
  -4  -7  -3 874.860 259.321   2
   4  -7   4 2150.78 343.641   6
  -4  -7  -4 2083.35 393.962   2
   4   7   4 2532.28 450.707   3
  -4   7  -4 2115.08 323.411   3
  -4   7  -5 9836.62 703.223   3
  -4  -7  -5 9551.15 844.156   2
   4  -7   5 8369.68 687.595   6
   4  -7   6 2867.22 391.419   6
  -4   7  -6 3148.04 405.345   3
  -4  -7  -6 2251.62 416.895   2
   4  -7   7 10630.8 743.636   6
  -4   7  -7 12477.9 804.844   3
  -4  -7  -7 13132.0 1028.09   2
   4  -7   8 290.176 139.937   6
  -4  -7  -8 309.669 163.951   2
  -4  -7  -9 2198.04 424.536   2
   4  -7   9 1721.02 273.683   6
  -4  -7 -10-160.184 167.679   2
   4  -7  10 84.1611 66.9082   6
  -4  -7 -11 4859.44 673.102   2
  -4  -7 -12-20.4029 96.5561   2
  -4  -7 -13 4622.40 676.814   2
  -4  -7 -13 4462.05 452.785   5
  -4  -7 -14 369.029 144.808   5
  -4  -7 -14 212.308 193.912   2
   4   7  14 157.606 154.754   1
   4   7  15 2730.15 567.232   1
  -4  -7 -15 2284.30 503.934   2
   4   7  16 105.425 172.274   1
  -4  -7 -16 258.227 200.174   2
  -4  -7 -17 26.5570 98.1556   2
   4   7  17 190.014 130.359   1
   4   7  18 157.011 188.096   1
  -4  -7 -18 15.8534 117.951   2
  -4  -7 -19 807.656 367.257   2
   4   7  19 1259.01 457.851   1
  -4  -7 -20 703.775 369.797   2
   4   7  20 607.168 328.528   1
  -4  -7 -21-5.06116 80.7195   2
   4   7  21 709.283 355.249   1
   4   7  22 1292.05 451.193   1
  -4  -7 -22 1037.78 448.650   2
   4   7  23-103.164 138.853   1
  -4  -7 -23 76.4407 126.285   2
   4  -8 -23 881.564 398.831   2
   4  -8 -22 348.165 266.880   2
   4  -8 -21 2307.13 579.964   2
   4  -8 -20 147.995 209.626   2
   4  -8 -19-14.3410 159.649   2
   4  -8 -18-78.5209 210.033   2
   4  -8 -17 1570.91 440.357   2
   4  -8 -16 257.077 216.407   2
   4  -8 -15 4481.37 740.890   2
  -4  -8  15 4339.07 479.251   6
  -4  -8  14 279.523 160.560   6
   4  -8 -14 757.182 334.502   2
   4  -8 -13 2369.32 509.486   2
   4  -8 -12 459.263 253.166   2
   4  -8 -11 215.647 93.8114   5
   4  -8 -11 233.493 150.208   2
   4  -8 -10-13.8261 44.3204   5
   4  -8 -10-24.9389 125.868   2
   4  -8  -9 1171.92 349.839   2
   4  -8  -9 800.947 205.066   5
   4  -8  -8 41.6849 69.9696   5
   4  -8  -8 90.4485 147.133   2
   4  -8  -7 899.294 303.736   2
   4  -8  -6 91.9103 83.9073   2
   4  -8  -5 102.089 123.457   2
   4  -8  -4-104.109 146.115   2
   4  -8  -3 1436.16 354.306   2
   4   8  -3 1717.76 397.517   3
   4  -8  -2 3200.39 512.436   2
   4   8  -2 2152.10 442.422   3
   4   8  -1 3225.31 529.856   3
   4   8   0 1406.73 352.077   3
   4   8   1 1185.72 305.149   3
  -4   8  -2 52.6220 81.6238   3
   4   8   2-122.314 210.422   3
  -4  -8  -2 33.1868 110.315   2
   4   8   3 290.718 108.218   3
  -4   8  -3 253.907 110.858   3
  -4  -8  -3 343.046 160.463   2
  -4  -8  -4 117.754 103.212   2
   4   8   4 106.590 93.0137   3
  -4   8  -4 165.788 135.663   3
   4  -8   5 1502.35 299.801   6
  -4  -8  -5 2190.80 436.913   2
  -4   8  -5 1819.68 325.633   3
   4  -8   6-58.7097 78.9173   6
  -4  -8  -6-4.47635 61.8860   2
  -4   8  -6 121.977 120.781   3
  -4  -8  -7 1077.26 298.355   2
  -4   8  -7 1300.15 298.378   3
   4  -8   7 911.973 220.879   6
   4  -8   8-35.3742 63.9025   6
  -4   8  -8 63.0854 57.4911   3
  -4  -8  -8-132.934 143.859   2
  -4  -8  -9 602.079 245.510   2
  -4   8  -9 302.951 155.716   3
  -4  -8 -10 48.6038 86.6467   2
  -4  -8 -11 6985.45 837.960   2
  -4  -8 -12 338.774 248.582   2
  -4  -8 -13 5674.76 790.446   2
  -4  -8 -14 217.264 183.018   2
  -4  -8 -15 1348.42 392.151   2
   4   8  15 1678.38 463.950   1
   4   8  16 63.6124 158.130   1
  -4  -8 -16 21.2610 93.7484   2
  -4  -8 -17-126.434 208.032   2
   4   8  17 482.430 303.292   1
  -4  -8 -18-112.250 198.827   2
   4   8  18 205.773 225.599   1
   4   8  19 1246.56 437.403   1
  -4  -8 -19 1628.46 505.167   2
  -4  -8 -20 260.200 293.739   2
   4   8  20 711.711 365.894   1
  -4  -8 -21 97.1782 167.445   2
   4   8  21 402.316 516.453   1
   4   8  22 217.117 182.406   1
  -4  -8 -22-246.941 216.034   2
   4  -9 -22 495.295 333.604   2
   4  -9 -21 705.352 384.415   2
   4  -9 -20-235.161 217.621   2
   4  -9 -19-140.389 162.925   2
   4  -9 -18 571.124 296.546   2
   4  -9 -17 1249.73 417.740   2
   4  -9 -16 2364.90 553.875   2
   4  -9 -15 1987.28 527.754   2
  -4  -9  14 1609.11 315.235   6
   4  -9 -14 2009.04 488.298   2
   4  -9 -13 523.703 240.009   2
   4  -9 -12 622.712 282.442   2
   4  -9 -11 32.1011 165.328   2
   4  -9 -10 1692.04 435.492   2
   4  -9  -9 1508.62 420.445   2
   4  -9  -8 4986.57 725.222   2
   4  -9  -7 2905.49 530.384   2
   4  -9  -6 1028.98 288.541   2
   4  -9  -5-13.7916 74.8165   2
   4  -9  -4 589.957 270.409   2
   4   9  -4 595.090 245.595   3
   4  -9  -3 2435.62 484.117   2
   4   9  -3 3093.94 564.811   3
   4   9  -2 7038.93 856.680   3
   4  -9  -2 8572.85 896.384   2
   4  -9  -1 5186.24 691.809   2
   4   9  -1 5695.65 758.778   3
   4   9   0 4834.75 694.738   3
   4   9   1 485.634 255.902   3
  -4   9  -2-123.199 124.890   3
   4   9   2-141.887 163.867   3
  -4  -9  -2 172.662 152.372   2
  -4   9  -3 712.049 213.028   3
   4   9   3 652.425 305.686   3
  -4  -9  -3 514.398 241.038   2
  -4  -9  -4 803.628 250.572   2
   4   9   4 1263.37 367.867   3
  -4   9  -4 1324.52 309.626   3
  -4  -9  -5 1666.57 390.952   2
  -4   9  -5 2680.30 428.984   3
  -4  -9  -6 2740.20 535.954   2
  -4   9  -6 2971.05 453.373   3
  -4  -9  -7 1199.88 367.517   2
  -4   9  -7 1718.47 361.472   3
  -4  -9  -8 792.801 299.679   2
  -4   9  -8 535.017 200.248   3
  -4  -9  -9-180.730 133.126   2
  -4   9  -9 71.6159 107.118   3
  -4  -9 -10 215.142 191.468   2
  -4   9 -10 105.800 119.710   3
  -4  -9 -11 202.625 175.046   2
  -4   9 -11 205.228 145.352   3
  -4  -9 -12 588.675 126.683   2
  -4  -9 -13 878.081 338.356   2
  -4  -9 -14 811.441 333.568   2
  -4  -9 -15 296.020 231.615   2
   4   9  16 64.7651 162.313   1
  -4  -9 -16 25.5355 154.440   2
   4   9  17 450.489 235.781   1
  -4  -9 -17 1.85812 112.444   2
  -4  -9 -18 169.418 170.293   2
   4   9  18-75.2270 148.980   1
  -4  -9 -19 568.860 320.494   2
   4   9  19 398.829 315.185   1
   4   9  20 1560.88 565.247   1
  -4  -9 -20 703.999 380.761   2
  -4  -9 -21 178.382 110.902   2
   4 -10 -20 17.9722 89.9510   2
   4 -10 -19 139.131 234.449   2
   4 -10 -18 34.5996 163.035   2
   4 -10 -17-101.967 167.154   2
   4 -10 -16 1528.06 482.389   2
   4 -10 -15 240.605 260.088   2
   4 -10 -14 1384.98 432.526   2
   4 -10 -13-89.4352 162.822   2
   4 -10 -12-39.9209 142.678   2
   4 -10 -11 2.09675 141.653   2
   4 -10 -10 4442.52 734.373   2
   4 -10  -9 501.807 268.182   2
   4 -10  -8 6032.53 825.260   2
   4 -10  -7 235.779 169.225   2
   4 -10  -6 640.991 266.289   2
   4  10  -6 1518.22 439.092   3
   4 -10  -5-68.2920 191.396   2
   4  10  -5 156.379 162.131   3
   4 -10  -4 606.863 287.466   2
   4  10  -4 483.657 178.397   3
   4 -10  -3 218.794 172.571   2
   4  10  -3 314.658 200.066   3
   4 -10  -2 4312.59 692.687   2
   4  10  -2 4639.56 726.046   3
   4  10  -1 157.853 195.313   3
   4 -10  -1 112.814 148.863   2
   4  10   0 2325.45 503.786   3
   4  10   1 4.67451 160.921   3
  -4 -10  -1 18.7003 97.7911   2
   4  10   2 9.99211 219.592   3
  -4  10  -2-153.313 120.730   3
  -4 -10  -2-243.168 202.353   2
  -4  10  -3 98.1948 83.2107   3
   4  10   3 53.3350 172.180   3
  -4 -10  -3 41.7121 136.421   2
   4  10   4 2393.18 529.110   3
  -4 -10  -4 2571.76 530.474   2
  -4  10  -4 2246.38 422.057   3
  -4 -10  -5 190.893 169.770   2
  -4  10  -5 206.374 145.208   3
  -4  10  -6 5796.94 694.772   3
  -4 -10  -6 5632.82 788.907   2
  -4 -10  -7 185.363 170.721   2
  -4  10  -7 184.649 163.293   3
  -4 -10  -8 2013.23 491.929   2
  -4  10  -8 2036.96 418.266   3
  -4 -10  -9-72.9720 103.651   2
  -4  10  -9-120.925 103.011   3
  -4 -10 -10 168.895 171.614   2
  -4  10 -10 569.419 212.988   3
  -4  10 -11 398.973 199.050   3
  -4 -10 -11 331.687 222.757   2
  -4 -10 -12 1957.45 535.629   2
  -4  10 -12 2755.88 495.121   3
  -4  10 -13 251.446 186.026   3
  -4 -10 -13 15.7495 112.261   2
  -4 -10 -14 995.771 392.645   2
  -4 -10 -15-145.725 236.471   2
  -4 -10 -16 518.126 267.572   2
  -4 -10 -17-101.475 143.653   2
   4  10  17-434.455 316.272   1
   4  10  18 661.538 340.876   1
  -4 -10 -18 11.8536 125.176   2
  -4 -10 -19-10.0977 97.1537   2
   4 -11 -18 402.077 254.110   2
   4 -11 -17 283.654 252.428   2
   4 -11 -16 1529.29 480.896   2
   4 -11 -15 698.427 366.167   2
   4 -11 -14 384.167 179.126   2
   4 -11 -13-51.9647 176.100   2
   4 -11 -12 17.8929 137.244   2
   4 -11 -11 308.911 237.252   2
   4 -11 -10 4444.52 765.479   2
   4 -11  -9 1203.55 447.323   2
   4  11  -8 3688.10 702.543   3
   4 -11  -8 3533.77 659.393   2
   4 -11  -7 559.676 295.260   2
   4  11  -7 719.061 312.393   3
   4 -11  -6 684.219 316.589   2
   4  11  -6 530.786 285.172   3
   4 -11  -5-39.1796 135.941   2
   4  11  -5 442.503 293.172   3
   4 -11  -4 645.682 273.625   2
   4  11  -4 842.672 330.520   3
   4 -11  -3 1929.99 504.443   2
   4  11  -3 1422.01 462.389   3
   4  11  -2 4709.03 745.397   3
   4 -11  -2 3497.99 656.445   2
   4  11  -1 3243.81 657.746   3
   4 -11  -1 3975.07 680.430   2
   4  11   0 2852.33 570.322   3
   4 -11   0 2996.76 593.465   2
  -4 -11  -1 915.766 336.944   2
   4  11   1 875.001 321.077   3
   4  11   2 153.093 115.013   3
  -4 -11  -2 111.422 164.692   2
  -4  11  -3-61.2585 98.8654   3
   4  11   3-218.464 239.776   3
  -4 -11  -3 307.791 240.438   2
  -4 -11  -4 1700.31 427.113   2
  -4  11  -4 1775.03 404.888   3
  -4 -11  -5 940.099 338.591   2
  -4  11  -5 807.472 286.743   3
  -4 -11  -6 3795.13 708.263   2
  -4  11  -6 4546.44 647.120   3
  -4 -11  -7 1470.39 457.092   2
  -4  11  -7 1063.40 322.136   3
  -4  11  -8 1905.72 411.505   3
  -4 -11  -8 1393.90 429.918   2
  -4 -11  -9-0.57497 104.602   2
  -4  11  -9 294.998 182.946   3
  -4 -11 -10-20.0909 113.148   2
  -4  11 -10 298.149 209.814   3
  -4  11 -11-114.136 115.119   3
  -4 -11 -11 70.4322 139.579   2
  -4  11 -12 1506.76 408.525   3
  -4 -11 -12 1650.32 489.830   2
  -4 -11 -13 559.398 332.478   2
  -4 -11 -14 819.215 373.321   2
  -4 -11 -15-95.0305 230.772   2
  -4 -11 -16 127.261 152.819   2
  -4 -11 -17 17.5001 98.3184   2
   4 -12 -15 932.349 421.174   2
   4 -12 -14 479.522 315.995   2
   4 -12 -13 511.389 252.639   2
   4 -12 -12-109.324 145.696   2
   4 -12 -11 21.8750 128.392   2
   4 -12 -10 248.670 232.819   2
   4  12 -10 348.357 271.513   3
   4  12  -9 2722.26 639.981   3
   4 -12  -9 2541.85 649.774   2
   4 -12  -8 368.320 296.906   2
   4  12  -8 471.640 328.829   3
   4 -12  -7 1828.30 515.118   2
   4  12  -7 1577.26 469.585   3
   4 -12  -6 220.279 213.383   2
   4  12  -6 280.681 150.633   3
   4 -12  -5 61.2738 99.5292   2
   4  12  -5 276.551 235.717   3
   4 -12  -4 402.678 267.877   2
   4  12  -4 212.788 263.065   3
   4 -12  -3 1715.59 504.895   2
   4  12  -3 1841.97 501.582   3
   4 -12  -2 733.096 335.670   2
   4  12  -2 834.966 353.615   3
   4  12  -1 3666.17 712.818   3
   4 -12  -1 3865.96 725.395   2
   4  12   0 792.284 338.216   3
   4 -12   0 460.154 296.260   2
  -4 -12   0 721.156 375.070   2
   4  12   1 438.750 279.450   3
  -4 -12  -1 602.321 301.635   2
   4 -12   1 857.974 360.092   2
   4  12   2-396.596 328.535   3
  -4 -12  -2-25.5783 177.825   2
   4  12   3-79.0429 217.949   3
  -4 -12  -3 148.915 114.376   2
  -4 -12  -4 784.418 359.316   2
  -4  12  -4 368.224 198.682   3
  -4 -12  -5 2100.32 534.492   2
  -4  12  -5 1770.73 438.925   3
  -4 -12  -6 511.388 331.838   2
  -4  12  -6 626.600 272.088   3
  -4 -12  -7 1894.53 533.020   2
  -4  12  -7 1879.51 439.681   3
  -4 -12  -8 251.505 155.591   2
  -4  12  -8 205.609 141.540   3
  -4 -12  -9 229.881 174.507   2
  -4  12  -9 210.275 186.444   3
  -4 -12 -10 13.1269 160.813   2
  -4  12 -10 4.60905 129.235   3
  -4 -12 -11-36.9456 110.765   2
  -4 -12 -12 362.247 275.763   2
  -4 -12 -13 696.111 347.511   2
  -4 -12 -14 173.779 170.521   2
   4 -13 -11 96.0313 100.356   2
   4  13 -11 55.7013 137.556   3
   4 -13 -10 364.119 237.698   2
   4  13 -10 362.201 252.654   3
   4 -13  -9 497.977 283.473   2
   4  13  -9 450.720 294.659   3
   4 -13  -8 166.721 192.148   2
   4  13  -8 120.383 214.204   3
   4 -13  -7 521.283 307.084   2
   4  13  -7 80.2352 100.328   3
   4 -13  -6-117.457 92.3138   2
   4  13  -6-46.9544 84.8471   3
   4 -13  -5 59.5126 118.121   2
   4  13  -5 18.2876 175.074   3
   4 -13  -4-74.1346 204.674   2
   4  13  -4-65.4294 117.161   3
   4  13  -3 719.689 318.446   3
   4 -13  -3 519.833 253.195   2
   4 -13  -2 75.1356 134.523   2
   4  13  -2 146.689 209.825   3
   4  13  -1 1127.20 398.945   3
   4 -13  -1 885.776 383.376   2
  -4 -13   1 1328.46 472.538   2
   4  13   0 146.125 249.153   3
   4 -13   0 223.689 176.944   2
  -4 -13   0 221.722 247.227   2
   4  13   1 372.413 266.623   3
  -4 -13  -1 466.862 298.358   2
   4 -13   1 608.274 306.904   2
   4  13   2-112.611 120.000   3
  -4 -13  -2-183.240 214.990   2
   4 -13   2-74.3135 177.399   2
  -4 -13  -3 166.960 190.862   2
  -4 -13  -4 19.2917 96.9072   2
  -4 -13  -5 303.445 221.571   2
  -4  13  -5 610.319 263.535   3
  -4  13  -6-271.173 187.171   3
  -4 -13  -6-43.0161 113.509   2
  -4 -13  -7 134.190 142.645   2
  -4  13  -7 396.815 248.778   3
  -4  13  -8-261.124 196.774   3
  -4 -13  -8-60.9481 107.478   2
  -4 -13  -9-99.3509 149.865   2
  -4 -13 -10 521.213 270.746   2
  -4 -13 -11 1203.96 483.094   2
   4 -14  -5 16.2369 149.098   2
   4 -14  -4-171.684 215.258   2
   4 -14  -3 183.402 257.128   2
   4  14  -3 411.990 273.187   3
   4 -14  -2 794.733 381.702   2
   4  14  -2 448.636 293.918   3
  -4 -14   2 1187.31 467.124   2
   4  14  -1 405.565 311.993   3
   4 -14  -1 654.555 384.241   2
  -4 -14   1 536.038 299.713   2
   4 -14   0 655.651 321.216   2
  -4 -14   0 650.527 311.842   2
  -4 -14  -1 501.555 309.880   2
   4 -14   1-210.960 216.223   2
  -4 -14  -2-927.566 400.353   2
   4 -14   2-68.5592 175.619   2
  -4 -14  -3-25.8021 138.750   2
   4 -14   3 157.643 181.740   2
  -4 -14  -4 391.218 257.860   2
  -4 -14  -5 1005.19 437.792   2
   5   0 -28 228.137 225.453   2
   5   0 -27 108.984 159.071   2
   5   0 -26-48.5104 97.7584   2
   5   0 -25 553.498 333.911   2
   5   0 -24 470.668 295.707   2
   5   0 -23 1446.83 436.829   2
   5   0 -22-159.922 172.534   2
   5   0 -21 888.148 325.317   2
   5   0 -20 9.78140 94.7295   2
  -5   0  19 7933.76 706.792   4
   5   0 -19 9135.13 951.818   2
  -5   0  18 443.163 192.005   4
   5   0 -18 580.329 308.803   2
  -5   0  17 18249.5 1020.96   4
   5   0 -17 20110.6 1331.90   2
   5   0 -16 340.497 186.837   2
  -5   0  16 21.9614 34.3163   4
   5   0 -15 30445.0 1374.41   6
   5   0 -15 35873.3 1645.24   2
   5   0 -14 503.769 196.387   6
   5   0 -14 362.712 188.321   2
   5   0 -13 2744.84 414.833   2
   5   0 -13 2754.76 403.396   6
   5   0 -12-76.4949 99.6836   2
   5   0 -12 11.4659 40.7034   6
  -5   0  12 103.597 104.310   2
   5   0 -11 58406.0 1808.09   2
   5   0 -11 55477.8 1774.36   6
   5   0 -10 202.910 145.521   6
   5   0 -10 127.756 137.598   2
  -5   0  10 253.519 129.537   2
   5   0  -9 56889.6 1738.91   6
  -5   0   9 61229.8 1693.86   2
  -5   0   9 55345.6 769.066   1
   5   0  -9 61318.0 1648.69   2
  -5   0   9 57252.1 1801.60   6
   5   0  -8 177.169 122.299   2
  -5   0   8 374.404 150.881   6
  -5   0   8 171.322 104.663   2
  -5   0   8 26.8136 27.1999   1
   5   0  -8 249.804 165.289   6
  -5   0   7 1609.39 238.259   2
   5   0  -7 1410.41 219.952   2
  -5   0   7 1218.73 150.253   1
   5   0  -7 1502.19 276.016   6
   5   0  -6-13.2900 53.1842   2
   5   0  -6-28.8085 39.9585   6
  -5   0   6 21.6042 42.2490   1
  -5   0   6 15.5010 43.8843   2
   5   0  -5 6280.04 545.705   6
  -5   0   5 7169.52 418.025   2
   5   0  -5 7093.53 417.556   2
  -5   0   5 6879.42 421.190   1
  -5   0   4 97.0436 57.6419   2
  -5   0   4 87.8183 70.0582   1
  -5   0   3 78812.7 1611.13   1
  -5   0   3 78688.8 1086.25   2
   5   0  -3 78596.9 1084.53   2
  -5   0   2 42.9527 18.9703   2
  -5   0   2 125.669 94.8918   1
  -5   0   1 101652. 2011.29   1
  -5   0   0-24.7552 70.8390   1
  -5   0  -1 52228.2 1534.84   1
   5   0   1 51204.0 853.271   3
  -5   0  -1 55854.6 1573.92   6
  -5   0  -2 31.4111 51.7379   6
  -5   0  -2 5.63376 56.0172   1
  -5   0  -3 9088.46 649.403   5
   5   0   3 7901.80 280.912   2
  -5   0  -3 8807.60 644.025   6
  -5   0  -4-18.9846 72.1676   5
   5   0   4 23.3708 25.5189   2
  -5   0  -5 38064.5 1366.30   5
   5   0   5 37810.1 904.181   2
  -5   0  -5 38883.0 844.785   3
  -5   0  -5 38834.3 899.700   2
  -5   0  -6 183.558 138.206   5
  -5   0  -6 28.0432 30.0887   3
   5   0   6 109.424 72.2317   2
  -5   0  -6 30.2323 65.0319   2
  -5   0  -7 90450.0 2153.21   5
   5   0   7 89562.0 1732.80   2
  -5   0  -7 94274.7 1732.57   2
  -5   0  -8 85.9110 110.363   2
  -5   0  -8 54.5916 53.6061   3
   5   0   8 196.837 123.104   2
   5   0   9 16769.5 859.354   2
  -5   0  -9 15955.9 817.803   2
   5   0  10 70.9184 83.2213   2
  -5   0 -10 98.5416 81.0786   2
   5   0  11 9971.10 745.179   2
  -5   0 -11 10567.3 745.174   2
   5   0  12 243.825 158.008   2
  -5   0 -12 55.0732 129.947   2
  -5   0 -13 20690.3 1135.76   2
   5   0  13 17467.6 1086.68   2
  -5   0 -14 108.825 168.447   2
  -5   0 -15 13490.4 1166.80   4
  -5   0 -15 12591.6 962.294   2
  -5   0 -16 1178.44 416.482   4
  -5   0 -16 283.213 189.878   2
  -5   0 -17 43.6572 101.263   4
  -5   0 -17 52.2863 59.1202   2
  -5   0 -18-83.1593 109.416   2
  -5   0 -18 154.024 200.703   4
  -5   0 -19 608.431 248.885   2
  -5   0 -19 509.917 287.101   4
  -5   0 -20-50.8014 150.892   2
  -5   0 -20 123.706 121.575   4
  -5   0 -21-293.157 192.816   2
  -5   0 -21 92.2761 94.8839   4
  -5   0 -22 244.854 187.160   2
  -5   0 -22-195.195 166.311   4
  -5   0 -23 1312.69 449.537   4
  -5   0 -23 796.956 338.785   2
  -5   0 -24-34.3883 127.781   4
  -5   0 -24 21.9443 137.263   2
  -5   0 -25-39.0596 151.473   4
  -5   0 -25-207.674 211.296   2
  -5   0 -26 0.72201 90.7665   4
  -5   0 -26-167.098 171.031   2
   5  -1 -27 512.158 322.364   2
   5   1 -27-32.9900 176.936   2
   5   1 -26 860.480 347.092   2
   5  -1 -26 1007.43 364.553   2
   5  -1 -25 200.045 260.244   2
   5   1 -25 54.8870 97.0328   2
   5  -1 -24 1763.85 475.796   2
   5   1 -24 967.810 337.984   2
   5  -1 -23 1325.26 416.396   2
   5   1 -23 1560.39 453.382   2
   5  -1 -22 115.318 161.278   2
   5   1 -22 68.1659 79.1913   2
   5   1 -21 739.615 248.489   2
   5  -1 -21 869.504 320.647   2
   5  -1 -20-109.563 175.839   2
   5   1 -20 259.645 216.354   2
   5  -1 -19 2579.85 504.805   2
   5   1 -19 2169.45 467.197   2
   5  -1 -18 1034.11 309.812   2
   5   1 -18 1197.29 347.386   2
   5   1 -18 1024.74 257.611   6
  -5  -1  18 1138.46 232.273   4
   5   1 -17 2246.87 368.922   6
   5  -1 -17 2553.47 477.662   2
  -5  -1  17 3147.16 373.279   4
  -5   1  17 2758.45 437.773   4
   5   1 -17 3437.97 531.374   2
   5  -1 -16 223.042 84.4593   2
  -5  -1  16 476.501 161.290   4
   5   1 -16 329.868 128.228   6
   5   1 -16 363.062 186.241   2
  -5  -1  15 9086.74 606.409   4
   5   1 -15 9183.03 848.744   2
   5  -1 -15 8621.93 815.326   2
   5   1 -15 8320.92 688.611   6
   5   1 -14 4656.93 513.226   6
   5   1 -14 5351.14 608.978   2
   5  -1 -14 4958.65 603.086   2
   5  -1 -13 47.2990 124.411   6
   5  -1 -13 187.126 137.243   2
   5   1 -13 65.3914 90.7087   2
   5   1 -13 48.1074 69.9068   6
  -5  -1  12 1402.21 306.291   2
   5   1 -12 1638.82 301.270   6
   5  -1 -12 1695.95 312.105   2
   5  -1 -12 1644.06 311.030   6
  -5   1  12 1624.79 325.350   2
   5   1 -12 1964.27 353.091   2
   5  -1 -11 14633.0 931.027   6
   5   1 -11 14588.6 878.139   6
  -5   1  11 11372.1 802.285   2
   5   1 -11 14738.5 911.691   2
  -5  -1  11 10443.9 783.816   2
  -5  -1  11 15631.0 937.627   6
   5  -1 -11 15005.3 913.481   2
  -5  -1  10 2235.69 344.762   6
   5  -1 -10 2474.58 384.599   6
  -5  -1  10 1562.22 289.492   2
   5   1 -10 2284.97 340.989   2
  -5   1  10 1206.51 250.170   2
   5   1 -10 2073.47 332.129   6
   5  -1 -10 2115.97 351.184   2
   5  -1  -9 19634.4 1063.88   6
  -5  -1   9 21615.4 1062.02   6
  -5   1   9 21033.1 987.615   2
   5   1  -9 21617.3 985.389   2
  -5  -1   9 21626.1 1021.23   2
   5  -1  -9 22513.6 1016.13   2
   5  -1  -8 7891.90 656.057   6
   5  -1  -8 8330.21 579.685   2
  -5  -1   8 7782.84 576.580   2
   5   1  -8 7212.11 533.898   2
  -5   1   8 7375.60 556.749   2
  -5  -1   8 6907.83 603.744   6
  -5  -1   7 2570.46 360.140   6
  -5   1   7 2889.37 323.135   2
   5   1  -7 2997.58 322.327   2
   5  -1  -7 2946.28 390.653   6
   5  -1  -7 2898.27 329.566   2
  -5  -1   7 3377.77 352.686   2
   5  -1  -6 4091.78 456.444   6
  -5   1   6 4367.84 369.766   2
   5   1  -6 3990.31 348.094   2
  -5  -1   6 4409.35 376.014   2
   5  -1  -6 4512.26 376.669   2
  -5  -1   5 1897.29 224.933   2
   5  -1  -5 1930.79 315.900   6
  -5   1   5 1837.11 219.669   2
   5  -1  -5 1822.67 225.490   2
   5   1  -4 50464.0 1176.35   1
   5  -1  -4 55864.9 1657.72   6
   5  -1  -4 52521.5 1088.93   2
  -5  -1   4 51859.1 1076.24   2
  -5   1   4 53899.6 1096.31   2
   5  -1  -3 47092.5 920.655   2
  -5   1   3 46326.0 917.312   2
   5  -1  -3 52172.5 1580.52   6
  -5  -1   3 49142.4 915.682   2
   5   1  -3 44969.9 1173.18   1
  -5  -1   2 88434.6 1768.35   1
   5  -1  -2 90250.8 1128.21   2
   5   1  -2 90583.1 1745.81   1
   5  -1  -2 94038.0 2115.88   6
  -5   1   2 90076.4 1868.17   1
  -5  -1   2 89897.9 1084.99   2
   5  -1  -1 42756.6 649.260   2
  -5  -1   1 43594.7 1289.99   1
   5   1  -1 45161.7 1282.20   1
   5  -1  -1 46506.1 1462.53   6
  -5   1   1 46111.7 1380.41   1
  -5  -1   0 51183.8 1455.98   1
  -5   1   0 49381.1 1499.84   6
  -5   1   0 47926.6 1449.92   1
   5   1   0 50360.8 1403.24   1
  -5  -1  -1 8779.57 628.505   1
   5   1   1 8901.73 453.551   3
  -5   1  -1 7625.09 599.932   1
   5   1   1 9086.04 623.161   1
  -5   1  -1 9318.27 633.117   6
  -5   1  -2 1310.15 242.978   6
  -5  -1  -2 2204.61 328.414   1
   5   1   2 2170.88 312.477   1
   5   1   2 1815.68 203.351   3
   5  -1   2 1676.68 130.854   2
  -5  -1  -2 1795.16 121.183   2
  -5   1  -3 14507.4 796.446   6
   5  -1   3 13141.1 441.003   2
   5   1   3 14471.9 834.897   1
  -5  -1  -3 14435.3 818.016   5
  -5  -1  -3 13698.7 421.394   2
   5   1   4 4225.54 474.733   1
  -5  -1  -4 3914.42 427.419   5
  -5   1  -4 3965.31 452.105   5
  -5   1  -4 3538.76 389.921   6
  -5  -1  -4 4133.75 270.927   2
   5  -1   4 3773.68 272.424   2
   5   1   4 4174.64 274.261   2
   5   1   5 17410.8 979.103   1
   5  -1   5 16337.2 635.065   2
   5  -1   5 18259.4 979.664   5
  -5  -1  -5 17847.3 928.514   5
  -5   1  -5 17215.7 939.293   5
  -5   1  -5 16254.7 394.901   3
  -5  -1  -5 17872.0 695.889   3
   5   1   5 16467.5 622.359   2
  -5  -1  -5 17297.2 620.179   2
  -5   1  -5 17129.1 848.300   6
  -5  -1  -6 852.298 208.244   5
   5  -1   6 1060.46 178.799   2
  -5   1  -6 1060.06 219.368   6
   5  -1   6 919.330 226.716   5
  -5   1  -6 1094.60 131.853   3
  -5  -1  -6 1327.35 210.459   3
   5   1   6 1382.45 202.217   2
   5   1   6 1607.43 312.064   1
  -5  -1  -6 946.021 160.167   2
   5  -1   7 22408.8 1123.50   5
  -5  -1  -7 21548.3 1033.08   5
   5   1   7 23354.3 1197.93   1
  -5  -1  -7 22827.0 878.507   3
   5   1   7 21208.0 841.953   2
  -5  -1  -7 21014.6 822.440   2
  -5   1  -7 21246.0 961.465   6
   5  -1   7 21334.6 862.127   2
  -5  -1  -8 574.356 146.028   2
  -5  -1  -8 861.826 204.399   5
   5  -1   8 703.078 203.357   5
  -5  -1  -8 836.032 173.453   3
   5   1   8 569.245 205.205   1
  -5   1  -8 810.472 174.218   6
   5  -1   8 920.878 194.223   2
   5   1   8 432.774 128.607   2
  -5  -1  -9 935.209 190.211   2
  -5  -1  -9 984.885 239.095   5
   5   1   9 981.644 202.709   2
   5  -1   9 905.064 199.071   2
  -5  -1  -9 961.758 196.565   3
   5   1   9 1340.07 305.720   1
   5  -1   9 1116.06 253.553   5
  -5   1  -9 1213.99 222.186   6
   5  -1  10 2200.46 336.008   2
   5  -1  10 2071.49 357.145   5
   5   1  10 2292.39 338.449   2
  -5  -1 -10 1985.57 297.383   3
   5   1  10 2253.72 410.203   1
  -5   1 -10 2435.07 350.217   2
  -5  -1 -10 2133.78 318.436   2
  -5   1 -10 1875.22 281.409   6
   5  -1  11 5973.90 577.258   2
   5   1  11 6435.16 593.930   2
   5   1  11 6699.06 712.926   1
  -5   1 -11 6010.05 564.343   2
  -5  -1 -11 5957.73 565.856   2
  -5   1 -11 5837.58 507.859   6
   5   1  12 5652.31 672.908   1
   5  -1  12 4791.12 562.878   2
  -5  -1 -12 5312.38 703.501   4
   5   1  12 5296.07 583.270   2
  -5   1 -12 4977.29 471.835   6
  -5   1 -12 5092.95 544.044   2
  -5  -1 -12 4778.55 534.570   2
   5   1  13 5648.89 686.204   1
   5  -1  13 5010.43 583.794   2
  -5  -1 -13 5038.52 700.921   4
   5   1  13 5064.29 585.410   2
  -5   1 -13 4447.17 541.322   2
  -5  -1 -13 5038.90 572.120   2
  -5   1 -13 5043.89 479.578   6
  -5  -1 -14 122.759 130.405   2
  -5   1 -14 94.5756 87.3006   6
  -5  -1 -14 103.440 155.163   4
  -5   1 -14 101.262 94.8375   2
   5   1  14 219.648 159.264   1
  -5  -1 -15 3095.10 484.861   2
  -5   1 -15 2958.78 462.438   2
  -5   1 -15 3245.75 374.956   6
  -5  -1 -15 3193.60 594.061   4
  -5  -1 -16 2205.13 418.413   2
  -5   1 -16 2568.99 462.922   2
  -5  -1 -16 2698.75 566.188   4
  -5   1 -16 1951.13 291.809   6
  -5   1 -17 340.872 181.976   4
  -5  -1 -17 41.3541 140.946   4
  -5  -1 -17 5.96291 126.917   2
  -5   1 -17 23.5544 105.809   2
  -5   1 -17 117.963 82.6097   6
  -5   1 -18-79.3780 82.7218   4
  -5   1 -18 24.9186 73.1218   2
  -5  -1 -18-44.0732 71.5785   2
  -5  -1 -19 1397.93 387.975   2
  -5   1 -19 1962.74 499.874   4
  -5  -1 -19 1403.79 462.598   4
  -5   1 -19 1723.09 434.169   2
  -5  -1 -20 2647.62 601.747   4
  -5   1 -20 2031.58 474.653   2
  -5   1 -20 2815.33 626.845   4
  -5  -1 -20 2563.86 527.949   2
  -5  -1 -21 754.439 379.100   4
  -5  -1 -21 967.234 335.436   2
  -5   1 -21 1183.22 394.656   4
  -5   1 -21 742.614 312.567   2
  -5   1 -22 2209.55 581.194   4
  -5  -1 -22 2880.28 679.869   4
  -5  -1 -22 1813.82 462.842   2
  -5  -1 -23-97.4570 121.952   2
  -5   1 -23 190.673 172.484   4
  -5  -1 -23-9.96570 178.508   4
  -5   1 -24 453.969 232.108   4
  -5  -1 -24 501.633 291.208   4
  -5  -1 -24 413.918 252.912   2
  -5   1 -25 544.879 339.534   4
  -5  -1 -25 137.342 159.717   4
  -5  -1 -25 321.911 214.736   2
  -5  -1 -26-85.8648 122.628   2
  -5   1 -26-52.1862 112.470   4
  -5   1 -27 1155.38 465.287   4
   5  -2 -27 396.125 256.149   2
   5   2 -27 477.674 328.944   2
   5   2 -26 176.229 137.445   2
   5  -2 -26 384.779 305.237   2
   5  -2 -25 590.325 334.175   2
   5   2 -25 1635.05 492.635   2
   5  -2 -24 1767.06 531.642   2
   5   2 -24 1808.56 512.138   2
   5  -2 -23 749.298 364.466   2
   5   2 -23 945.639 385.307   2
   5  -2 -22 1972.48 482.394   2
   5   2 -22 1863.46 472.861   2
   5  -2 -21 266.263 209.646   2
   5   2 -21 46.6718 107.109   2
   5  -2 -20-104.487 157.610   2
  -5   2  20 61.6323 55.9188   5
   5   2 -20 37.0367 81.2250   2
   5   2 -19 307.076 196.673   2
   5  -2 -19 24.4245 77.7696   2
  -5   2  19 226.972 96.6112   5
  -5   2  19 154.971 61.4933   1
  -5   2  18 7256.22 495.745   5
   5   2 -18 6613.09 799.721   2
  -5   2  18 6992.39 369.493   1
   5  -2 -18 6627.18 797.230   2
  -5   2  17 177.446 81.9762   5
   5  -2 -17 104.730 166.291   2
  -5   2  17 31.6039 47.5132   1
   5   2 -17-22.2301 96.0089   2
  -5   2  16 3465.17 272.401   1
  -5   2  16 3421.51 362.900   5
   5   2 -16 3167.20 525.121   2
   5  -2 -16 3741.77 569.981   2
  -5   2  15 460.184 174.428   5
   5  -2 -15 572.734 251.347   2
  -5  -2  15 251.885 103.354   4
   5   2 -15 623.567 293.822   2
  -5   2  14 10042.2 619.338   5
  -5  -2  14 10106.5 503.658   4
   5   2 -14 11672.1 913.686   2
   5  -2 -14 11066.5 900.698   2
  -5  -2  13 4173.13 488.859   6
  -5  -2  13 3698.71 295.613   4
   5   2 -13 4239.99 536.848   2
  -5   2  13 4316.22 405.071   5
   5  -2 -13 4578.21 566.042   2
  -5   2  12 1642.25 258.951   5
  -5  -2  12 1250.87 303.954   2
   5  -2 -12 1610.97 326.881   2
  -5  -2  12 1584.82 293.332   6
   5   2 -12 1557.01 328.040   2
  -5   2  12 1672.15 333.418   2
  -5   2  11 1387.87 307.042   2
   5  -2 -11 1262.86 296.139   6
   5  -2 -11 1568.85 296.257   2
  -5  -2  11 1134.40 250.045   6
  -5   2  11 1396.13 245.844   5
   5   2 -11 1517.24 305.773   2
  -5  -2  11 1222.39 276.880   2
   5  -2 -10 23680.1 1206.78   6
  -5   2  10 24809.8 995.352   5
  -5  -2  10 24902.8 1141.01   6
   5  -2 -10 24701.5 1141.44   2
   5   2 -10 25227.0 1156.70   2
  -5  -2  10 18128.9 1003.51   2
  -5   2  10 18217.6 994.730   2
   5  -2  -9 1198.85 272.440   6
  -5   2   9 886.200 227.523   2
  -5  -2   9 1384.49 277.667   6
  -5   2   9 1234.17 239.314   5
  -5  -2   9 1235.04 253.226   2
   5  -2  -9 1059.36 241.659   2
  -5   2   8 21126.9 935.532   5
   5  -2  -8 23835.0 1020.17   2
  -5  -2   8 20749.0 1020.41   6
  -5   2   8 23727.4 1034.08   2
  -5  -2   8 22207.5 1009.29   2
   5  -2  -8 22490.5 1134.03   6
   5   2  -8 21778.7 574.598   1
   5   2  -7 4644.59 299.157   1
   5  -2  -7 5319.36 457.636   2
   5  -2  -7 5170.31 539.549   6
  -5   2   7 5578.61 473.076   2
  -5  -2   7 5300.34 462.206   2
  -5  -2   7 5563.75 523.825   6
  -5   2   7 5403.18 475.522   5
  -5  -2   6 10808.5 734.834   6
  -5   2   6 11143.4 634.476   2
  -5   2   6 11887.4 700.650   5
   5  -2  -6 10949.9 621.690   2
  -5  -2   6 11367.0 637.723   2
   5   2  -6 10513.6 487.925   1
   5  -2  -6 11742.6 801.214   6
  -5   2   5 2878.94 298.204   2
  -5   2   5 2766.23 340.892   5
   5   2  -5 2676.52 259.462   1
   5  -2  -5 2700.24 286.705   2
  -5  -2   5 2530.54 276.849   2
   5  -2  -5 2725.16 378.370   6
   5  -2  -4 29804.6 1244.69   6
  -5   2   4 27452.8 869.958   2
  -5   2   4 27655.8 1103.56   5
   5  -2  -4 26759.4 859.948   2
  -5  -2   4 27456.2 859.685   2
   5   2  -4 26621.4 879.628   1
   5   2  -3 39108.5 1127.04   1
   5  -2  -3 40999.3 1002.69   2
  -5  -2   3 42079.3 999.405   2
   5   2  -2 68245.0 1554.09   1
   5  -2  -2 67126.0 1205.55   2
  -5  -2   2 67988.9 1200.10   2
   5  -2  -2 67148.6 1834.96   6
   5  -2  -1 39050.1 870.079   2
   5   2  -1 38969.1 1219.64   1
   5  -2  -1 43305.2 1436.23   6
  -5   2   1 42610.7 1432.77   6
  -5  -2   0 42796.1 841.114   2
   5  -2   0 41366.8 1419.82   5
   5   2   0 43477.1 1344.64   1
  -5   2   0 43140.5 1427.12   6
   5  -2   0 42324.2 1408.90   6
   5  -2   0 43014.3 879.780   2
  -5   2  -1 7579.61 587.323   6
   5   2   1 7747.63 590.750   1
   5   2   1 7205.40 483.694   3
   5  -2   1 7981.69 626.799   5
  -5  -2  -1 7488.62 350.595   2
   5  -2   1 7687.31 600.778   6
   5  -2   2 170.423 97.4995   6
   5  -2   2 72.4139 67.4358   5
   5   2   2 217.091 128.960   1
   5   2   2 186.930 73.4244   3
  -5   2  -2 128.813 79.6150   6
  -5  -2  -2 124.358 45.8819   2
  -5   2  -3-9.20453 46.1144   6
   5  -2   3 70.5984 86.8332   5
   5  -2   3 60.4952 40.2186   2
   5   2   3 93.0509 116.554   1
   5   2   3 15.7642 56.8652   3
  -5  -2  -3 19.6414 19.4103   2
   5  -2   4 16867.3 966.221   5
   5   2   4 16197.0 929.786   1
  -5  -2  -4 15933.3 615.494   2
   5  -2   4 15286.5 629.868   2
  -5   2  -4 15430.2 817.439   6
  -5   2  -5 460.471 149.679   6
   5  -2   5 599.957 135.276   2
   5  -2   5 624.233 199.256   5
   5   2   5 639.085 217.124   1
  -5  -2  -5 469.277 111.443   2
   5   2   5 550.151 125.047   2
   5  -2   6 23409.4 1165.08   5
   5   2   6 27502.7 1281.75   1
   5   2   6 24943.2 906.344   2
  -5   2  -6 23710.6 1004.78   6
  -5  -2  -6 25373.7 997.206   3
  -5  -2  -6 24681.9 1091.41   5
   5  -2   6 23585.1 902.661   2
  -5  -2  -6 24103.7 874.812   2
   5   2   7 1327.07 230.937   2
  -5   2  -7 813.481 205.780   6
   5  -2   7 1158.92 216.771   2
  -5  -2  -7 1305.53 263.207   5
   5  -2   7 1320.66 297.710   5
   5   2   7 1509.07 310.873   1
  -5  -2  -7 1293.20 220.656   2
  -5  -2  -7 1071.61 230.601   3
  -5  -2  -8 7759.27 622.205   5
   5   2   8 8616.79 757.597   1
  -5  -2  -8 8378.87 617.849   3
   5   2   8 8015.41 581.411   2
   5  -2   8 7124.91 560.805   2
  -5   2  -8 7977.75 571.592   6
  -5  -2  -8 8784.86 598.777   2
  -5   2  -9 1620.26 256.841   6
   5   2   9 2268.67 393.933   1
  -5  -2  -9 2009.84 319.779   5
  -5  -2  -9 1930.32 395.739   4
  -5  -2  -9 1790.91 287.135   2
  -5  -2  -9 1848.63 303.603   3
   5   2   9 1933.75 304.825   2
   5  -2   9 2004.19 314.862   2
  -5   2 -10 949.410 199.754   6
  -5  -2 -10 961.168 226.154   3
   5   2  10 919.021 277.528   1
   5   2  10 646.681 186.481   2
  -5  -2 -10 936.940 228.537   5
  -5  -2 -10 836.282 204.640   2
   5  -2  10 1127.69 251.284   2
  -5  -2 -10 819.198 247.612   4
  -5   2 -11 1643.84 255.549   6
   5   2  11 1851.48 328.307   2
  -5  -2 -11 1656.24 308.960   5
   5  -2  11 1653.16 321.002   2
  -5  -2 -11 1367.83 349.464   4
  -5  -2 -11 1315.42 269.960   3
   5   2  11 1825.36 385.202   1
  -5  -2 -11 1486.62 295.971   2
   5  -2  12 12544.1 914.135   2
  -5  -2 -12 14738.2 941.587   2
  -5  -2 -12 16060.7 1219.22   4
  -5  -2 -12 14345.6 925.310   3
   5   2  12 13518.6 927.167   2
  -5   2 -12 12961.5 720.671   6
   5   2  12 15229.9 1124.39   1
  -5   2 -13 77.5552 81.1062   6
  -5  -2 -13 31.4509 68.7041   4
   5   2  13 200.922 165.248   1
  -5  -2 -13-42.1527 63.2267   2
  -5   2 -14 995.532 199.026   6
  -5  -2 -14 722.952 219.725   2
  -5  -2 -14 1389.36 375.998   4
   5   2  14 1343.74 366.241   1
  -5   2 -15 433.450 126.302   6
  -5  -2 -15 338.270 144.629   2
  -5  -2 -15 549.002 295.447   4
   5   2  15 359.200 219.243   1
  -5   2 -16 2062.93 267.319   6
   5   2  16 2413.03 503.424   1
  -5  -2 -16 2047.21 403.762   2
  -5  -2 -16 3018.78 601.103   4
  -5   2 -17 176.464 67.7408   6
  -5  -2 -17 309.610 214.442   2
  -5  -2 -17 345.178 214.389   4
   5   2  17 1.79632 130.595   1
   5   2  18 1196.05 371.350   1
  -5  -2 -18 1173.04 350.655   2
  -5  -2 -18 1826.14 478.148   4
  -5   2 -18 1032.93 340.868   4
  -5  -2 -19 189.800 144.739   2
  -5   2 -19 101.038 115.379   4
  -5  -2 -20 2140.98 520.307   2
  -5   2 -20 2463.72 590.960   4
  -5  -2 -20 2438.10 566.367   4
  -5   2 -21 2570.48 604.803   4
  -5  -2 -21 3405.14 719.478   4
  -5  -2 -21 2235.61 507.425   2
  -5   2 -22 418.996 251.869   4
  -5  -2 -22 857.962 385.113   4
  -5  -2 -22 302.282 158.811   2
  -5  -2 -23 1080.36 369.651   2
  -5   2 -23 1189.25 429.466   4
  -5  -2 -23 1934.65 556.286   4
  -5   2 -24-149.564 162.979   4
  -5  -2 -24 190.875 174.759   2
  -5   2 -25 261.828 235.193   4
  -5  -2 -25 382.218 262.994   2
  -5   2 -26 577.512 335.716   4
  -5  -2 -26 365.995 280.580   2
   5  -3 -27-32.4714 173.295   2
   5  -3 -26 341.027 278.191   2
   5  -3 -25 275.035 149.852   2
   5  -3 -24 507.918 287.100   2
   5  -3 -23 651.576 271.820   2
   5  -3 -22 3097.75 627.635   2
   5  -3 -21 302.892 230.367   2
   5  -3 -20-35.3196 150.434   2
  -5   3  20 289.918 102.237   1
   5  -3 -19 239.465 137.336   2
  -5   3  19 487.668 137.144   1
   5  -3 -18 7427.10 862.065   2
  -5   3  17 231.045 85.6007   5
   5  -3 -17 366.611 206.448   2
  -5   3  16 14817.1 684.711   5
   5  -3 -16 13973.9 1110.71   2
   5  -3 -15 4180.91 595.688   2
  -5   3  15 4031.76 371.035   5
  -5  -3  14 9573.95 729.448   6
  -5   3  14 8930.00 560.172   5
   5  -3 -14 9405.06 863.056   2
  -5  -3  13 533.675 186.380   6
  -5   3  13 397.926 134.490   5
   5  -3 -13 897.750 332.690   2
   5  -3 -12 5869.72 628.588   2
  -5   3  12 6092.90 475.150   5
  -5  -3  12 6640.81 595.323   6
  -5  -3  11 1176.80 254.240   6
   5   3 -11 1294.61 111.746   1
  -5  -3  11 1758.66 330.505   2
  -5   3  11 1687.36 331.862   2
  -5   3  11 1277.84 225.176   5
   5  -3 -11 1641.98 317.337   2
  -5   3  10 22993.4 955.876   5
   5  -3 -10 24810.3 1196.65   2
   5   3 -10 20518.7 544.835   1
  -5   3  10 18540.4 1056.22   2
  -5  -3  10 17143.9 1015.88   2
  -5  -3  10 22665.5 1089.70   6
  -5  -3   9 1659.30 296.024   6
  -5  -3   9 1194.45 262.173   2
  -5   3   9 1771.45 273.785   5
   5   3  -9 1984.57 188.991   1
  -5   3   9 1421.46 280.303   2
   5  -3  -9 1750.01 309.490   2
   5  -3  -8 6224.69 613.932   6
  -5   3   8 5862.45 490.598   5
   5  -3  -8 5705.51 527.175   2
   5   3  -8 5701.54 347.770   1
  -5  -3   8 5651.14 533.233   6
  -5  -3   8 5623.53 536.031   2
  -5   3   8 6470.99 571.520   2
   5  -3  -7 273.763 127.357   6
  -5  -3   7 221.767 102.019   2
  -5   3   7 229.199 124.957   5
  -5   3   7 146.372 76.3725   2
   5   3  -7 217.807 81.1531   1
   5  -3  -7 199.609 110.646   2
  -5  -3   7 319.462 135.895   6
  -5  -3   6 656.355 186.190   6
  -5   3   6 426.914 144.195   5
  -5   3   6 436.549 124.953   2
   5  -3  -6 733.729 198.389   6
  -5  -3   6 620.693 163.628   2
   5  -3  -6 389.257 128.159   2
  -5   3   5 98.7685 88.8442   5
   5  -3  -5 160.877 83.9817   6
  -5   3   5 156.323 90.3996   2
  -5  -3   5 200.837 92.3073   2
   5  -3  -5 179.534 68.8036   2
  -5   3   4 2222.76 324.505   5
   5  -3  -4 1841.91 254.776   2
   5   3  -4 1517.69 230.317   1
  -5  -3   4 2019.07 263.056   2
   5  -3  -4 2454.62 366.013   6
   5  -3  -3 772.652 234.638   6
   5  -3  -3 482.486 168.734   5
   5   3  -3 738.721 182.245   1
   5  -3  -3 512.640 136.424   2
  -5   3   3 809.746 215.093   5
   5   3  -2 6984.45 525.280   1
   5  -3  -2 6694.75 577.699   5
   5  -3  -2 6617.00 451.989   2
   5  -3  -2 8457.65 667.787   6
   5  -3  -1 949.206 225.313   5
   5   3  -1 1848.17 291.929   1
   5  -3  -1 1042.54 147.236   3
   5  -3  -1 1518.21 217.958   2
   5  -3  -1 1228.31 260.691   6
   5  -3   0 6618.15 580.031   6
   5  -3   0 6166.77 572.766   5
   5   3   0 7005.07 533.320   3
   5   3   0 6059.59 529.132   1
   5  -3   0 6301.83 415.937   2
   5   3   1 503.695 175.275   1
   5  -3   1 469.989 171.580   5
  -5  -3  -1 404.525 107.571   2
   5  -3   1 689.516 181.500   6
   5   3   1 501.600 156.236   3
   5   3   2 519.920 173.055   1
   5  -3   2 532.382 155.162   6
   5  -3   2 341.142 138.028   5
  -5  -3  -2 382.812 107.800   2
   5   3   2 658.690 165.848   3
   5  -3   3 3556.53 449.007   5
   5   3   3 3417.66 435.492   1
   5   3   3 3760.13 398.011   3
  -5  -3  -3 3450.45 317.089   2
   5  -3   3 2971.58 367.852   6
   5  -3   4 14385.7 918.541   5
  -5  -3  -4 13719.9 657.239   2
   5   3   4 12817.0 862.111   1
   5  -3   4 13131.8 684.669   2
  -5   3  -4 14171.2 805.298   6
   5  -3   4 13819.0 788.052   6
  -5   3  -5 142.066 61.9972   6
  -5  -3  -5 63.2581 100.128   4
   5   3   5 386.071 163.762   1
   5  -3   5 437.768 131.929   2
   5  -3   5 260.853 141.398   5
  -5   3  -5 184.519 42.5672   3
  -5  -3  -5 324.999 105.699   2
   5   3   6 30750.8 1401.10   1
  -5  -3  -6 27766.1 1027.54   2
  -5  -3  -6 30730.3 1444.60   4
  -5   3  -6 28631.7 1109.43   6
  -5  -3  -6 30085.0 1201.16   3
   5  -3   6 25692.4 1041.89   2
  -5  -3  -7 2438.35 323.828   2
   5   3   7 2659.01 338.133   2
   5   3   7 3261.86 484.101   1
  -5  -3  -7 2802.80 461.220   4
  -5  -3  -7 2480.68 362.711   3
   5  -3   7 3142.16 377.550   2
  -5   3  -7 2464.82 321.267   6
   5   3   8 16315.9 880.052   2
  -5  -3  -8 14569.0 866.953   5
  -5  -3  -8 15696.5 844.834   2
   5   3   8 15358.1 1047.50   1
  -5  -3  -8 16091.3 1116.24   4
  -5  -3  -8 16085.0 935.012   3
   5  -3   8 14551.1 848.180   2
  -5   3  -8 15809.4 798.380   6
  -5   3  -9 116.446 80.0983   6
  -5  -3  -9 116.879 108.606   4
  -5  -3  -9 69.8602 91.8917   5
  -5  -3  -9 61.8486 98.5547   2
   5   3   9 146.174 114.259   2
   5   3   9 141.266 147.076   1
  -5  -3  -9 67.9759 84.7842   3
   5  -3   9 39.2414 54.4466   2
   5  -3  10 1426.06 292.188   2
  -5  -3 -10 1540.24 280.691   5
  -5  -3 -10 1972.45 417.764   4
  -5  -3 -10 1544.89 299.425   2
   5   3  10 1719.74 311.920   2
   5   3  10 1630.44 380.685   1
  -5  -3 -10 1846.93 338.211   3
  -5   3 -10 1768.91 256.118   6
  -5   3 -11 467.074 135.055   6
   5  -3  11 319.686 143.987   2
  -5  -3 -11 779.362 345.797   4
   5   3  11 795.276 282.732   1
  -5  -3 -11 625.516 205.803   2
   5   3  11 841.844 249.717   2
  -5  -3 -11 645.933 213.622   3
  -5  -3 -11 854.549 224.698   5
  -5  -3 -12 15488.0 903.851   5
  -5  -3 -12 17507.1 1297.24   4
   5   3  12 14263.0 979.813   2
   5   3  12 16503.9 1191.75   1
  -5   3 -12 15996.1 752.793   6
  -5  -3 -12 16129.6 1022.38   2
  -5   3 -13 454.219 130.598   6
  -5  -3 -13 581.893 224.749   2
  -5  -3 -13 724.066 286.004   4
   5   3  13 699.598 242.897   1
  -5  -3 -14 6079.48 818.540   4
  -5  -3 -14 6448.33 707.478   2
   5   3  14 6123.61 760.360   1
   5   3  15 409.834 228.131   1
  -5  -3 -15 433.211 242.973   4
  -5  -3 -15 392.303 172.460   2
  -5  -3 -16 266.073 145.883   2
  -5  -3 -16 484.870 226.127   4
   5   3  16 77.3633 118.852   1
  -5  -3 -17-117.487 170.730   2
  -5  -3 -17 259.124 232.614   4
   5   3  17-121.367 206.739   1
  -5  -3 -18 2776.30 524.724   2
  -5  -3 -18 2814.20 593.312   4
   5   3  18 2335.54 514.925   1
  -5  -3 -19 109.463 203.944   4
   5   3  19 709.433 314.310   1
  -5  -3 -19 176.519 165.886   2
  -5  -3 -20 603.177 274.063   2
  -5   3 -20 636.830 307.794   4
   5   3  20 1265.38 402.401   1
  -5  -3 -20 465.425 257.172   4
  -5  -3 -21 57.2979 100.781   2
  -5  -3 -21 829.334 622.001   4
  -5   3 -21 923.788 363.717   4
   5   3  21 158.805 114.515   1
  -5  -3 -22 351.642 203.936   2
  -5   3 -22 1104.25 406.474   4
  -5  -3 -23-6.88174 80.0936   2
  -5   3 -23-44.5393 165.517   4
  -5   3 -24 884.424 365.509   4
  -5  -3 -24 578.821 270.947   2
  -5  -3 -25 50.9662 117.135   2
  -5   3 -25 232.469 212.017   4
  -5  -3 -26 878.692 397.991   2
   5  -4 -26 0.67613 135.386   2
   5  -4 -25 613.032 327.271   2
   5  -4 -24 23.0842 198.327   2
   5  -4 -23 1855.53 517.436   2
   5  -4 -22 891.526 358.147   2
   5  -4 -21 30.9596 145.493   2
   5  -4 -20-87.1676 162.637   2
   5  -4 -19 1877.93 437.750   2
   5  -4 -18 2283.85 488.615   2
   5  -4 -17 1021.50 325.489   2
   5  -4 -16 7298.29 818.456   2
   5  -4 -15 3593.14 559.758   2
  -5  -4  15 4153.46 484.689   6
  -5  -4  14 1946.73 342.911   6
   5  -4 -14 2140.63 404.951   2
  -5  -4  13 2606.55 384.137   6
   5  -4 -13 2773.47 470.970   2
   5  -4 -12 2696.10 441.073   2
  -5  -4  12 3212.16 423.984   6
   5  -4 -11 711.290 224.498   2
  -5  -4  11 658.634 210.516   6
  -5  -4  10 11238.8 777.131   6
   5  -4 -10 10427.3 825.292   2
  -5  -4  10 11594.6 872.111   2
  -5  -4   9 10477.9 759.556   6
  -5   4   9 11502.5 838.102   2
   5  -4  -9 10759.2 806.657   2
  -5  -4   9 9124.42 747.016   2
  -5   4   8 3774.46 467.751   2
   5  -4  -8 5948.97 572.151   2
  -5  -4   8 3671.97 456.096   2
  -5  -4   8 5695.63 556.810   6
  -5   4   7 3706.91 440.286   2
  -5  -4   7 4375.93 273.901   4
   5  -4  -7 4750.46 496.543   2
  -5  -4   7 4829.50 508.421   2
  -5  -4   6 66.8481 46.3110   4
  -5  -4   6 59.0882 48.1074   2
   5  -4  -6 73.3191 93.7290   2
   5  -4  -5 2573.63 357.247   5
  -5  -4   5 3142.19 284.914   4
   5  -4  -5 2613.71 405.107   6
   5  -4  -5 2992.73 378.095   2
   5  -4  -4 1895.70 310.842   5
   5  -4  -4 1536.48 256.469   2
  -5  -4   4 2036.10 257.766   4
   5  -4  -4 2174.36 351.229   6
   5  -4  -3 66315.6 1900.56   5
  -5  -4   3 68107.4 1565.05   4
   5  -4  -3 67847.6 1536.38   3
   5  -4  -3 70353.4 1712.55   2
   5  -4  -3 71544.0 2034.85   6
   5  -4  -2 15731.7 923.099   5
   5  -4  -2 15435.7 935.021   6
  -5  -4   2 15737.8 790.876   4
   5  -4  -2 14394.2 660.019   3
   5  -4  -2 13137.1 717.981   2
   5  -4  -1 72790.3 1659.55   2
   5  -4  -1 71725.0 2016.16   5
   5  -4  -1 69320.3 1966.80   6
  -5  -4   1 69340.0 1753.00   4
   5  -4  -1 69069.7 1382.17   3
   5  -4   0 12325.3 844.642   5
  -5  -4   0 11824.7 763.563   4
   5   4   0 11217.4 770.412   3
   5  -4   0 12505.5 821.322   6
  -5  -4  -1 13471.3 699.290   2
   5  -4   1 14538.0 925.630   5
  -5  -4  -1 13129.7 816.945   4
   5   4   1 13970.8 844.714   3
   5  -4   1 15402.6 904.211   6
   5  -4   2 324.090 128.914   6
   5  -4   2 297.550 136.993   5
  -5  -4  -2 297.224 154.498   4
  -5  -4  -2 160.970 65.2820   2
   5   4   2 333.277 148.607   3
   5  -4   3 3257.49 415.770   6
  -5  -4  -3 3266.32 437.844   4
   5   4   3 3491.34 436.914   3
  -5  -4  -3 3192.87 356.364   2
  -5  -4  -4 5095.47 579.636   4
   5   4   4 4674.38 505.757   3
  -5  -4  -4 4732.44 433.229   2
  -5   4  -4 5142.11 290.185   3
   5   4   4 5034.25 555.686   1
   5  -4   4 5374.64 508.799   6
  -5  -4  -5 3105.18 470.634   4
   5   4   5 4312.55 539.891   1
  -5  -4  -5 3548.19 395.417   2
  -5   4  -5 3280.81 241.669   3
   5  -4   5 3049.87 377.028   6
  -5  -4  -6 11769.1 921.124   4
  -5  -4  -6 10397.2 691.015   2
   5   4   6 9399.60 796.617   1
  -5   4  -6 10125.3 446.262   3
   5  -4   6 8350.33 655.061   2
   5  -4   6 9633.83 658.798   6
   5   4   7 2585.86 432.647   1
  -5  -4  -7 1507.93 351.415   4
  -5  -4  -7 1317.20 295.853   3
  -5  -4  -7 1723.23 294.427   2
   5  -4   7 1645.14 306.288   2
  -5  -4  -8 4556.64 485.393   2
   5   4   8 5007.83 613.984   1
  -5  -4  -8 5333.43 661.972   4
   5  -4   8 4576.75 515.747   2
  -5  -4  -8 4968.02 562.621   3
  -5  -4  -9 613.737 186.526   5
   5   4   9 697.943 240.515   1
  -5  -4  -9 935.098 289.334   4
  -5  -4  -9 575.885 184.556   2
   5   4   9 532.163 193.471   2
   5  -4   9 733.861 218.130   2
   5   4  10 575.587 257.340   1
   5  -4  10 274.687 117.266   2
  -5  -4 -10 641.910 244.749   4
  -5  -4 -10 472.413 163.547   2
   5   4  10 479.177 162.630   2
  -5  -4 -10 140.945 83.5093   5
  -5  -4 -11 6155.09 640.626   2
  -5  -4 -11 5263.50 530.243   5
   5   4  11 6378.28 750.610   1
  -5  -4 -11 5652.04 745.621   4
   5   4  11 6160.54 648.555   2
  -5  -4 -12 1575.37 291.499   5
  -5  -4 -12 2473.71 511.696   4
  -5  -4 -12 1632.91 341.679   2
   5   4  12 1558.68 406.634   1
  -5  -4 -13 1558.76 281.575   5
  -5  -4 -13 1539.58 350.989   2
  -5  -4 -13 1407.12 389.135   4
   5   4  13 1783.54 428.353   1
   5   4  14 5346.00 732.325   1
  -5  -4 -14 4979.97 751.837   4
  -5  -4 -14 4895.41 624.625   2
   5   4  15 3029.70 574.333   1
  -5  -4 -15 2358.22 448.436   2
  -5  -4 -15 2402.18 550.801   4
  -5  -4 -16-113.632 72.5379   2
  -5  -4 -16 70.1202 75.8673   4
  -5  -4 -17 86.5419 73.3097   2
   5   4  17 342.213 195.440   1
  -5  -4 -17-1.64580 143.623   4
  -5  -4 -18 457.259 264.392   2
  -5  -4 -18 577.935 300.803   4
   5   4  18 319.320 186.688   1
  -5  -4 -19 1488.74 429.444   2
  -5  -4 -19 1318.13 452.572   4
   5   4  19 1445.87 414.054   1
  -5  -4 -20 146.874 133.832   2
   5   4  20 443.873 249.969   1
  -5  -4 -21 2980.49 615.052   2
  -5   4 -21 2984.34 617.302   4
   5   4  21 3178.36 672.372   1
  -5  -4 -22 20.2777 148.806   2
  -5   4 -22 144.016 175.181   4
   5   4  22-11.0616 156.392   1
  -5   4 -23 434.436 226.809   4
   5   4  23 377.585 242.129   1
  -5  -4 -23 697.016 326.235   2
  -5  -4 -24-229.328 193.656   2
  -5   4 -24-84.5077 193.913   4
   5   4  24 298.662 284.078   1
  -5  -4 -25 489.936 281.948   2
   5  -5 -26 197.556 254.527   2
   5  -5 -25 841.647 391.655   2
   5  -5 -24 157.217 211.454   2
   5  -5 -23 1331.51 451.376   2
   5  -5 -22-12.7984 81.6636   2
   5  -5 -21 23.1352 93.8662   2
   5  -5 -20 4494.19 922.744   2
   5  -5 -19 3520.36 639.299   2
   5  -5 -18 616.608 302.138   2
   5  -5 -17 7012.85 859.224   2
  -5  -5  16 311.747 219.562   6
   5  -5 -16 197.779 188.286   2
   5  -5 -15 4322.51 633.322   2
  -5  -5  15 4345.36 499.184   6
  -5  -5  14 182.499 122.306   6
   5  -5 -14 40.0376 139.468   2
  -5  -5  13 1896.98 327.266   6
   5  -5 -13 1877.92 396.234   2
  -5  -5  12 1123.81 283.869   6
   5  -5 -12 1515.05 339.897   2
   5  -5 -11 7590.70 738.531   2
  -5  -5  11 7147.58 640.308   6
   5  -5 -10 2080.27 417.670   2
  -5  -5  10 1401.44 298.592   6
   5  -5  -9 24676.5 1273.48   2
  -5  -5   8 849.655 241.255   2
   5  -5  -8 562.692 201.246   2
   5  -5  -7 7599.97 615.853   5
   5  -5  -7 8226.46 694.677   2
  -5  -5   7 6301.58 632.846   2
   5  -5  -6 67.0255 37.7012   5
   5  -5  -6 310.342 115.329   2
   5  -5  -5 6535.39 563.654   3
   5  -5  -5 6086.55 576.464   2
   5  -5  -5 6109.32 577.626   5
   5  -5  -4 3691.16 467.415   5
  -5  -5   4 3735.88 357.521   4
   5  -5  -4 3091.32 372.387   3
   5  -5  -4 2995.02 393.236   2
   5  -5  -3 86805.7 2269.59   5
   5  -5  -3 90714.2 2149.09   2
   5  -5  -3 86787.5 1931.65   3
  -5  -5   3 87121.5 1847.12   4
   5  -5  -2 12659.0 876.419   5
  -5  -5   2 12172.5 731.163   4
   5  -5  -2 10351.7 709.634   2
   5  -5  -2 11058.7 658.458   3
   5  -5  -2 11481.9 838.232   6
   5  -5  -1 93175.2 2437.73   5
  -5  -5   1 95155.8 2149.94   4
   5   5  -1 99699.9 2465.55   3
   5  -5  -1 98756.2 2170.36   2
   5  -5  -1 89996.1 2335.84   6
   5  -5   0 6603.84 621.886   6
   5   5   0 6937.66 653.609   3
  -5  -5   0 6861.32 604.563   4
  -5  -5  -1 21583.0 1004.47   2
  -5  -5  -1 21711.7 1103.53   4
   5   5   1 22816.9 1190.40   3
   5  -5   1 21449.7 1103.89   6
  -5  -5  -2 258.337 149.857   4
  -5  -5  -2 91.4017 82.1594   2
   5   5   2 139.912 86.6882   3
   5  -5   2 170.850 93.1378   6
   5  -5   3 651.622 185.159   6
  -5  -5  -3 445.291 155.601   2
   5   5   3 782.068 179.158   3
  -5  -5  -3 736.620 221.452   4
  -5  -5  -4 488.137 175.656   2
  -5  -5  -4 287.284 168.610   4
   5   5   4 411.114 198.274   3
  -5   5  -4 338.953 107.601   3
   5  -5   4 226.392 137.343   6
  -5  -5  -5 15496.0 1070.67   4
   5  -5   5 14236.8 859.528   6
  -5   5  -5 17087.8 675.020   3
  -5  -5  -5 16622.2 934.787   2
   5  -5   6 1477.11 272.260   6
  -5  -5  -6 2436.39 461.257   4
  -5   5  -6 1684.40 221.894   3
  -5  -5  -6 2220.24 361.506   2
  -5  -5  -7 15475.5 1133.68   4
   5   5   7 14182.8 1081.29   1
  -5  -5  -7 15186.9 946.774   2
   5  -5   7 14358.2 816.311   6
  -5  -5  -8 2790.17 412.338   2
   5   5   8 3471.20 554.173   1
  -5  -5  -8 3071.49 526.464   4
   5  -5   8 2280.39 404.833   2
  -5  -5  -9 422.516 229.184   4
   5   5   9 233.130 181.671   1
  -5  -5  -9 146.700 106.560   2
   5   5  10 414.609 221.967   1
  -5  -5 -10 381.875 128.640   4
  -5  -5 -10 582.514 169.836   2
  -5  -5 -11 8555.49 682.441   5
  -5  -5 -11 9452.20 831.742   2
   5   5  11 8781.69 903.437   1
  -5  -5 -11 8880.92 951.616   4
  -5  -5 -12 597.915 192.308   5
   5   5  12 1167.75 393.100   1
  -5  -5 -12 963.026 344.499   4
  -5  -5 -12 618.491 237.308   2
  -5  -5 -13 6519.63 583.361   5
   5   5  13 7163.57 861.746   1
  -5  -5 -13 6645.03 863.946   4
  -5  -5 -13 7216.97 767.872   2
  -5  -5 -14 466.664 162.346   5
  -5  -5 -14 741.035 330.712   4
   5   5  14 332.905 244.743   1
  -5  -5 -14 316.716 201.820   2
  -5  -5 -15 5447.31 715.577   2
   5   5  15 4840.80 743.449   1
  -5  -5 -15 4874.02 788.268   4
  -5  -5 -16 229.110 156.515   2
   5   5  16 523.430 268.773   1
   5   5  17 353.527 236.794   1
  -5  -5 -17 105.161 95.0628   2
   5   5  18 15.1838 73.6800   1
  -5  -5 -18-47.7724 155.814   2
   5   5  19 1044.52 338.431   1
  -5  -5 -19 506.282 260.469   2
  -5  -5 -20 496.166 302.293   2
   5   5  20-109.208 234.864   1
  -5  -5 -21 1430.46 459.841   2
   5   5  21 1467.17 474.209   1
  -5  -5 -22 356.975 240.325   2
  -5   5 -22 675.101 297.441   4
  -5  -5 -23 250.499 209.043   2
  -5   5 -23 329.182 270.322   4
   5   5  23 153.071 113.586   1
  -5  -5 -24-278.540 212.107   2
   5   5  24 374.745 250.276   1
  -5  -5 -25 277.809 220.568   2
   5  -6 -25 396.987 248.375   2
   5  -6 -24 193.019 211.552   2
   5  -6 -23 903.212 392.016   2
   5  -6 -22 601.964 303.490   2
   5  -6 -21 975.138 377.781   2
   5  -6 -20-111.180 159.852   2
   5  -6 -19 872.320 341.537   2
   5  -6 -18 1512.70 440.686   2
   5  -6 -17 7054.46 874.286   2
  -5  -6  17 5459.02 550.846   6
  -5  -6  16 2135.88 361.131   6
   5  -6 -16 2638.98 537.950   2
   5  -6 -15 2136.46 450.599   2
  -5  -6  15 2395.71 378.287   6
  -5  -6  14 1033.99 254.812   6
   5  -6 -14 972.557 315.076   2
  -5  -6  13 104.920 96.1629   6
   5  -6 -13-14.1939 107.884   2
  -5  -6  12 2544.38 391.516   6
   5  -6 -12 2792.95 483.602   2
  -5  -6  11 12624.0 882.322   6
   5  -6 -11 13573.1 1049.18   2
   5  -6 -10 8425.29 812.504   2
   5  -6  -9 13289.2 816.535   5
   5  -6  -9 14418.1 1031.74   2
   5  -6  -8 2363.57 418.676   2
   5  -6  -8 1565.46 288.093   5
   5  -6  -7 3363.32 434.250   5
   5  -6  -7 2664.85 412.328   3
   5  -6  -7 3397.78 480.844   2
   5  -6  -6 145.451 85.4346   5
   5  -6  -6 44.0815 66.1695   2
   5  -6  -6 178.613 115.752   3
   5  -6  -5 608.150 200.581   5
   5  -6  -5 379.566 130.643   2
   5  -6  -5 207.991 124.223   3
   5  -6  -4 550.044 187.648   5
   5  -6  -4 754.134 247.857   2
   5  -6  -4 837.121 210.335   3
   5  -6  -3 10483.6 733.927   3
   5  -6  -3 9543.79 756.027   2
   5  -6  -2 4971.68 490.477   3
   5  -6  -2 6641.73 628.962   2
   5   6  -1 8859.70 792.717   3
   5  -6  -1 8605.22 700.063   2
   5   6   0 3795.54 523.912   3
   5  -6   1 1492.20 305.460   6
   5   6   1 1701.20 356.161   3
   5  -6   2 383.426 157.050   6
   5   6   2 156.797 91.6785   3
  -5  -6  -2 296.880 143.876   2
  -5  -6  -3 2956.17 447.697   4
  -5   6  -3 3431.35 355.731   3
   5   6   3 2903.97 463.509   3
   5  -6   3 3890.90 485.134   6
  -5  -6  -3 2586.30 386.761   2
  -5  -6  -4 4079.10 556.242   4
   5  -6   4 3862.19 477.519   6
   5   6   4 3881.71 543.392   3
  -5   6  -4 4379.04 404.141   3
  -5  -6  -4 5043.46 557.815   2
  -5  -6  -5 21853.4 1314.97   4
  -5   6  -5 22813.6 907.151   3
  -5  -6  -5 22032.5 1181.25   2
   5  -6   5 19496.5 1062.21   6
  -5  -6  -6 7780.87 809.757   4
  -5   6  -6 8454.35 563.203   3
  -5  -6  -6 8841.05 772.085   2
   5  -6   6 6165.82 584.456   6
   5  -6   7 18768.4 989.220   6
  -5  -6  -7 21581.1 1369.54   4
  -5   6  -7 21672.8 915.735   3
  -5  -6  -7 21756.4 1211.72   2
   5  -6   8 3512.87 414.885   6
  -5  -6  -8 4358.54 644.984   4
  -5  -6  -8 3848.02 523.110   2
  -5  -6  -9 3108.97 549.871   4
  -5  -6  -9 2623.75 443.580   2
   5   6  10 119.111 165.970   1
  -5  -6 -10 4.96018 96.2605   2
  -5  -6 -11 4322.99 596.694   2
   5   6  11 3347.76 587.693   1
  -5  -6 -12 1458.04 289.732   5
   5   6  12 2296.75 504.179   1
  -5  -6 -12 1630.90 386.785   2
  -5  -6 -13 5877.12 728.133   2
  -5  -6 -13 5965.04 569.034   5
   5   6  13 5765.57 809.935   1
  -5  -6 -14 846.012 218.377   5
   5   6  14 1683.92 461.454   1
  -5  -6 -14 1151.06 335.446   2
   5   6  15 1135.74 367.695   1
  -5  -6 -15 798.919 204.520   5
  -5  -6 -15 842.249 284.030   2
  -5  -6 -16 99.4305 62.6109   2
   5   6  16 104.778 92.4989   1
  -5  -6 -17-220.997 158.013   2
   5   6  17 90.3709 87.8331   1
   5   6  18 715.092 343.252   1
  -5  -6 -18 285.295 192.577   2
   5   6  19 661.599 293.623   1
  -5  -6 -19 821.792 322.581   2
   5   6  20 254.861 191.929   1
  -5  -6 -20 268.496 205.496   2
   5   6  21-570.836 300.764   1
  -5  -6 -21 2664.00 575.419   2
  -5  -6 -22 352.622 261.331   2
  -5   6 -22 584.538 289.254   4
   5   6  22 219.766 277.406   1
  -5  -6 -23-12.2678 82.7859   2
   5   6  23-135.877 172.866   1
  -5  -6 -24-434.000 266.513   2
   5  -7 -24 1141.85 436.638   2
   5  -7 -23 440.850 252.951   2
   5  -7 -22 1161.78 423.242   2
   5  -7 -21-208.719 183.050   2
   5  -7 -20 120.571 117.113   2
   5  -7 -19-181.418 165.771   2
   5  -7 -18 1203.55 385.238   2
   5  -7 -17 2428.85 558.186   2
  -5  -7  17 2083.73 353.924   6
   5  -7 -16 2956.58 596.032   2
  -5  -7  16 3158.09 442.232   6
   5  -7 -15 1525.78 419.570   2
  -5  -7  15 1124.51 285.398   6
  -5  -7  14 2330.78 375.461   6
   5  -7 -14 2735.78 537.363   2
  -5  -7  13 115.855 112.210   6
   5  -7 -13 884.135 287.866   2
  -5  -7  12 369.097 175.141   6
   5  -7 -12 887.988 296.557   2
   5  -7 -11 2513.13 492.188   2
   5  -7 -10 7500.54 632.065   5
   5  -7 -10 10310.6 938.422   2
   5  -7  -9 2273.57 362.638   5
   5  -7  -9 2403.83 469.061   2
   5  -7  -8 8644.06 725.875   5
   5  -7  -8 11850.0 982.953   2
   5  -7  -7 563.638 237.619   2
   5  -7  -6 1030.30 265.929   2
   5  -7  -5-3.42774 117.667   2
   5  -7  -5 84.0110 54.2036   3
   5  -7  -4 5808.04 612.476   3
   5  -7  -4 7857.26 747.555   2
   5  -7  -3 1117.56 309.623   2
   5  -7  -3 1335.91 279.405   3
   5  -7  -2 38466.5 1625.55   2
   5   7  -2 38614.8 1764.60   3
   5   7  -1 1869.35 435.232   3
   5  -7  -1 1321.16 324.319   2
   5   7   0 21944.5 1337.70   3
   5   7   1 693.795 223.994   3
  -5  -7  -1 421.310 177.923   2
   5   7   2-93.1076 126.518   3
  -5  -7  -2 14.3785 125.391   2
  -5   7  -3 1048.24 211.755   3
  -5  -7  -3 896.601 245.244   2
   5   7   3 1223.36 333.341   3
   5   7   4 4461.08 619.673   3
  -5   7  -4 3810.12 418.499   3
  -5  -7  -4 4107.89 552.343   2
   5  -7   4 3661.05 484.668   6
  -5   7  -5 4294.83 439.882   3
   5  -7   5 4662.29 541.091   6
  -5  -7  -5 4506.58 573.597   2
   5  -7   6 5966.39 606.142   6
  -5   7  -6 6063.54 529.120   3
  -5  -7  -6 6809.31 721.404   2
  -5   7  -7 3626.50 423.864   3
  -5  -7  -7 3418.97 518.957   2
   5  -7   7 3392.67 447.159   6
  -5  -7  -8 959.962 289.794   2
  -5   7  -8 1585.04 280.834   3
   5  -7   8 1309.88 272.402   6
  -5   7  -9 644.786 183.634   3
  -5  -7  -9 476.608 185.202   2
   5  -7   9 797.278 199.961   6
  -5  -7 -10 362.458 190.620   2
  -5  -7 -11 164.655 143.155   2
  -5  -7 -12 1021.91 308.747   2
   5   7  12 2119.75 513.035   1
  -5  -7 -13 1304.98 272.597   5
  -5  -7 -13 716.224 275.864   2
   5   7  13 1228.10 404.703   1
  -5  -7 -14 1971.73 320.604   5
  -5  -7 -14 2676.01 536.916   2
   5   7  14 2658.29 574.641   1
  -5  -7 -15 220.238 147.268   2
   5   7  15 357.056 281.442   1
   5   7  16 524.839 295.681   1
  -5  -7 -16 513.382 268.315   2
   5   7  17-177.961 126.227   1
  -5  -7 -17 37.4509 141.347   2
  -5  -7 -18 589.823 301.661   2
   5   7  18 756.179 392.637   1
  -5  -7 -19 9.73782 86.2361   2
   5   7  19 206.658 209.781   1
  -5  -7 -20 1020.78 387.580   2
   5   7  20 2117.75 551.033   1
   5   7  21 158.397 312.120   1
  -5  -7 -21-400.370 244.358   2
   5   7  22 630.090 364.965   1
  -5  -7 -22 965.209 415.322   2
  -5  -7 -23 244.166 266.598   2
   5  -8 -23 739.985 381.038   2
   5  -8 -22 410.055 245.541   2
   5  -8 -21 269.387 202.377   2
   5  -8 -20 68.7089 143.711   2
   5  -8 -19-107.305 183.378   2
   5  -8 -18 1216.54 421.057   2
   5  -8 -17 715.317 313.564   2
   5  -8 -16 3442.69 636.949   2
  -5  -8  16 3233.04 448.847   6
   5  -8 -15 405.997 305.364   2
  -5  -8  15 353.694 187.994   6
   5  -8 -14 4610.69 719.753   2
  -5  -8  14 4806.82 576.251   6
  -5  -8  13 79.6073 115.642   6
   5  -8 -13-24.9838 141.215   2
   5  -8 -12 842.160 302.002   2
   5  -8 -11 553.680 242.335   2
   5  -8 -10 696.179 262.439   2
   5  -8  -9 784.231 289.900   2
   5  -8  -8 2273.63 471.258   2
   5  -8  -7-105.062 171.339   2
   5  -8  -6-27.2190 91.2336   2
   5  -8  -5 180.950 79.8092   2
   5  -8  -4 6866.46 752.554   2
   5  -8  -3 359.936 203.148   2
   5   8  -3 1096.42 347.272   3
   5  -8  -2 19636.5 1251.52   2
   5   8  -2 20447.4 1368.15   3
   5   8  -1 161.364 191.963   3
   5  -8  -1 426.322 220.711   2
   5   8   0 9588.82 952.700   3
   5   8   1 252.918 138.152   3
  -5  -8  -1-83.1389 143.285   2
   5   8   2-108.316 128.231   3
  -5  -8  -2-20.2978 108.150   2
  -5  -8  -3-73.3318 73.0398   2
   5   8   3 95.1519 146.529   3
   5   8   4 679.373 251.671   3
  -5   8  -4 701.415 214.078   3
  -5  -8  -4 842.421 275.750   2
  -5  -8  -5 713.899 258.386   2
  -5   8  -5 781.515 214.040   3
  -5  -8  -6 1298.19 343.907   2
  -5   8  -6 1303.19 281.918   3
  -5  -8  -7 1635.68 386.689   2
  -5   8  -7 1889.95 328.618   3
  -5  -8  -8-51.0438 93.9131   2
  -5   8  -8 155.905 152.062   3
  -5  -8  -9 238.902 174.350   2
  -5   8  -9 373.851 201.786   3
  -5  -8 -10 3611.37 598.702   2
  -5   8 -10 4419.82 519.251   3
  -5   8 -11 875.465 254.306   3
  -5  -8 -11 760.369 309.945   2
  -5  -8 -12 5392.17 779.989   2
   5   8  13 828.636 355.416   1
  -5  -8 -13 233.709 180.509   2
   5   8  14 2738.19 633.022   1
  -5  -8 -14 2163.82 514.817   2
   5   8  15 16.5589 102.152   1
  -5  -8 -15 237.768 217.864   2
  -5  -8 -16 297.449 188.150   2
   5   8  16 342.476 241.668   1
   5   8  17 67.8939 173.886   1
  -5  -8 -17-433.873 243.755   2
   5   8  18 628.261 306.833   1
  -5  -8 -18 376.956 244.049   2
  -5  -8 -19 1.23196 119.144   2
   5   8  19 448.494 345.913   1
  -5  -8 -20 1143.01 434.990   2
   5   8  20 837.176 399.562   1
  -5  -8 -21 78.0246 87.2144   2
  -5  -8 -22 281.750 248.644   2
   5  -9 -21 234.720 178.713   2
   5  -9 -20-52.9786 145.841   2
   5  -9 -19-113.619 199.044   2
   5  -9 -18 1240.73 450.617   2
   5  -9 -17 1991.82 524.558   2
   5  -9 -16 2939.31 616.020   2
   5  -9 -15 2491.42 580.758   2
  -5  -9  14 1426.93 339.833   6
   5  -9 -14 853.948 338.655   2
   5  -9 -13-8.65936 172.454   2
   5  -9 -12 120.716 118.068   2
   5  -9 -11 2136.84 493.254   2
   5  -9 -10 2376.13 504.211   2
   5  -9  -9 4388.60 688.943   2
   5  -9  -8 3044.22 574.648   2
   5  -9  -7 813.709 316.774   2
   5  -9  -6 164.060 160.152   2
   5  -9  -5 2.87059 135.243   2
   5   9  -5 83.9688 188.251   3
   5  -9  -4 1134.18 322.900   2
   5   9  -4 891.592 302.688   3
   5  -9  -3 2958.68 530.587   2
   5   9  -3 3609.05 604.353   3
   5  -9  -2 3052.06 530.663   2
   5   9  -2 2752.83 558.257   3
   5  -9  -1 4189.99 639.885   2
   5   9  -1 4454.60 687.476   3
   5   9   0 2208.22 483.850   3
   5   9   1 903.796 298.509   3
  -5  -9  -1 1113.97 334.400   2
   5   9   2 240.081 173.675   3
  -5  -9  -2 14.7793 144.937   2
  -5  -9  -3 742.482 272.396   2
   5   9   3 1029.08 352.735   3
  -5  -9  -4 1514.30 392.787   2
  -5   9  -4 2129.99 385.452   3
   5   9   4 1856.07 466.691   3
  -5   9  -5 4567.57 552.181   3
  -5  -9  -5 4739.87 677.247   2
  -5   9  -6 6240.95 636.426   3
  -5  -9  -6 4236.15 648.279   2
  -5   9  -7 3907.54 507.918   3
  -5  -9  -7 4174.46 658.205   2
  -5  -9  -8 1516.77 402.229   2
  -5   9  -8 1853.45 349.012   3
  -5  -9  -9 162.721 73.8383   2
  -5   9  -9 147.056 63.9980   3
  -5  -9 -10 106.280 136.143   2
  -5   9 -10 57.2404 108.228   3
  -5  -9 -11 1422.83 400.047   2
  -5   9 -11 1523.94 333.943   3
  -5   9 -12 2741.00 449.909   3
  -5  -9 -12 1502.96 430.370   2
  -5   9 -13 1567.92 351.507   3
  -5  -9 -13 1749.17 471.910   2
   5   9  14 566.026 283.404   1
  -5  -9 -14 915.726 307.740   2
   5   9  15 1045.43 411.034   1
  -5  -9 -15 374.496 242.643   2
   5   9  16-51.9319 185.507   1
  -5  -9 -16 33.2854 139.908   2
  -5  -9 -17-200.905 182.405   2
   5   9  17-33.8637 132.535   1
  -5  -9 -18 181.174 162.222   2
   5   9  18 142.230 111.483   1
  -5  -9 -19 272.560 267.770   2
  -5  -9 -20-244.463 206.515   2
   5 -10 -20 168.499 199.212   2
   5 -10 -19-134.955 159.106   2
   5 -10 -18 147.685 178.273   2
   5 -10 -17 1588.22 467.339   2
   5 -10 -16 17.2655 86.5173   2
   5 -10 -15 1482.87 464.773   2
   5 -10 -14 27.2346 124.730   2
   5 -10 -13-73.4143 96.1314   2
   5 -10 -12 46.0884 109.845   2
   5 -10 -11 1630.87 460.748   2
   5 -10 -10 147.331 120.874   2
   5 -10  -9 4399.82 726.793   2
   5 -10  -8-54.4539 134.421   2
   5 -10  -7 984.672 315.313   2
   5 -10  -6 67.8029 116.966   2
   5  10  -6 66.7338 128.197   3
   5 -10  -5 164.991 98.9497   2
   5  10  -5-53.6024 181.045   3
   5 -10  -4 297.030 175.840   2
   5  10  -4-45.1497 90.9907   3
   5  10  -3 8742.97 1010.83   3
   5 -10  -3 8979.61 975.136   2
   5 -10  -2 348.097 246.204   2
   5  10  -2 492.315 256.204   3
   5 -10  -1 9290.34 990.692   2
   5  10  -1 9763.07 1057.61   3
   5  10   0 26.3244 192.001   3
   5 -10   0 459.697 259.602   2
   5  10   1 1364.82 393.166   3
  -5 -10  -1 1765.05 419.889   2
   5  10   2-64.1718 181.102   3
  -5 -10  -2 189.865 156.135   2
  -5 -10  -3 1113.31 339.182   2
   5  10   3 1213.25 385.425   3
  -5 -10  -4 42.4189 139.145   2
  -5  10  -4 714.249 251.053   3
   5  10   4 635.525 308.967   3
  -5 -10  -5 3397.40 630.208   2
  -5  10  -5 4238.62 584.289   3
  -5 -10  -6 420.996 248.858   2
  -5  10  -6 597.104 221.830   3
  -5 -10  -7 2087.00 511.097   2
  -5  10  -7 1614.33 355.379   3
  -5 -10  -8 102.269 171.974   2
  -5  10  -8 183.446 116.030   3
  -5 -10  -9-79.0266 180.724   2
  -5  10  -9 35.1447 56.0309   3
  -5 -10 -10 284.077 197.969   2
  -5  10 -10 102.699 99.3376   3
  -5  10 -11 1498.43 350.610   3
  -5 -10 -11 902.785 323.208   2
  -5 -10 -12 113.108 124.590   2
  -5 -10 -13 1369.11 465.900   2
  -5 -10 -14 364.403 274.087   2
   5  10  15 1433.27 453.263   1
  -5 -10 -15 501.537 245.010   2
   5  10  16 421.931 298.590   1
  -5 -10 -16 10.3579 164.719   2
  -5 -10 -17-152.273 205.125   2
  -5 -10 -18-2.77222 70.0552   2
  -5 -10 -19 65.8660 189.009   2
   5 -11 -17 1172.38 448.747   2
   5 -11 -16 631.252 345.642   2
   5 -11 -15 1554.99 468.489   2
   5 -11 -14-67.9301 107.334   2
   5 -11 -13 168.628 148.517   2
   5 -11 -12 222.420 254.538   2
   5 -11 -11 1650.28 472.646   2
   5 -11 -10 1455.72 469.615   2
   5 -11  -9 3849.72 716.555   2
   5 -11  -8 1880.82 513.457   2
   5  11  -8 1285.34 431.568   3
   5 -11  -7 453.552 200.180   2
   5  11  -7 1372.41 427.391   3
   5 -11  -6 113.895 146.768   2
   5  11  -6-54.0551 175.497   3
   5 -11  -5 373.597 194.609   2
   5  11  -5 534.505 243.364   3
   5 -11  -4 295.017 232.204   2
   5  11  -4 287.306 214.615   3
   5 -11  -3 6042.70 858.209   2
   5  11  -3 8247.95 1036.27   3
   5 -11  -2 2029.67 535.585   2
   5  11  -2 2077.37 545.044   3
   5  11  -1 7769.51 1022.69   3
   5 -11  -1 8445.13 1012.18   2
   5  11   0 1462.89 436.803   3
   5 -11   0 1437.41 441.766   2
  -5 -11   0 1136.30 414.270   2
   5  11   1 1001.96 324.591   3
  -5 -11  -1 1935.35 488.951   2
   5 -11   1 2051.02 498.735   2
   5  11   2-116.177 178.840   3
  -5 -11  -2-10.9446 91.8265   2
  -5 -11  -3 175.401 101.443   2
   5  11   3 485.429 196.779   3
  -5 -11  -4 807.417 323.376   2
  -5 -11  -5 2229.87 531.146   2
  -5  11  -5 2379.08 473.534   3
  -5 -11  -6 1736.19 505.568   2
  -5  11  -6 2012.01 428.503   3
  -5  11  -7 1898.32 410.598   3
  -5 -11  -7 1282.13 396.916   2
  -5 -11  -8 1143.94 381.657   2
  -5  11  -8 792.912 244.948   3
  -5 -11  -9-13.3101 87.4432   2
  -5  11  -9 3.42276 89.8133   3
  -5 -11 -10 24.9799 132.930   2
  -5 -11 -11 1198.45 442.652   2
  -5 -11 -12 685.899 343.805   2
  -5 -11 -13 1155.37 440.557   2
  -5 -11 -14 726.373 313.012   2
  -5 -11 -15 78.1322 185.055   2
  -5 -11 -16 2.81956 70.0305   2
  -5 -11 -17-506.454 295.248   2
   5 -12 -15 26.4224 152.804   2
   5 -12 -14 251.937 241.360   2
   5 -12 -13-136.071 179.611   2
   5 -12 -12 362.950 279.839   2
   5 -12 -11 213.265 189.194   2
   5 -12 -10 2154.06 562.295   2
   5  12 -10 1964.51 535.016   3
   5 -12  -9 1032.06 406.862   2
   5  12  -9 1051.96 436.077   3
   5 -12  -8 2134.28 570.951   2
   5  12  -8 2038.06 559.642   3
   5 -12  -7-63.8008 162.188   2
   5  12  -7 635.685 338.652   3
   5 -12  -6 265.293 229.439   2
   5  12  -6 81.2792 178.165   3
   5 -12  -5 137.146 180.069   2
   5  12  -5 123.555 201.050   3
   5 -12  -4 925.208 368.053   2
   5  12  -4 761.256 373.529   3
   5 -12  -3 552.782 315.606   2
   5  12  -3 695.155 344.719   3
   5 -12  -2 2947.36 624.229   2
   5  12  -2 2713.87 618.971   3
   5 -12  -1 245.978 159.803   2
  -5 -12   1 205.094 199.600   2
   5  12   0 1450.25 439.139   3
   5 -12   0 2006.91 521.298   2
  -5 -12   0 1690.86 468.339   2
   5  12   1 22.7006 129.710   3
  -5 -12  -1 71.3162 145.414   2
   5  12   2-85.1218 199.653   3
  -5 -12  -2-205.369 245.341   2
   5  12   3 194.056 159.357   3
  -5 -12  -3-185.660 222.936   2
  -5 -12  -4 932.068 361.173   2
  -5 -12  -5 970.670 404.756   2
  -5 -12  -6 3260.84 688.611   2
  -5  12  -6 2498.18 493.452   3
  -5 -12  -7 326.714 241.878   2
  -5 -12  -8 654.664 304.764   2
  -5 -12  -9 167.943 137.204   2
  -5 -12 -10 398.778 288.108   2
  -5 -12 -11 147.926 210.400   2
  -5 -12 -12 933.220 407.369   2
  -5 -12 -13 409.323 242.915   2
  -5 -12 -14 434.343 279.759   2
   5 -13 -11 110.992 175.043   2
   5 -13 -10 395.910 280.537   2
   5  13 -10 225.798 221.171   3
   5 -13  -9 203.005 174.118   2
   5  13  -9 299.679 216.193   3
   5 -13  -8 205.055 205.588   2
   5  13  -8 327.484 253.215   3
   5 -13  -7-472.328 283.709   2
   5  13  -7-176.368 262.678   3
   5 -13  -6-40.9617 200.749   2
   5  13  -6 280.781 252.692   3
   5 -13  -5 139.039 202.348   2
   5  13  -5-73.3956 181.002   3
   5 -13  -4 784.143 359.192   2
   5  13  -4 965.436 386.932   3
   5 -13  -3 303.870 237.019   2
   5  13  -3 54.6374 185.378   3
   5 -13  -2 2514.57 621.010   2
   5  13  -2 3146.96 705.113   3
  -5 -13   2 3571.88 740.812   2
   5 -13  -1 318.880 348.410   2
   5  13  -1-66.7085 134.897   3
  -5 -13   1 687.526 413.963   2
   5  13   0 1159.60 459.239   3
   5 -13   0 1461.55 454.793   2
  -5 -13   0 1190.91 440.746   2
   5  13   1-51.5289 121.017   3
  -5 -13  -1 159.663 222.430   2
   5 -13   1 89.8305 199.399   2
   5  13   2-114.598 154.255   3
  -5 -13  -2 70.3093 127.864   2
   5 -13   2 340.249 278.684   2
  -5 -13  -3-81.9799 106.876   2
   5 -13   3-62.5512 201.548   2
  -5 -13  -4 574.696 278.803   2
  -5 -13  -5 69.3215 155.790   2
  -5 -13  -6 632.500 322.387   2
  -5 -13  -7 15.2677 85.0768   2
  -5 -13  -8-58.9698 125.408   2
  -5 -13  -9-93.9673 75.3837   2
  -5 -13 -10 1120.99 450.816   2
   5 -14  -4 692.999 348.605   2
   5 -14  -3 162.122 122.207   2
  -5 -14   3 1227.93 473.189   2
   5 -14  -2 1014.22 423.702   2
  -5 -14   2 888.147 413.591   2
   5 -14  -1 809.697 375.262   2
  -5 -14   1 558.788 369.034   2
   5 -14   0 721.583 352.522   2
  -5 -14   0 563.000 347.498   2
  -5 -14  -1-599.137 326.453   2
   5 -14   1 910.425 424.600   2
  -5 -14  -2-53.9181 94.6219   2
   5 -14   2 38.6871 188.491   2
  -5 -14  -3 430.575 352.640   2
   5 -14   3-23.4943 175.420   2
  -5 -14  -4 1079.52 479.056   2
   6   0 -27-278.760 224.333   2
   6   0 -26 1260.35 438.870   2
   6   0 -25-50.1159 165.293   2
   6   0 -24 4221.25 761.841   2
   6   0 -23 5.93612 95.2115   2
   6   0 -22 1352.06 428.856   2
   6   0 -21-138.475 187.140   2
   6   0 -20 102.897 153.391   2
   6   0 -19 727.295 304.535   2
   6   0 -18 2171.80 451.297   2
  -6   0  18 2073.37 357.490   4
   6   0 -17 488.550 277.137   2
   6   0 -16 145.770 94.5633   2
   6   0 -15 622.654 257.555   2
   6   0 -14 566.937 204.306   2
   6   0 -13 52.5997 50.9586   2
  -6   0  12 6928.67 663.366   2
   6   0 -12 6347.73 616.372   2
   6   0 -11 213.423 179.879   2
  -6   0  11 205.282 145.355   2
   6   0 -10 40480.3 1596.86   6
  -6   0  10 43251.0 1498.24   2
   6   0 -10 42648.2 1475.21   2
  -6   0  10 41290.9 1632.40   6
   6   0  -9 283.242 145.631   2
  -6   0   9 46.7879 113.738   6
  -6   0   9 50.9543 46.4602   1
  -6   0   9-37.4445 45.3154   2
   6   0  -9 418.890 175.696   6
  -6   0   8 30704.9 1386.57   6
  -6   0   8 26007.5 779.223   1
  -6   0   8 27637.6 1071.38   2
   6   0  -8 28740.3 1070.63   2
   6   0  -8 28475.1 1308.97   6
   6   0  -7-2.73498 33.6662   2
   6   0  -7 89.4904 97.3086   6
  -6   0   7 29.7580 57.4255   2
  -6   0   7-13.4431 54.8495   1
   6   0  -6 8789.62 713.983   6
  -6   0   6 8979.70 527.345   1
  -6   0   6 9207.97 515.303   2
   6   0  -6 8878.13 505.568   2
   6   0  -5 17.2859 46.9877   2
  -6   0   5 67.9439 70.7256   1
  -6   0   5 30.5426 43.3387   2
  -6   0   4 78720.8 1743.89   1
  -6   0   4 77147.8 1219.77   2
   6   0  -4 76178.7 1206.16   2
  -6   0   3 24.8787 22.5341   2
  -6   0   3 345.450 148.318   1
  -6   0   2 136757. 2506.21   1
  -6   0   1 207.462 150.444   1
  -6   0   0 51341.5 1631.50   1
  -6   0  -1-47.7341 100.398   6
   6   0   1 25.3553 23.7027   3
  -6   0  -1 117.184 98.4195   1
  -6   0  -2 98.0362 84.5717   6
  -6   0  -2 117.455 86.9375   1
  -6   0  -3-33.9960 112.716   1
  -6   0  -3 31.0483 95.9606   5
  -6   0  -3-125.820 99.8769   6
  -6   0  -4 4153.18 477.999   5
  -6   0  -4 4540.40 536.674   1
   6   0   4 4036.15 220.896   2
  -6   0  -4 4098.38 477.209   6
   6   0   5 11.4479 33.2075   2
  -6   0  -5-20.1520 80.4747   5
  -6   0  -6 6856.13 614.075   6
   6   0   6 6934.42 409.492   2
  -6   0  -6 7097.58 643.300   5
  -6   0  -7 313.952 171.977   6
  -6   0  -7 389.545 192.937   5
  -6   0  -7 247.744 92.3559   3
  -6   0  -7 11.8803 35.8171   2
   6   0   7 16.3561 36.6534   2
  -6   0  -8 188.140 92.3203   5
  -6   0  -8 172.665 67.5756   3
  -6   0  -8 193.647 55.4853   2
   6   0   8 206.345 86.6613   2
  -6   0  -9 17.0221 51.6374   3
   6   0   9-11.4259 65.6584   2
  -6   0  -9 24.1822 71.3165   2
   6   0  10 6071.07 541.694   2
  -6   0 -10 5801.50 468.832   3
  -6   0 -10 6418.29 554.308   2
  -6   0 -11 260.000 139.687   2
  -6   0 -11 15.7695 53.5667   3
   6   0  11 61.4164 95.4132   2
   6   0  12 15963.1 977.624   2
  -6   0 -12 16552.7 872.194   3
  -6   0 -12 15953.6 956.761   2
  -6   0 -13 197.709 164.847   2
   6   0  13 259.520 152.651   2
  -6   0 -14 7331.48 704.587   2
  -6   0 -15 57.0487 88.0821   2
  -6   0 -16 8372.46 993.625   4
  -6   0 -16 7704.21 809.104   2
  -6   0 -17-38.4322 71.8193   2
  -6   0 -17 141.987 240.843   4
  -6   0 -18 47.3664 56.2723   6
  -6   0 -18 16.4069 122.573   4
  -6   0 -18-150.508 230.072   2
  -6   0 -19-20.7461 100.614   4
  -6   0 -19 27.8655 72.4249   2
  -6   0 -20 1797.91 501.541   4
  -6   0 -20 1339.42 370.995   2
  -6   0 -21 609.097 359.821   4
  -6   0 -21-404.373 222.266   2
  -6   0 -22 458.898 243.855   4
  -6   0 -22 349.978 240.588   2
  -6   0 -23 48.0996 134.445   4
  -6   0 -23 95.3155 190.511   2
  -6   0 -24-71.5129 141.492   4
  -6   0 -25-368.963 263.642   4
   6  -1 -27 298.122 279.536   2
   6   1 -27 185.093 197.487   2
   6   1 -26 218.445 234.152   2
   6  -1 -26 23.5445 113.151   2
   6   1 -25 262.968 142.830   2
   6  -1 -25-118.318 198.275   2
   6  -1 -24 1508.81 444.188   2
   6   1 -24 1225.60 416.706   2
   6  -1 -23 144.669 134.658   2
   6   1 -23 791.245 345.623   2
   6  -1 -22 1466.58 432.067   2
   6   1 -22 1532.40 447.859   2
   6   1 -21 493.973 259.932   2
   6  -1 -21 651.249 275.327   2
   6  -1 -20 70.1312 102.608   2
   6   1 -20 42.6189 163.579   2
   6  -1 -19 3051.71 552.621   2
   6   1 -19 3393.82 579.514   2
   6  -1 -18 1504.85 337.663   2
  -6  -1  18 1515.73 265.747   4
   6   1 -18 1315.94 369.697   2
  -6  -1  17 4129.21 440.165   4
   6   1 -17 5088.16 660.286   2
   6  -1 -17 4795.44 652.180   2
   6  -1 -16 1028.99 309.843   2
  -6  -1  16 775.149 184.775   4
   6   1 -16 1045.99 314.247   2
   6   1 -15 15968.5 1106.52   2
   6  -1 -15 14312.2 1054.03   2
   6  -1 -14 1080.76 277.410   2
   6   1 -14 1223.96 301.683   2
   6  -1 -13 305.144 156.967   2
   6   1 -13 282.282 167.261   2
  -6   1  12 3928.00 234.676   1
  -6  -1  12 4332.72 530.173   2
  -6   1  12 4526.09 538.506   2
  -6  -1  12 4861.98 576.667   6
   6   1 -12 5289.96 559.979   2
   6  -1 -12 4586.23 537.720   2
  -6   1  11 7868.76 378.525   1
  -6   1  11 6354.14 603.086   2
  -6  -1  11 6713.00 631.196   2
   6   1 -11 7966.18 675.963   2
   6  -1 -11 8256.95 689.322   2
  -6  -1  11 8755.64 752.003   6
  -6  -1  10 15040.0 887.091   2
  -6   1  10 14060.8 868.122   2
   6   1 -10 18348.2 968.574   2
   6  -1 -10 18711.2 970.890   2
  -6  -1  10 18757.0 1085.94   6
  -6   1  10 17988.6 630.624   1
  -6  -1   9 2441.79 346.497   2
  -6   1   9 2119.08 316.172   2
   6   1  -9 2741.71 352.384   2
   6  -1  -9 2907.50 357.806   2
  -6   1   9 2540.32 257.744   1
  -6  -1   9 2523.57 400.899   6
  -6   1   8 6287.26 513.657   2
   6   1  -8 6412.11 502.698   2
   6  -1  -8 6002.51 492.915   2
   6  -1  -8 6576.42 634.570   6
  -6  -1   8 7503.52 675.415   6
  -6   1   8 6891.52 441.496   1
  -6  -1   8 6228.03 511.040   2
  -6  -1   7 319.619 160.934   6
  -6   1   7 352.759 111.198   2
  -6  -1   7 472.085 140.653   2
  -6   1   7 294.924 97.2608   1
   6   1  -7 406.817 128.476   2
   6  -1  -7 313.660 112.687   2
   6  -1  -7 762.852 215.567   6
  -6  -1   6 2934.14 306.988   2
  -6   1   6 2687.77 289.436   2
   6  -1  -6 2871.99 412.826   6
   6  -1  -6 2524.95 282.595   2
  -6   1   6 2842.60 315.525   1
   6  -1  -5 654.933 135.703   2
  -6   1   5 750.776 187.823   5
   6  -1  -5 573.440 190.163   6
  -6   1   5 913.544 155.145   2
  -6  -1   5 669.001 136.282   2
  -6   1   5 508.861 133.438   1
  -6  -1   4 12215.4 496.366   2
   6  -1  -4 12626.4 857.855   6
   6  -1  -4 11974.9 509.175   2
  -6   1   4 11718.1 502.206   2
  -6   1   4 11481.9 678.251   1
   6  -1  -3 302.472 74.9486   2
   6  -1  -3 730.792 217.426   6
  -6  -1   3 396.570 79.9816   2
  -6   1   3 163.773 63.3992   1
   6   1  -2 15190.3 794.887   1
  -6  -1   2 13583.9 355.755   2
   6  -1  -2 16280.2 953.112   6
  -6  -1   2 14122.5 781.620   1
   6  -1  -2 13885.0 396.643   2
  -6   1   2 14736.0 822.299   1
   6   1  -1 121.247 74.4931   1
  -6   1   1 142.208 72.5538   1
  -6  -1   1 129.767 48.9801   1
  -6   1   0 4617.10 503.751   6
  -6  -1   0 3728.98 430.184   1
   6   1   0 5481.95 502.875   1
  -6   1   0 3082.70 400.395   1
   6   1   1 52.7155 49.7141   1
  -6  -1  -1 90.2764 42.3375   1
   6   1   1 153.765 81.2749   3
  -6   1  -1 111.199 76.6068   1
  -6   1  -1 120.162 121.150   6
  -6  -1  -1-34.4287 95.3256   6
  -6   1  -2 4483.80 516.730   1
  -6  -1  -2 4560.72 498.703   5
   6   1   2 4579.68 497.027   1
  -6  -1  -2 4803.77 525.741   1
   6   1   2 5020.98 357.347   3
  -6   1  -2 4308.50 484.002   6
  -6   1  -3 14252.9 934.194   1
   6  -1   3 13191.2 382.107   2
   6   1   3 14709.7 918.833   1
  -6  -1  -3 15279.5 962.822   1
  -6  -1  -3 12574.9 324.328   2
  -6  -1  -3 15395.5 934.471   5
  -6   1  -3 15189.0 893.537   6
  -6   1  -4 11203.3 846.045   1
  -6  -1  -4 11598.3 811.887   5
  -6   1  -4 12145.8 854.150   5
  -6  -1  -4 11656.1 867.758   1
   6  -1   4 11218.0 431.876   2
  -6  -1  -4 11386.7 404.516   2
  -6   1  -4 11727.6 784.106   6
   6   1   4 11352.1 828.763   1
   6  -1   5 19800.5 665.202   2
  -6  -1  -5 21247.7 1115.44   5
  -6   1  -5 20259.8 1104.05   5
  -6   1  -5 19716.8 1029.71   6
   6   1   5 20391.0 640.408   2
  -6  -1  -5 20741.6 643.164   2
   6   1   5 20304.2 1144.22   1
  -6  -1  -6 13651.2 889.875   5
   6  -1   6 14550.5 628.836   2
  -6  -1  -6 14316.7 601.359   2
   6   1   6 14695.4 612.748   2
  -6   1  -6 13917.6 854.404   6
   6   1   6 15626.0 1020.62   1
   6   1   7 33678.4 1538.96   1
  -6  -1  -7 30172.2 1341.91   5
   6  -1   7 29004.1 991.970   2
  -6   1  -7 29364.9 681.481   3
  -6  -1  -7 30040.3 1007.43   3
   6   1   7 31574.2 999.281   2
  -6  -1  -7 30635.2 973.224   2
  -6   1  -7 28813.9 1237.44   6
  -6  -1  -8 4040.09 490.680   5
   6  -1   8 3507.44 364.055   2
  -6   1  -8 3725.23 275.776   3
  -6  -1  -8 3825.35 380.064   3
   6   1   8 3461.02 360.856   2
  -6  -1  -8 3433.90 354.618   2
  -6   1  -8 3479.15 434.989   6
   6   1   8 3512.31 510.458   1
  -6  -1  -9 3174.13 450.033   5
   6  -1   9 3487.19 391.757   2
  -6   1  -9 3543.05 301.539   3
  -6  -1  -9 3897.04 401.101   3
   6   1   9 3444.98 379.026   2
  -6  -1  -9 3331.36 366.058   2
  -6   1  -9 2964.48 394.134   6
   6   1   9 3311.49 506.240   1
  -6  -1 -10 1560.27 264.165   2
  -6  -1 -10 1738.81 332.972   5
   6   1  10 2212.75 443.021   1
  -6  -1 -10 1162.38 226.444   3
  -6   1 -10 1799.33 309.278   6
   6   1  10 1474.34 266.574   2
   6  -1  10 2045.44 320.701   2
  -6  -1 -11 503.462 177.915   2
   6   1  11 711.342 192.882   2
   6  -1  11 579.865 184.862   2
  -6  -1 -11 602.609 178.715   3
   6   1  11 405.175 208.155   1
  -6   1 -11 613.710 190.762   6
   6  -1  12 5717.80 590.020   2
   6   1  12 5459.29 567.513   2
  -6  -1 -12 6144.51 570.684   3
  -6  -1 -12 5960.85 581.600   2
   6   1  12 6718.22 783.025   1
  -6   1 -12 6074.01 574.467   6
   6   1  13-61.5050 90.9097   2
  -6  -1 -13 62.9025 79.8024   4
  -6  -1 -13 16.2998 36.5347   3
  -6  -1 -13-63.0864 110.300   2
   6  -1  13 180.374 129.695   2
  -6   1 -13 92.7790 80.1130   6
  -6  -1 -14 675.028 267.233   4
  -6  -1 -14 664.045 202.372   3
  -6  -1 -14 803.771 240.980   2
  -6   1 -14 633.682 186.522   6
  -6   1 -15 569.744 177.536   6
  -6  -1 -15 527.554 194.566   4
  -6  -1 -15 794.320 250.245   2
  -6  -1 -16-69.0627 87.2575   2
  -6  -1 -16 161.915 226.261   4
  -6   1 -16 179.878 112.392   6
  -6  -1 -17 6116.07 893.593   4
  -6   1 -17 5248.45 521.709   6
  -6   1 -17 5312.55 813.458   4
  -6  -1 -17 5672.72 720.581   2
  -6  -1 -18 2736.71 608.238   4
  -6   1 -18 1988.39 496.124   4
  -6  -1 -18 2541.35 488.075   2
  -6   1 -19 3058.65 653.971   4
  -6  -1 -19 2876.82 628.114   4
  -6  -1 -19 2271.28 510.159   2
  -6  -1 -20 2055.97 494.030   2
  -6   1 -20 2105.49 553.489   4
  -6  -1 -20 2628.03 618.110   4
  -6   1 -21 461.465 329.019   4
  -6  -1 -21 136.898 162.191   4
  -6  -1 -21 9.91546 79.9196   2
  -6  -1 -22 97.6718 118.504   2
  -6   1 -22-432.139 301.502   4
  -6  -1 -22 390.801 343.946   4
  -6   1 -23 157.205 155.376   4
  -6  -1 -23 103.339 158.320   4
  -6  -1 -23 52.1765 73.1628   2
  -6   1 -24 22.9440 186.459   4
  -6  -1 -24 248.062 220.590   4
  -6  -1 -24 296.995 225.577   2
  -6   1 -25 338.305 275.941   4
   6  -2 -27-549.719 304.096   2
   6   2 -27 289.482 181.220   2
   6  -2 -26 822.519 371.372   2
   6   2 -26-6.53985 87.8340   2
   6  -2 -25 1067.24 437.276   2
   6   2 -25 26.0776 121.409   2
   6  -2 -24 397.034 221.925   2
   6   2 -24 31.8676 116.962   2
   6  -2 -23 2203.86 523.314   2
   6   2 -23 2799.75 618.719   2
   6  -2 -22 267.915 229.133   2
   6   2 -22 397.789 248.790   2
   6  -2 -21 1488.47 406.931   2
   6   2 -21 1083.41 367.004   2
   6  -2 -20 208.064 208.314   2
  -6   2  20-40.5664 71.2502   5
   6   2 -20 91.2196 74.6136   2
  -6   2  19 2229.71 314.627   5
   6  -2 -19 2279.60 486.370   2
   6   2 -19 2177.60 459.903   2
  -6   2  18 3455.77 406.508   5
   6  -2 -18 3827.60 616.420   2
   6   2 -18 3856.68 609.515   2
   6  -2 -17 1633.40 395.258   2
  -6  -2  17 1787.76 235.704   4
  -6   2  17 1806.88 288.735   5
  -6   2  17 1849.19 140.338   1
   6   2 -17 1818.54 411.961   2
  -6   2  16 7577.76 603.432   5
  -6  -2  16 6829.64 455.780   4
   6   2 -16 7457.53 795.975   2
   6  -2 -16 8420.88 842.730   2
  -6   2  15 11800.3 757.321   5
  -6  -2  15 11718.0 591.263   4
   6   2 -15 13271.4 1040.51   2
   6  -2 -15 10790.9 941.962   2
  -6   2  14 2929.30 382.967   5
   6   2 -14 2894.83 456.110   2
   6  -2 -14 3380.96 503.380   2
   6  -2 -13 107.108 58.5421   2
  -6   2  13 176.547 76.8075   5
  -6  -2  13-47.7932 65.9817   6
   6   2 -13 139.508 129.522   2
  -6  -2  12 2127.40 374.936   6
  -6   2  12 1481.73 274.950   5
   6  -2 -12 1934.36 349.339   2
   6   2 -12 1807.32 350.819   2
  -6  -2  11 15944.6 1022.92   6
   6  -2 -11 17165.2 1019.87   2
  -6  -2  11 15001.0 958.120   2
  -6   2  11 15400.3 878.967   5
  -6   2  11 16578.0 1001.14   2
  -6  -2  10 2412.84 393.453   6
  -6   2  10 1172.76 270.942   2
   6  -2 -10 1340.16 287.281   2
  -6   2  10 1793.91 301.498   5
  -6  -2  10 1469.95 291.709   2
  -6   2   9 20644.7 1016.66   5
  -6  -2   9 22005.0 1164.71   6
   6  -2  -9 22538.1 1048.16   2
  -6   2   9 21777.2 1048.72   2
  -6  -2   9 22255.0 1065.84   2
  -6   2   8 73.2148 74.9652   5
  -6  -2   8 105.959 82.0676   2
  -6   2   8 117.231 102.307   2
   6  -2  -8 77.2889 116.119   2
  -6  -2   8 134.840 140.614   6
  -6   2   7 10053.4 713.744   5
  -6  -2   7 8862.13 599.353   2
   6   2  -7 9276.14 493.279   1
   6  -2  -7 9141.86 596.946   2
  -6   2   7 9408.55 623.530   2
  -6  -2   7 8983.08 740.161   6
   6  -2  -6 1402.94 297.634   6
  -6   2   6 1448.85 289.683   5
   6  -2  -6 1286.64 216.340   2
  -6  -2   6 1605.49 238.895   2
  -6   2   6 1315.39 221.915   2
   6   2  -6 1439.49 209.437   1
  -6  -2   6 1611.41 319.560   6
  -6   2   5-64.5963 107.773   5
   6  -2  -5 124.132 77.4209   2
  -6   2   5 93.7690 57.2840   2
   6   2  -5 23.8263 52.4629   1
  -6  -2   5 37.2555 45.8921   2
   6  -2  -5 197.894 138.512   6
  -6  -2   4 434.549 107.790   2
  -6   2   4 696.452 218.791   5
   6   2  -4 294.138 107.322   1
   6  -2  -4 417.561 99.3863   2
   6  -2  -4 509.527 186.705   6
   6   2  -3 11428.6 661.657   1
   6  -2  -3 10504.2 496.947   2
  -6  -2   3 10838.9 483.592   2
   6  -2  -3 11801.4 827.516   6
   6   2  -2 914.034 209.311   1
  -6   2   2 917.546 208.346   6
  -6  -2   2 658.002 110.578   2
   6  -2  -2 695.032 113.093   2
   6  -2  -2 785.181 216.964   6
   6   2  -1 11251.1 716.646   1
   6  -2  -1 10475.0 428.899   2
  -6  -2   1 10906.1 411.447   2
   6  -2  -1 10964.3 791.423   6
  -6   2   1 10830.6 790.950   6
  -6   2   0 79.5830 109.906   6
   6   2   0 74.7410 85.3002   1
  -6  -2   0 54.3407 35.1501   2
   6   2   0-109.322 67.1055   3
   6  -2   0 47.3522 48.8590   6
  -6   2  -1 741.230 193.599   6
   6   2   1 1033.11 225.186   1
  -6  -2  -1 732.907 97.2548   2
   6   2   1 958.934 184.965   3
   6  -2   1 709.068 189.163   6
  -6   2  -1 742.216 204.003   1
   6  -2   1 814.984 117.011   2
  -6   2  -2 857.381 210.673   6
   6   2   2 650.170 190.921   1
  -6   2  -2 776.522 215.911   1
  -6  -2  -2 907.500 116.207   2
   6   2   2 826.955 174.658   3
   6  -2   2 754.048 115.745   2
   6   2   3 20605.4 1090.62   1
  -6  -2  -3 20218.5 601.827   2
  -6   2  -3 20214.7 1124.01   1
   6   2   3 19040.6 833.228   3
   6  -2   3 17578.4 609.089   2
  -6   2  -3 19327.5 1017.43   6
  -6  -2  -4 9003.59 437.395   2
   6   2   4 8942.35 748.808   1
   6  -2   4 8904.79 466.009   2
  -6   2  -4 9922.33 720.014   6
  -6  -2  -5 17140.7 662.359   2
   6   2   5 19770.6 1138.67   1
  -6  -2  -5 16120.6 984.021   5
  -6   2  -5 16032.3 914.581   6
   6  -2   5 15940.6 677.186   2
   6   2   6 18513.7 1135.09   1
   6   2   6 17704.3 731.909   2
  -6  -2  -6 17836.9 1025.72   5
   6  -2   6 16976.3 751.112   2
  -6   2  -6 19715.3 1008.75   6
  -6  -2  -6 18983.8 759.565   2
   6   2   7 16692.7 773.302   2
   6   2   7 20050.9 1200.47   1
  -6   2  -7 18082.1 965.799   6
  -6  -2  -7 15989.5 991.083   5
  -6  -2  -7 17168.1 777.569   2
  -6  -2  -7 18021.8 882.727   3
   6  -2   7 16460.2 794.189   2
   6   2   8 10610.4 890.732   1
  -6  -2  -8 9572.73 755.705   5
  -6   2  -8 9756.63 380.878   3
  -6  -2  -8 8864.76 642.833   3
  -6  -2  -8 10436.5 643.397   2
  -6   2  -8 10205.6 721.760   6
   6   2   8 10434.4 649.891   2
   6  -2   8 9844.62 650.621   2
  -6   2  -9 299.842 136.021   6
   6  -2   9 273.005 122.637   2
  -6  -2  -9 155.200 103.610   2
  -6  -2  -9 187.963 145.934   5
   6   2   9 176.956 87.4568   2
  -6  -2  -9 264.790 122.286   3
   6   2   9 102.399 101.360   1
   6  -2  10 135.875 90.1279   2
  -6  -2 -10 93.5161 65.3960   5
  -6   2 -10 291.950 135.531   6
   6   2  10 323.735 119.539   2
  -6  -2 -10 276.277 76.3060   2
  -6  -2 -10 128.235 45.7453   3
   6   2  10 616.918 225.511   1
   6  -2  11 4233.84 500.099   2
  -6  -2 -11 4414.62 529.957   5
   6   2  11 3951.27 588.234   1
  -6   2 -11 4212.65 461.393   6
  -6  -2 -11 4819.39 676.846   4
  -6  -2 -11 4047.52 480.532   3
   6   2  11 4014.13 481.323   2
  -6  -2 -11 4768.82 505.004   2
  -6   2 -12-21.0571 54.0134   6
  -6  -2 -12 72.9114 78.6254   2
   6   2  12-82.4813 81.9563   2
  -6  -2 -12-30.0131 90.9333   4
  -6  -2 -12 269.361 165.924   3
   6   2  12 64.4467 103.234   1
   6  -2  12 25.1353 77.3047   2
  -6   2 -13 534.983 156.890   6
   6   2  13 608.167 202.916   2
  -6  -2 -13 509.928 267.703   4
  -6  -2 -13 523.503 194.820   2
   6   2  13 961.007 314.566   1
  -6  -2 -14 149.736 96.0397   2
  -6   2 -14 34.5385 46.5314   6
  -6  -2 -14 285.711 184.199   4
   6   2  14-63.0975 152.235   1
  -6   2 -15 329.260 128.061   6
  -6  -2 -15 300.713 248.475   4
   6   2  15 422.262 178.300   1
  -6  -2 -15 240.855 145.328   2
  -6  -2 -16 2826.91 493.328   2
   6   2  16 3340.34 608.840   1
  -6  -2 -16 2758.16 583.299   4
  -6   2 -16 2592.83 353.080   6
  -6  -2 -17 2086.25 426.170   2
  -6  -2 -17 2258.88 533.355   4
   6   2  17 2522.14 553.113   1
  -6  -2 -18 2620.58 610.410   4
  -6  -2 -18 2932.46 550.149   2
  -6   2 -19 3333.37 665.163   4
  -6  -2 -19 3787.37 743.509   4
  -6  -2 -19 2704.92 519.590   2
  -6   2 -20 252.341 207.276   4
  -6  -2 -20 408.208 306.777   4
  -6  -2 -20 253.810 172.766   2
  -6  -2 -21 835.849 331.726   2
  -6   2 -21 903.399 371.824   4
  -6  -2 -21 1083.15 467.531   4
  -6   2 -22 66.3940 192.657   4
  -6  -2 -22-126.338 180.138   4
  -6  -2 -22-18.0316 104.871   2
  -6   2 -23 116.817 163.532   4
  -6  -2 -23-151.259 235.309   4
  -6  -2 -23 148.032 158.774   2
  -6   2 -24 330.688 287.788   4
  -6  -2 -24 378.597 337.669   4
  -6  -2 -24-155.860 158.096   2
  -6   2 -25 148.931 79.5286   4
   6  -3 -27 441.686 285.199   2
   6  -3 -26 113.698 127.995   2
   6  -3 -25 1688.14 508.668   2
   6  -3 -24 570.923 316.505   2
   6  -3 -23 2271.45 578.066   2
   6  -3 -22 365.131 292.754   2
   6  -3 -21 996.103 327.833   2
   6  -3 -20-123.138 201.926   2
   6  -3 -19 183.602 177.440   2
  -6   3  19 47.9031 50.3621   5
  -6   3  19 16.0019 53.3089   1
  -6   3  18 572.984 160.512   5
   6  -3 -18 450.420 265.343   2
  -6   3  17 34.6171 50.6858   5
   6  -3 -17 110.344 115.604   2
  -6   3  16 343.682 162.028   5
   6  -3 -16 500.827 248.974   2
  -6   3  15 1016.28 225.239   5
   6  -3 -15 1157.01 319.681   2
  -6  -3  15 1276.49 313.053   6
  -6   3  14 183.213 121.079   5
   6  -3 -14 293.000 155.253   2
  -6  -3  14 186.472 158.204   6
  -6  -3  13 147.090 79.0620   6
  -6   3  13 424.587 137.557   5
   6  -3 -13 308.618 111.483   2
  -6  -3  13 298.869 63.0041   4
  -6  -3  12 117.398 109.515   6
  -6   3  12 100.994 114.032   5
   6  -3 -12 47.0696 94.9288   2
   6  -3 -11 4972.54 561.734   2
  -6   3  11 5321.03 504.609   5
  -6   3  11 5679.29 599.638   2
  -6  -3  11 5454.17 593.472   2
  -6  -3  11 5612.88 601.146   6
  -6   3  10 1638.72 293.298   5
  -6   3  10 1634.32 319.778   2
  -6  -3  10 1211.28 316.318   6
   6   3 -10 1815.81 183.016   1
   6  -3 -10 1355.98 287.954   2
  -6  -3  10 1918.51 344.858   2
  -6   3   9 17465.2 977.606   2
  -6   3   9 17082.4 922.125   5
   6  -3  -9 17647.2 966.406   2
  -6  -3   9 17829.0 1051.89   6
  -6  -3   9 17711.4 990.831   2
   6   3  -9 15917.2 600.625   1
  -6  -3   8 358.045 170.004   6
  -6  -3   8 169.740 93.5648   2
  -6   3   8 302.659 150.794   5
   6   3  -8 440.383 122.066   1
  -6   3   8 401.856 148.980   2
   6  -3  -8 193.993 103.377   2
  -6   3   7 15274.6 847.903   2
  -6   3   7 15178.4 895.401   5
   6   3  -7 14497.3 656.258   1
   6  -3  -7 15438.1 830.707   2
  -6  -3   7 14565.6 820.065   2
  -6  -3   7 14919.2 967.201   6
  -6   3   6 2012.53 289.859   2
  -6   3   6 1591.70 308.955   5
   6  -3  -6 1696.19 262.242   2
   6   3  -6 1818.58 242.899   1
  -6  -3   6 2234.29 301.585   2
  -6  -3   6 2243.86 373.331   6
  -6  -3   5-37.5647 103.522   6
  -6   3   5 19.8705 82.7788   5
   6  -3  -5 38.9470 62.4432   2
   6   3  -5 83.8466 63.9703   1
  -6  -3   5 13.7694 34.0536   2
  -6   3   4 3429.54 434.289   5
   6  -3  -4 2570.43 296.642   2
  -6  -3   4 2671.30 303.452   2
   6  -3  -4 2443.60 404.099   6
   6   3  -4 3293.45 361.478   1
   6  -3  -3 26611.1 1287.33   6
   6   3  -3 27580.6 1080.43   1
   6  -3  -3 27710.2 938.985   2
  -6   3   3 29342.5 1276.18   5
  -6  -3   3 27467.0 927.081   2
   6   3  -2 2476.67 341.818   1
   6  -3  -2 1771.15 237.256   2
   6  -3  -2 1995.29 352.837   6
   6  -3  -1 21544.9 1130.52   5
   6   3  -1 22687.1 1057.10   1
   6  -3  -1 20858.7 588.449   3
   6  -3  -1 21826.1 786.511   2
   6  -3  -1 22180.6 1145.52   6
   6   3   0 520.353 195.263   1
   6  -3   0 119.527 77.3434   5
   6  -3   0 169.290 63.5537   2
  -6  -3   0 225.226 82.2800   2
   6   3   0 358.926 137.103   3
   6  -3   0 154.812 87.3289   6
  -6  -3  -1 110.452 65.2749   2
   6   3   1 215.626 87.9369   3
   6   3   1 241.667 135.702   1
   6  -3   1 139.816 86.6856   6
  -6   3  -2 259.565 82.8407   6
  -6  -3  -2 188.301 77.6815   2
   6  -3   2 5.53397 57.1217   6
   6   3   2 275.838 128.190   3
   6   3   2 67.0576 95.4371   1
   6  -3   3 4374.88 498.514   6
   6   3   3 4882.03 548.124   1
  -6  -3  -3 4667.91 361.937   2
   6   3   3 5528.76 500.990   3
  -6   3  -3 5089.91 521.082   6
  -6   3  -4-0.45634 64.4823   6
   6  -3   4 68.2556 41.7240   2
   6   3   4-5.97914 99.8034   1
  -6  -3  -4 118.981 68.1512   2
   6  -3   5 1033.64 193.878   2
  -6   3  -5 774.686 160.369   6
   6   3   5 1427.77 312.006   1
  -6  -3  -5 1159.34 195.224   2
   6  -3   6 245.290 105.909   2
  -6   3  -6 116.179 69.9173   6
   6   3   6 499.726 227.540   1
  -6  -3  -6 154.059 66.0590   2
  -6  -3  -7-77.9374 107.693   5
   6  -3   7 13.1718 36.9693   2
   6   3   7 65.3602 81.0450   1
  -6   3  -7 137.456 65.4436   6
  -6  -3  -7-21.8356 68.6914   2
  -6  -3  -7-34.7066 149.315   4
  -6   3  -8-10.3081 43.3475   6
   6  -3   8-32.0183 59.6442   2
   6   3   8 77.4335 104.424   1
  -6  -3  -8 157.711 176.450   4
  -6  -3  -8-15.6173 54.6544   2
  -6  -3  -8-3.10628 68.0632   5
  -6  -3  -8 57.3932 63.1017   3
   6   3   8 110.066 101.964   2
  -6  -3  -9 6249.59 558.709   2
  -6   3  -9 5457.03 522.275   6
  -6  -3  -9 6287.37 623.963   5
  -6  -3  -9 5740.62 742.022   4
  -6  -3  -9 6265.11 607.299   3
   6   3   9 5707.92 537.572   2
   6  -3   9 5227.68 531.982   2
   6   3   9 6556.86 748.981   1
  -6   3 -10 505.383 157.979   6
   6   3  10 498.474 246.604   1
   6  -3  10 215.817 91.8702   2
  -6  -3 -10 366.946 159.237   2
  -6  -3 -10 254.245 173.741   4
   6   3  10 372.937 153.685   2
  -6  -3 -10 563.593 201.816   3
  -6  -3 -10 502.368 189.008   5
  -6  -3 -11 11281.2 819.091   2
   6   3  11 11939.5 1046.62   1
  -6  -3 -11 10775.3 812.582   5
  -6  -3 -11 13393.3 1160.78   4
  -6   3 -11 10989.5 728.479   6
   6  -3  11 9485.97 782.936   2
   6   3  11 10822.9 813.040   2
  -6  -3 -12 2513.98 394.972   5
  -6   3 -12 2157.17 319.217   6
   6  -3  12 2208.89 395.092   2
  -6  -3 -12 2241.32 394.329   2
  -6  -3 -12 2304.28 516.082   4
   6   3  12 2756.43 513.191   1
   6   3  12 2471.44 408.894   2
   6   3  13 3912.62 633.608   1
  -6  -3 -13 3798.82 484.252   5
  -6  -3 -13 4015.15 668.796   4
  -6  -3 -13 3665.65 509.718   2
  -6   3 -13 3886.97 417.165   6
  -6   3 -14 108.790 132.171   6
  -6  -3 -14 51.4846 94.3737   2
  -6  -3 -14 53.0664 143.194   4
   6   3  14 170.575 158.121   1
  -6  -3 -15 2621.20 454.717   2
  -6  -3 -15 3644.70 666.844   4
   6   3  15 3317.22 608.010   1
  -6  -3 -16-113.248 105.933   2
  -6  -3 -16 315.004 218.627   4
   6   3  16 155.033 152.969   1
  -6  -3 -17-172.409 200.919   2
  -6  -3 -17 27.9348 139.528   4
   6   3  17-119.740 201.723   1
  -6  -3 -18 306.293 163.417   2
   6   3  18-60.5561 143.639   1
  -6  -3 -19 1318.51 368.757   2
   6   3  19 1326.61 429.186   1
  -6  -3 -19 2148.53 578.016   4
  -6  -3 -20 494.588 235.003   2
  -6   3 -20 382.280 237.519   4
  -6  -3 -20 408.024 350.857   4
   6   3  20 975.950 416.498   1
  -6  -3 -21 1415.36 413.666   2
  -6   3 -21 1308.99 431.717   4
  -6  -3 -21 1291.16 494.652   4
  -6  -3 -22-380.636 224.146   2
  -6  -3 -22-23.3121 182.208   4
  -6  -3 -23 78.9556 83.1007   2
  -6   3 -23-7.30042 114.922   4
  -6  -3 -23-104.608 229.820   4
  -6   3 -24 178.617 215.409   4
  -6  -3 -24 398.333 246.212   2
  -6   3 -25 983.831 419.988   4
   6  -4 -26 251.112 254.597   2
   6  -4 -25 447.599 268.419   2
   6  -4 -24 498.185 267.652   2
   6  -4 -23 1374.54 452.824   2
   6  -4 -22 1009.97 347.665   2
   6  -4 -21 625.829 318.474   2
   6  -4 -20-8.03571 78.7441   2
   6  -4 -19 212.087 201.810   2
   6  -4 -18 7149.02 862.503   2
   6  -4 -17 1746.32 402.909   2
   6  -4 -16 9247.14 930.294   2
  -6  -4  16 8056.54 743.852   6
  -6  -4  15 67.7643 77.8053   6
   6  -4 -15-49.2309 94.2693   2
   6  -4 -14 4300.90 589.045   2
  -6  -4  14 3989.89 529.479   6
  -6  -4  13 114.935 79.5906   6
   6  -4 -13-139.876 172.466   2
   6   4 -13 48.2997 19.2142   1
   6  -4 -12 3292.44 493.747   2
   6   4 -12 2813.85 219.730   1
  -6  -4  12 2893.21 438.674   6
   6  -4 -11 4524.02 558.468   2
   6   4 -11 3534.31 274.871   1
  -6  -4  11 4585.78 546.181   6
   6  -4 -10 9830.64 793.194   2
   6   4 -10 10236.4 513.874   1
  -6  -4  10 7911.92 271.527   4
  -6  -4  10 9305.89 796.544   6
  -6   4   9 7771.48 686.873   2
   6  -4  -9 9119.14 738.676   2
  -6  -4   9 7974.34 364.462   4
   6   4  -9 7170.73 468.609   1
  -6  -4   9 9051.88 751.919   2
  -6  -4   9 9486.69 786.730   6
  -6  -4   8 629.690 125.824   4
   6   4  -8 1007.93 189.391   1
   6  -4  -8 796.276 220.813   2
  -6   4   8 818.632 217.474   2
  -6  -4   8 658.269 203.402   6
  -6  -4   8 780.291 212.135   2
  -6  -4   7 4727.15 354.707   4
   6  -4  -7 4872.48 499.589   2
   6   4  -7 4087.29 383.408   1
  -6  -4   7 4683.94 498.050   2
  -6  -4   7 4857.99 570.012   6
  -6  -4   6 26.5499 61.9087   2
   6   4  -6-77.8023 67.7434   1
   6  -4  -6-91.9749 104.177   2
   6  -4  -5-32.6768 73.4000   2
   6   4  -5-4.37286 43.7900   1
  -6  -4   5 56.2364 57.0534   2
   6  -4  -4 1941.23 343.248   5
   6   4  -4 2891.27 360.933   1
   6  -4  -4 2701.42 343.863   2
   6  -4  -3 10053.6 781.366   5
   6   4  -3 8782.45 659.005   1
   6  -4  -3 10315.7 581.368   3
   6  -4  -3 10071.3 640.218   2
  -6  -4   2 3688.83 413.678   4
   6   4  -2 5403.67 523.763   1
   6  -4  -2 3998.43 336.120   3
   6  -4  -2 4439.40 412.615   2
   6  -4  -1 5618.81 595.947   6
  -6  -4   1 5737.28 541.072   4
   6   4  -1 5394.53 541.858   1
   6  -4  -1 5242.21 352.203   3
   6  -4  -1 5037.69 438.362   2
   6  -4   0 1639.77 313.417   6
   6  -4   0 1703.23 256.211   2
  -6  -4   0 1302.07 263.392   4
   6   4   0 1553.36 298.175   3
   6   4   0 1445.26 293.672   1
  -6  -4  -1 90.7867 138.442   4
   6  -4   1-64.9927 101.547   6
   6   4   1 138.167 134.990   1
  -6  -4  -1 29.1392 41.5073   2
   6   4   1 114.493 82.0223   3
   6   4   2 2373.22 386.302   1
  -6  -4  -2 2083.71 360.929   4
   6   4   2 2097.25 336.255   3
  -6  -4  -2 2349.42 295.180   2
   6  -4   2 1532.38 304.448   6
   6  -4   3 876.506 225.599   6
  -6  -4  -3 470.988 144.892   2
  -6  -4  -3 476.825 208.610   4
   6   4   3 555.098 214.140   3
   6   4   3 230.009 165.150   1
   6   4   4 15060.9 1023.16   1
  -6  -4  -4 14435.0 1023.53   4
   6   4   4 14466.1 903.771   3
  -6  -4  -4 14085.1 753.882   2
   6  -4   4 13602.3 881.758   6
   6  -4   5 2981.34 407.518   6
   6   4   5 3063.55 475.671   1
  -6  -4  -5 3131.31 358.399   2
   6  -4   5 3531.53 407.979   2
  -6  -4  -5 3556.25 540.877   4
   6   4   6 30478.7 1534.78   1
  -6  -4  -6 28624.9 1522.94   4
  -6  -4  -6 28677.2 1136.79   2
   6  -4   6 26315.4 1156.19   2
   6   4   7 1682.91 381.840   1
  -6  -4  -7 2716.86 498.984   4
  -6   4  -7 1801.35 148.702   3
  -6  -4  -7 1615.89 279.574   2
   6  -4   7 1767.72 310.767   2
   6   4   8 14242.6 1110.58   1
  -6  -4  -8 12776.7 819.473   2
  -6  -4  -8 12496.2 1063.42   4
   6  -4   8 11349.1 803.007   2
   6  -4   9 0.26533 72.6337   2
  -6  -4  -9 30.5241 86.1993   5
  -6  -4  -9-43.8263 130.268   4
  -6  -4  -9 118.947 120.564   2
   6   4   9 15.1793 148.573   1
   6  -4  10 31.5398 77.4203   2
  -6  -4 -10 112.151 71.9338   5
  -6  -4 -10 52.5588 94.2560   4
  -6  -4 -10-57.0618 75.2415   2
   6   4  10 221.588 161.789   1
   6   4  10 244.027 130.632   2
  -6  -4 -11 3318.26 456.587   2
   6   4  11 2446.57 398.775   2
  -6  -4 -11 2383.34 387.740   5
  -6  -4 -11 2840.98 563.030   4
   6   4  11 2260.32 475.055   1
  -6  -4 -12 2428.21 403.978   5
   6   4  12 2415.16 493.610   1
  -6  -4 -12 2406.52 407.445   2
  -6  -4 -12 2960.48 587.967   4
  -6  -4 -13 2606.48 400.116   5
   6   4  13 2936.56 567.418   1
  -6  -4 -13 2356.77 427.637   2
  -6  -4 -13 2492.72 547.474   4
   6   4  14-89.7842 179.677   1
  -6  -4 -14-130.671 119.414   5
  -6  -4 -14 64.9351 63.1816   2
  -6  -4 -14 42.0411 96.1632   4
  -6  -4 -15 343.582 195.729   2
  -6  -4 -15 736.473 352.521   4
   6   4  15 455.247 276.500   1
  -6  -4 -16 1192.95 325.661   2
  -6  -4 -16 1797.80 517.652   4
   6   4  16 1241.47 368.448   1
  -6  -4 -17 253.900 208.835   2
  -6  -4 -17-138.498 155.086   4
   6   4  17 265.234 224.722   1
  -6  -4 -18 3446.93 720.156   4
   6   4  18 4385.70 758.978   1
  -6  -4 -18 4158.47 655.203   2
  -6  -4 -19 931.067 308.765   2
  -6  -4 -19 717.046 347.250   4
   6   4  19 1156.03 413.984   1
  -6  -4 -20 1541.50 423.664   2
  -6  -4 -20 1305.61 493.782   4
   6   4  20 1788.32 515.660   1
  -6   4 -21 100.306 89.6802   4
   6   4  21 49.8442 129.611   1
  -6  -4 -22 68.9882 103.756   2
  -6   4 -22-163.908 176.208   4
   6   4  22 154.452 89.8055   1
  -6  -4 -23-142.988 153.069   2
  -6   4 -23 135.597 210.845   4
  -6   4 -24-329.494 233.098   4
  -6  -4 -24 32.9613 173.971   2
   6  -5 -26 99.7162 102.189   2
   6  -5 -25 192.907 231.160   2
   6  -5 -24 665.256 359.516   2
   6  -5 -23 399.202 234.847   2
   6  -5 -22 780.532 353.993   2
   6  -5 -21-141.910 223.897   2
   6  -5 -20-135.836 147.326   2
   6  -5 -19 418.878 195.284   2
   6  -5 -18 5065.28 752.023   2
   6  -5 -17 3868.25 644.458   2
  -6  -5  17 3912.34 524.848   6
   6  -5 -16 6094.92 793.556   2
  -6  -5  16 6606.40 676.404   6
   6   5 -15 178.793 53.0957   1
   6  -5 -15 537.954 263.972   2
  -6  -5  15 486.417 202.965   6
  -6  -5  14 3542.39 500.919   6
   6  -5 -14 3947.88 600.667   2
   6  -5 -13 4.64769 98.7346   2
  -6  -5  13 106.047 88.8904   6
  -6  -5  12 5421.54 610.777   6
   6  -5 -12 6039.92 689.947   2
   6  -5 -11 130.828 135.427   2
  -6  -5  11 337.131 201.592   6
   6  -5 -10 17079.5 1109.42   2
  -6  -5  10 17580.1 1093.89   6
   6  -5  -9 402.557 207.761   2
  -6  -5   9 619.764 235.121   6
   6  -5  -8 8416.72 741.870   2
  -6  -5   8 7947.68 730.073   2
  -6  -5   7 854.168 146.439   4
  -6  -5   7 977.177 245.330   2
   6  -5  -7 1020.06 238.303   2
   6  -5  -6 114.887 52.3685   2
   6  -5  -6 23.9640 56.5734   5
  -6  -5   6 56.3691 55.4270   4
  -6  -5   6 83.3777 73.7688   2
   6  -5  -5 3.88191 47.3365   2
  -6  -5   5 31.1344 34.2786   4
  -6  -5   4 11881.3 698.158   4
   6  -5  -4 11003.0 688.135   3
   6  -5  -4 12909.8 816.492   2
   6  -5  -3 1057.90 259.047   2
  -6  -5   3 1185.23 245.085   4
   6  -5  -3 1458.46 251.558   3
  -6  -5   2 34252.8 1308.02   4
   6  -5  -2 31945.8 1084.02   3
   6  -5  -2 32766.8 1285.49   2
   6  -5  -1 2239.44 336.922   2
  -6  -5   1 1683.86 317.898   4
   6   5  -1 1627.42 357.989   3
   6  -5   0 17781.1 919.373   2
  -6  -5   0 17086.9 1006.15   4
   6   5   0 18857.1 1105.10   3
  -6  -5  -1 175.094 138.463   4
  -6  -5  -1-25.3742 79.2107   2
   6   5   1 164.459 102.181   3
  -6  -5  -2 931.339 259.105   4
  -6  -5  -2 1099.07 237.615   2
   6  -5   2 889.415 239.296   6
   6   5   2 634.284 199.393   3
   6   5   3-45.0060 143.159   1
  -6  -5  -3 80.8203 66.6917   2
   6  -5   3 39.2149 57.7591   6
  -6  -5  -3 103.314 100.636   4
   6   5   3 148.471 106.443   3
  -6  -5  -4 16744.5 1139.52   4
   6   5   4 17348.1 1143.29   1
   6   5   4 17094.3 1074.97   3
  -6  -5  -4 16882.1 917.354   2
   6  -5   4 14664.5 945.813   6
  -6  -5  -5 3567.40 558.550   4
  -6  -5  -5 2743.81 382.151   2
   6  -5   5 2989.91 420.468   6
   6   5   5 2221.83 433.994   1
   6   5   6 24893.6 1446.91   1
  -6  -5  -6 22155.9 1390.20   4
  -6  -5  -6 22002.5 1097.94   2
  -6   5  -6 22792.6 674.790   3
   6  -5   6 20378.5 1124.10   2
   6  -5   6 20912.3 1100.82   6
   6   5   7 4117.77 612.184   1
  -6  -5  -7 3660.38 599.500   4
  -6  -5  -7 3512.59 442.818   2
  -6   5  -7 3969.07 288.941   3
   6  -5   7 2957.87 439.195   2
   6   5   8 6158.87 741.320   1
  -6  -5  -8 5613.31 580.948   2
  -6  -5  -8 6240.84 772.259   4
  -6   5  -8 5422.55 360.731   3
   6  -5   8 4817.23 578.724   2
   6   5   9 1957.23 422.833   1
  -6  -5  -9 1380.72 382.900   4
  -6  -5  -9 1858.32 341.264   2
  -6  -5 -10 1091.03 262.743   5
   6   5  10 1245.80 353.661   1
  -6  -5 -10 1347.51 399.798   4
  -6  -5 -10 1259.85 294.154   2
  -6  -5 -11 300.521 161.521   5
  -6  -5 -11 180.538 148.798   4
  -6  -5 -11 46.8165 92.7823   2
   6   5  11 139.800 82.9909   1
  -6  -5 -12 2613.92 408.227   5
  -6  -5 -12 2791.66 467.911   2
  -6  -5 -12 2922.03 586.610   4
   6   5  12 2405.68 532.582   1
  -6  -5 -13 196.308 127.201   5
  -6  -5 -13 227.337 165.821   2
  -6  -5 -13 160.404 144.911   4
   6   5  13 375.927 235.397   1
  -6  -5 -14 1574.85 311.326   5
  -6  -5 -14 1604.67 381.630   2
   6   5  14 1763.54 467.807   1
  -6  -5 -14 1671.20 485.778   4
  -6  -5 -15 1151.90 270.719   5
   6   5  15 1566.41 459.822   1
  -6  -5 -15 1047.01 304.737   2
  -6  -5 -15 1782.62 494.754   4
   6   5  16-55.9309 86.3979   1
  -6  -5 -16-20.3350 81.6586   2
  -6  -5 -16 95.8121 218.760   4
  -6  -5 -17 849.904 295.100   2
  -6  -5 -17 619.649 286.419   4
   6   5  17 1443.20 450.171   1
  -6  -5 -18 1368.03 398.888   2
   6   5  18 1805.20 494.700   1
  -6  -5 -19 9.45322 84.0215   2
   6   5  19 223.657 87.8864   1
  -6  -5 -20 1482.04 450.804   2
   6   5  20 1745.49 534.759   1
  -6  -5 -21-5.53388 183.132   2
   6   5  21-43.3784 170.971   1
  -6  -5 -22 5.26999 105.444   2
  -6   5 -22-49.6707 130.882   4
   6   5  22 120.069 151.119   1
  -6  -5 -23 142.211 197.544   2
  -6   5 -23-0.64267 165.417   4
   6  -6 -25 115.376 207.025   2
   6  -6 -24 1198.43 439.855   2
   6  -6 -23 1254.66 439.402   2
   6  -6 -22 1084.57 430.004   2
   6  -6 -21 19.2871 163.580   2
   6  -6 -20-28.3243 99.6076   2
   6  -6 -19 21.1166 104.347   2
  -6  -6  18-101.556 95.1263   6
   6  -6 -18 48.1526 87.4328   2
  -6  -6  17 228.219 192.051   6
   6  -6 -17 303.619 245.097   2
  -6  -6  16 408.101 162.133   6
   6  -6 -16 264.557 185.382   2
  -6  -6  15 162.762 125.723   6
   6  -6 -15 224.518 120.434   2
   6  -6 -14 303.204 158.371   2
  -6  -6  14 113.234 47.2821   6
  -6  -6  13 216.302 109.943   6
   6  -6 -13-6.62292 129.976   2
   6  -6 -12 2895.76 505.001   2
  -6  -6  12 2690.07 447.329   6
   6  -6 -11 3176.92 513.396   2
  -6  -6  11 3302.32 496.676   6
   6  -6 -10 12037.8 980.769   2
   6  -6  -9 5320.49 646.722   2
   6  -6  -8 15466.5 1047.03   2
   6  -6  -7 2421.23 409.008   2
   6  -6  -7 2268.65 377.907   3
   6  -6  -6 830.733 228.326   2
   6  -6  -6 694.644 203.839   3
   6  -6  -5 22.2165 53.6017   2
   6  -6  -5 163.682 103.161   3
   6  -6  -4 6637.04 585.702   3
   6  -6  -4 6276.17 626.372   2
   6  -6  -3 6648.40 571.409   3
   6  -6  -3 7303.74 678.325   2
   6  -6  -2 18885.5 1065.85   2
  -6  -6   2 18733.5 1000.78   4
   6   6  -2 20738.5 1246.91   3
   6  -6  -1 6396.24 609.327   2
  -6  -6   1 5173.62 561.330   4
   6   6  -1 5253.60 631.098   3
   6  -6   0 6388.25 614.370   2
  -6  -6   0 6367.24 634.282   4
   6   6   0 6585.60 702.748   3
  -6  -6  -1 97.1701 112.618   4
   6   6   1-109.145 162.992   3
  -6  -6  -1 28.1760 61.4330   2
  -6  -6  -2 2884.31 449.138   4
  -6  -6  -2 2130.36 348.541   2
   6   6   2 2187.80 403.833   3
  -6  -6  -3 1110.04 262.766   2
  -6  -6  -3 1105.44 315.760   4
   6   6   3 1292.22 318.057   3
  -6  -6  -4 6998.10 752.454   4
   6   6   4 6293.93 701.380   3
  -6  -6  -4 5522.98 580.709   2
  -6  -6  -5 2201.56 379.027   2
  -6  -6  -5 1431.60 349.072   4
   6  -6   5 1385.97 306.483   6
   6   6   6 3130.68 544.633   1
  -6  -6  -6 3412.80 562.055   4
  -6   6  -6 3384.40 317.749   3
  -6  -6  -6 3374.50 472.084   2
   6  -6   6 3178.44 445.754   6
  -6  -6  -7 1961.53 436.357   4
  -6   6  -7 1714.36 231.597   3
   6   6   7 2680.95 512.970   1
   6  -6   7 1218.21 278.936   6
  -6  -6  -7 1892.54 364.050   2
  -6  -6  -8-44.1400 126.554   4
  -6   6  -8-31.7170 54.1194   3
  -6  -6  -8 140.674 100.866   2
   6   6   8 83.8791 77.2129   1
   6   6   9-114.565 169.270   1
  -6  -6  -9 205.172 223.143   4
  -6   6  -9 4.70746 41.2895   3
  -6  -6  -9-8.11842 102.753   2
  -6  -6 -10 3199.45 599.157   4
  -6   6 -10 1993.34 265.785   3
  -6  -6 -10 1954.49 384.358   2
   6   6  10 2231.60 493.586   1
  -6  -6 -11 1763.44 344.459   5
  -6  -6 -11 1861.62 495.524   4
   6   6  11 2079.01 482.160   1
  -6  -6 -11 1534.09 353.138   2
  -6  -6 -12 2132.47 378.506   5
   6   6  12 1456.25 389.340   1
  -6  -6 -12 1631.12 439.524   4
  -6  -6 -12 1428.98 362.594   2
   6   6  13 904.574 314.922   1
  -6  -6 -13 1151.05 284.245   5
  -6  -6 -13 1013.16 378.164   4
  -6  -6 -13 1154.60 320.647   2
  -6  -6 -14 2088.15 353.836   5
  -6  -6 -14 2046.04 440.269   2
   6   6  14 2629.16 556.550   1
  -6  -6 -15 467.951 184.186   5
  -6  -6 -15 134.396 129.801   2
   6   6  15 661.421 304.360   1
  -6  -6 -16 384.152 239.307   2
   6   6  16 844.270 337.292   1
   6   6  17 31.6702 241.038   1
  -6  -6 -17-34.1455 100.028   2
  -6  -6 -18 393.600 210.014   2
   6   6  18 198.671 160.989   1
  -6  -6 -19 895.874 348.281   2
   6   6  19 435.269 248.982   1
  -6  -6 -20 537.356 235.529   2
   6   6  20 830.425 351.876   1
  -6  -6 -21 389.499 279.992   2
   6   6  21 429.918 231.705   1
  -6  -6 -22 124.517 135.199   2
   6  -7 -24 114.677 229.901   2
   6  -7 -23 1522.89 519.205   2
   6  -7 -22 299.029 248.823   2
   6  -7 -21 494.849 269.406   2
   6  -7 -20-59.5397 129.119   2
   6  -7 -19 1324.94 442.163   2
   6  -7 -18-40.7727 115.252   2
   6  -7 -17 5777.82 840.806   2
  -6  -7  17 5249.21 611.872   6
   6  -7 -16 165.006 128.520   2
  -6  -7  16-18.1947 81.8867   6
  -6  -7  15 2282.06 415.979   6
   6  -7 -15 3388.81 611.913   2
  -6  -7  14-15.2170 79.5686   6
   6  -7 -14 28.1230 73.7620   2
   6  -7 -13-38.6160 114.104   2
  -6  -7  13 28.2817 58.7193   6
  -6  -7  12 480.148 236.217   6
   6  -7 -12 424.604 207.503   2
   6  -7 -11 7041.75 801.300   2
   6  -7 -10 2095.17 430.833   2
   6  -7  -9 9563.55 899.433   2
   6  -7  -8 3689.11 548.978   2
   6  -7  -7 1794.53 380.798   2
   6  -7  -6 538.258 219.014   2
   6  -7  -5 113.405 87.0331   2
   6  -7  -5 251.079 137.731   3
   6  -7  -4 725.796 233.486   2
   6  -7  -4 1012.57 248.365   3
   6   7  -3 4999.76 681.106   3
   6  -7  -3 4349.99 554.515   2
   6  -7  -2 1458.55 309.436   2
   6   7  -2 1940.35 407.399   3
   6  -7  -1 3729.02 515.425   2
   6   7  -1 3752.78 566.128   3
   6   7   0 417.468 199.999   3
   6  -7   0 639.512 219.750   2
   6   7   1-4.32331 67.7645   3
  -6  -7  -1 158.184 106.532   2
  -6  -7  -2 314.712 178.233   2
   6   7   2 592.940 240.816   3
  -6  -7  -3 3226.49 478.465   2
   6   7   3 3544.77 555.399   3
  -6  -7  -4 466.871 200.543   2
   6   7   4 726.776 305.696   3
  -6  -7  -5 16615.3 1109.06   2
  -6  -7  -6 754.571 286.704   2
  -6   7  -6 712.099 187.423   3
  -6   7  -7 16392.7 809.210   3
  -6  -7  -7 15217.6 1092.42   2
  -6  -7  -8-103.112 140.508   2
  -6   7  -8 56.9681 49.1760   3
   6   7   9 2353.23 507.449   1
  -6   7  -9 2190.71 304.675   3
  -6  -7  -9 1870.44 398.543   2
   6   7  10 358.695 234.861   1
  -6   7 -10 96.6144 79.3246   3
  -6  -7 -10 252.434 136.987   2
   6   7  11 1185.59 395.829   1
  -6   7 -11 1028.36 231.409   3
  -6  -7 -11 1100.89 316.253   2
  -6  -7 -12 1036.95 273.628   5
  -6  -7 -12 769.809 283.716   2
   6   7  12 930.926 299.923   1
  -6  -7 -13 958.230 248.846   5
   6   7  13 1745.28 490.831   1
  -6  -7 -13 928.044 325.213   2
  -6  -7 -14 251.272 131.652   5
   6   7  14 868.299 341.224   1
  -6  -7 -14 550.413 231.579   2
   6   7  15-86.1144 153.630   1
  -6  -7 -15 32.9099 106.691   2
  -6  -7 -16-160.343 221.871   2
   6   7  16 314.000 325.051   1
  -6  -7 -17 905.434 323.086   2
   6   7  17 1900.27 552.663   1
  -6  -7 -18 280.887 204.415   2
   6   7  18 571.237 386.588   1
   6   7  19 2865.73 680.410   1
  -6  -7 -19 1786.15 491.297   2
   6   7  20 449.192 303.635   1
  -6  -7 -20-48.5942 85.2801   2
  -6  -7 -21 216.476 211.187   2
  -6  -7 -22 274.790 255.104   2
   6  -8 -22 246.190 225.747   2
   6  -8 -21 382.794 258.902   2
   6  -8 -20-99.8599 200.025   2
   6  -8 -19 271.226 216.069   2
   6  -8 -18 85.1159 174.921   2
   6  -8 -17 3433.00 689.650   2
  -6  -8  16 404.011 150.012   6
   6  -8 -16 153.142 196.330   2
   6  -8 -15 2916.65 586.502   2
  -6  -8  15 2984.92 484.644   6
   6  -8 -14 146.294 122.010   2
  -6  -8  14 101.131 94.8886   6
   6  -8 -13 554.673 316.428   2
  -6  -8  13 962.633 288.944   6
   6  -8 -12 147.632 151.053   2
   6  -8 -11 615.784 208.463   2
   6  -8 -10 401.717 228.182   2
   6  -8  -9 1907.88 433.842   2
   6  -8  -8 475.421 235.882   2
   6  -8  -7-110.643 123.476   2
   6  -8  -6-105.682 171.416   2
   6  -8  -5 64.0656 150.717   2
   6  -8  -4 108.370 118.353   2
   6   8  -4 537.315 265.349   3
   6   8  -3 3958.33 627.429   3
   6  -8  -3 3593.48 543.563   2
   6  -8  -2 2747.64 476.549   2
   6   8  -2 2595.08 510.944   3
   6  -8  -1 2202.33 434.464   2
   6   8  -1 1994.37 434.945   3
   6   8   0 588.275 243.847   3
   6  -8   0 455.843 195.350   2
   6   8   1 253.166 192.112   3
  -6  -8  -1 117.145 151.821   2
  -6  -8  -2 236.748 151.429   2
   6   8   2 177.450 192.102   3
  -6  -8  -3 2263.42 433.609   2
   6   8   3 2298.80 473.276   3
  -6  -8  -4-39.7151 71.4947   2
   6   8   4 166.143 138.800   3
  -6  -8  -5 4171.49 604.767   2
  -6  -8  -6 392.669 203.966   2
  -6   8  -6 139.008 82.2720   3
  -6  -8  -7 1218.30 342.239   2
  -6   8  -7 1443.07 270.336   3
  -6  -8  -8 930.748 314.048   2
  -6   8  -8 1163.98 242.425   3
  -6   8  -9 263.456 112.932   3
  -6  -8  -9 394.033 196.255   2
  -6   8 -10 905.155 225.973   3
  -6  -8 -10 1247.24 350.132   2
   6   8  10 1260.62 424.389   1
  -6  -8 -11 3493.62 601.478   2
   6   8  11 3466.50 652.608   1
  -6  -8 -12 300.568 210.227   2
   6   8  12 361.896 247.075   1
   6   8  13 1141.13 386.493   1
  -6  -8 -13 1068.92 359.120   2
  -6  -8 -13 1062.24 286.233   5
  -6  -8 -14 319.212 189.091   2
   6   8  14 17.4867 120.680   1
   6   8  15-30.7644 138.518   1
  -6  -8 -15 57.9218 87.7968   2
   6   8  16 177.588 205.758   1
  -6  -8 -16 223.459 160.174   2
  -6  -8 -17 672.484 298.430   2
   6   8  17 1107.46 402.509   1
  -6  -8 -18-202.697 121.672   2
   6   8  18-51.5704 144.992   1
  -6  -8 -19 1785.87 500.291   2
  -6  -8 -20 265.221 232.111   2
   6  -9 -21 266.447 246.067   2
   6  -9 -20-420.854 267.548   2
   6  -9 -19 250.532 232.077   2
   6  -9 -18 478.500 253.896   2
   6  -9 -17 389.453 280.073   2
   6  -9 -16 608.708 284.336   2
   6  -9 -15 680.040 299.749   2
  -6  -9  15 388.435 193.120   6
  -6  -9  14 386.019 199.569   6
   6  -9 -14 487.930 230.900   2
  -6  -9  13 7.82857 85.0965   6
   6  -9 -13-92.5451 185.298   2
   6  -9 -12 610.463 273.259   2
   6  -9 -11 1358.60 392.541   2
   6  -9 -10 3529.39 625.861   2
   6  -9  -9 4625.16 701.944   2
   6  -9  -8 4196.73 674.057   2
   6  -9  -7 2181.73 493.510   2
   6  -9  -6-53.4624 174.290   2
   6  -9  -5-182.757 171.261   2
   6   9  -5 111.617 141.780   3
   6  -9  -4 1837.37 420.606   2
   6   9  -4 1372.59 409.945   3
   6  -9  -3 3645.59 582.006   2
   6   9  -3 3941.79 675.980   3
   6   9  -2 4334.73 697.255   3
   6  -9  -2 6259.77 765.364   2
   6  -9  -1 3092.36 526.439   2
   6   9  -1 3703.28 632.417   3
   6   9   0 1511.07 400.019   3
   6  -9   0 1928.46 425.662   2
  -6  -9   0 1947.00 442.723   2
   6   9   1 234.844 179.511   3
  -6  -9  -1 279.489 169.448   2
  -6  -9  -2 265.582 209.580   2
   6   9   2 158.509 95.1142   3
  -6  -9  -3 944.443 310.803   2
   6   9   3 1306.69 374.086   3
  -6  -9  -4 1005.37 318.819   2
   6   9   4 610.430 285.060   3
  -6  -9  -5 922.016 334.368   2
  -6  -9  -6 1731.07 420.221   2
  -6   9  -6 1410.71 291.350   3
  -6  -9  -7 194.926 177.358   2
  -6   9  -7-22.4848 83.1350   3
  -6   9  -8 22.0627 54.6126   3
  -6  -9  -8 174.990 146.520   2
  -6   9  -9 210.651 112.620   3
  -6  -9  -9-53.6166 135.565   2
  -6  -9 -10 833.845 302.024   2
  -6  -9 -11 880.405 315.532   2
   6   9  12 2093.93 552.663   1
  -6  -9 -12 1277.76 381.413   2
  -6  -9 -13 624.085 269.208   2
   6   9  13 478.326 290.884   1
   6   9  14 1431.30 536.764   1
  -6  -9 -14 818.129 333.563   2
  -6  -9 -15 137.064 142.605   2
   6   9  15 412.333 232.814   1
   6   9  16 436.247 302.676   1
  -6  -9 -16 175.797 136.791   2
   6   9  17 234.600 120.225   1
  -6  -9 -17-119.374 143.644   2
  -6  -9 -18-48.1149 108.806   2
  -6  -9 -19 141.495 158.841   2
   6 -10 -19 517.030 314.542   2
   6 -10 -18 885.529 363.413   2
   6 -10 -17 88.2635 103.289   2
   6 -10 -16 1051.89 417.348   2
   6 -10 -15 208.518 202.942   2
   6 -10 -14 395.277 247.878   2
   6 -10 -13-172.773 217.587   2
   6 -10 -12 928.214 341.698   2
   6 -10 -11 268.965 227.931   2
   6 -10 -10 3490.76 658.026   2
   6 -10  -9 253.807 218.017   2
   6 -10  -8 2674.94 582.180   2
   6 -10  -7 561.826 251.708   2
   6 -10  -6 106.145 134.580   2
   6  10  -6-265.452 202.572   3
   6 -10  -5-76.4010 119.421   2
   6  10  -5-102.964 204.081   3
   6 -10  -4 1549.21 417.642   2
   6  10  -4 1321.93 405.758   3
   6 -10  -3 165.696 138.807   2
   6  10  -3 361.451 274.608   3
   6 -10  -2 3198.28 574.534   2
   6  10  -2 3204.92 615.859   3
   6 -10  -1-12.7286 126.396   2
   6  10  -1 371.528 270.780   3
   6  10   0 506.075 245.104   3
   6 -10   0 424.624 237.719   2
  -6 -10   0 222.205 104.635   2
   6  10   1-188.647 169.517   3
  -6 -10  -1-218.000 186.100   2
   6 -10   1-64.3804 143.420   2
  -6 -10  -2 1183.35 350.434   2
   6  10   2 1201.16 389.795   3
  -6 -10  -3 15.9559 106.616   2
   6  10   3 77.2683 136.405   3
  -6 -10  -4 3091.56 579.303   2
   6  10   4 3742.38 676.804   3
  -6 -10  -5 232.780 208.745   2
  -6 -10  -6 6418.14 857.362   2
  -6 -10  -7 141.130 205.895   2
  -6  10  -7 289.948 156.200   3
  -6 -10  -8 1261.07 375.422   2
  -6 -10  -9 87.3665 84.0279   2
  -6 -10 -10 157.347 115.723   2
  -6 -10 -11 175.284 188.228   2
  -6 -10 -12 1739.65 461.827   2
   6  10  13 405.699 305.208   1
  -6 -10 -13 41.0287 114.877   2
  -6 -10 -14 217.361 164.433   2
   6  10  14 476.521 235.240   1
  -6 -10 -15 8.08445 72.3438   2
  -6 -10 -16-1.28687 71.2075   2
  -6 -10 -17 255.580 241.110   2
  -6 -10 -18 656.241 347.556   2
   6 -11 -17 640.386 353.801   2
   6 -11 -16 1488.61 503.222   2
   6 -11 -15-1.96916 81.2588   2
   6 -11 -14-443.345 263.266   2
   6 -11 -13-307.509 167.594   2
   6 -11 -12 715.965 286.940   2
   6 -11 -11 1036.36 397.014   2
   6 -11 -10 2765.10 614.134   2
   6 -11  -9 2001.51 531.223   2
   6 -11  -8 1616.23 459.955   2
   6  11  -8 2796.66 632.967   3
   6 -11  -7 681.572 330.016   2
   6  11  -7 118.719 164.748   3
   6 -11  -6 486.451 283.386   2
   6  11  -6 30.2510 133.976   3
   6 -11  -5-388.311 231.688   2
   6  11  -5-465.140 263.162   3
   6 -11  -4 1507.09 444.060   2
   6  11  -4 1361.49 414.426   3
   6 -11  -3 2155.06 484.897   2
   6  11  -3 2275.78 558.600   3
   6 -11  -2 3019.75 605.740   2
   6  11  -2 3044.10 622.151   3
   6 -11  -1 2438.53 545.640   2
   6  11  -1 1210.33 416.171   3
  -6 -11   1 1783.97 471.839   2
   6  11   0 1126.49 374.063   3
   6 -11   0 1082.00 329.367   2
  -6 -11   0 1621.81 453.288   2
   6  11   1-70.3901 148.378   3
  -6 -11  -1-11.5166 111.174   2
   6 -11   1 65.0529 131.934   2
  -6 -11  -2-281.287 252.406   2
   6  11   2 224.492 214.428   3
   6 -11   2-137.930 151.919   2
  -6 -11  -3 316.592 194.830   2
   6  11   3 244.225 235.107   3
  -6 -11  -4 2576.75 585.789   2
  -6 -11  -5 1102.36 385.569   2
  -6 -11  -6 4367.30 740.930   2
  -6 -11  -7 746.620 319.430   2
  -6 -11  -8 1076.18 376.658   2
  -6 -11  -9-90.6851 152.928   2
  -6 -11 -10 287.615 284.538   2
  -6 -11 -11-93.0396 106.673   2
  -6 -11 -12 1535.41 487.276   2
  -6 -11 -13 91.8300 152.032   2
  -6 -11 -14-18.3745 80.9973   2
  -6 -11 -15 2.71799 196.101   2
  -6 -11 -16 189.329 182.507   2
   6 -12 -14-143.795 193.199   2
   6 -12 -13-17.7695 154.764   2
   6 -12 -12-67.2780 80.4403   2
   6 -12 -11 2013.37 542.063   2
   6 -12 -10 715.831 375.177   2
   6  12 -10 1192.87 450.754   3
   6 -12  -9 2761.60 648.968   2
   6  12  -9 2509.46 595.357   3
   6 -12  -8 775.603 363.747   2
   6  12  -8 270.435 199.548   3
   6 -12  -7 1901.98 515.924   2
   6  12  -7 1414.41 475.950   3
   6 -12  -6 92.2099 167.532   2
   6  12  -6 127.209 116.407   3
   6 -12  -5 3.59811 138.777   2
   6  12  -5-114.543 133.221   3
   6 -12  -4 54.0873 148.845   2
   6  12  -4 544.485 287.416   3
   6 -12  -3 2050.05 523.714   2
   6  12  -3 2320.41 580.644   3
   6 -12  -2 318.284 233.293   2
   6  12  -2 311.417 240.997   3
   6 -12  -1 2281.19 564.107   2
   6  12  -1 1915.57 540.602   3
  -6 -12   1 1765.29 507.455   2
   6  12   0 335.242 240.557   3
   6 -12   0-125.599 184.306   2
  -6 -12   0 147.653 148.168   2
   6  12   1 217.934 192.580   3
  -6 -12  -1 32.5410 80.1368   2
   6 -12   1-13.3958 184.890   2
  -6 -12  -2-32.7299 167.087   2
   6  12   2 194.032 193.039   3
   6 -12   2-220.702 200.388   2
  -6 -12  -3 598.265 301.346   2
   6  12   3 1205.54 448.497   3
   6 -12   3 721.131 302.844   2
  -6 -12  -4 357.640 231.002   2
  -6 -12  -5 945.620 387.080   2
  -6 -12  -6 363.922 246.215   2
  -6 -12  -7 785.496 358.144   2
  -6 -12  -8 58.7565 115.208   2
  -6 -12  -9 111.838 197.828   2
  -6 -12 -10-1.31534 90.0426   2
  -6 -12 -11-74.4534 130.436   2
  -6 -12 -12 524.236 306.140   2
  -6 -12 -13 70.0519 128.930   2
   6 -13 -10-89.1525 151.816   2
   6 -13  -9 18.7356 171.550   2
   6 -13  -8-87.9211 131.978   2
   6 -13  -7-285.239 211.641   2
   6  13  -7 126.287 155.689   3
   6 -13  -6-163.567 187.705   2
   6  13  -6 224.711 112.473   3
   6 -13  -5 606.495 330.993   2
   6  13  -5 80.3636 171.864   3
   6 -13  -4-154.900 177.559   2
   6  13  -4 90.9111 84.2885   3
   6 -13  -3 403.101 195.175   2
   6  13  -3 1152.40 453.543   3
   6 -13  -2 413.569 292.966   2
   6  13  -2 290.864 201.946   3
  -6 -13   2 59.1576 239.804   2
   6 -13  -1 907.812 375.664   2
   6  13  -1 554.814 324.220   3
  -6 -13   1 702.213 314.154   2
   6  13   0 140.333 172.245   3
   6 -13   0 120.541 165.086   2
  -6 -13   0 57.4380 88.9189   2
  -6 -13  -1-228.414 166.010   2
   6  13   1 72.5096 131.531   3
   6 -13   1 306.310 209.822   2
  -6 -13  -2-15.3142 84.2216   2
   6  13   2 7.79057 114.710   3
   6 -13   2-7.21668 175.071   2
  -6 -13  -3 190.181 170.285   2
   6 -13   3 425.009 298.488   2
   6 -13   4 30.5649 108.166   2
  -6 -13  -4-138.997 161.956   2
  -6 -13  -5 896.269 384.777   2
  -6 -13  -6 157.367 178.605   2
  -6 -13  -7 420.828 241.974   2
  -6 -13  -8-293.319 226.310   2
  -6 -13  -9 129.368 216.147   2
  -6 -14   3 473.960 345.702   2
  -6 -14   2 494.123 333.003   2
  -6 -14   1 289.228 243.587   2
  -6 -14   0 421.891 301.961   2
  -6 -14  -1-400.199 269.585   2
  -6 -14  -2 48.8221 201.892   2
   7   0 -27 132.089 182.252   2
   7   0 -26-91.8549 170.171   2
   7   0 -25 588.751 254.458   2
   7   0 -24 262.401 164.646   2
   7   0 -23 2069.55 504.735   2
   7   0 -22-332.193 237.021   2
   7   0 -21-23.3881 138.193   2
   7   0 -20 88.4519 128.552   2
   7   0 -19 11521.4 1073.94   2
   7   0 -18 164.186 149.359   2
   7   0 -17 12654.5 1046.01   2
   7   0 -16 48.2687 91.4301   2
   7   0 -15 16141.8 1120.64   2
   7   0 -14-86.1245 112.310   2
   7   0 -13 622.568 210.273   2
   7   0 -12 228.340 134.081   2
  -7   0  12 114.357 101.760   2
  -7   0  11 17303.0 1002.97   2
   7   0 -11 17425.0 977.742   2
  -7   0  10 150.772 115.950   2
   7   0 -10 122.993 163.020   2
  -7   0   9 6083.28 684.542   6
  -7   0   9 5644.60 388.882   1
  -7   0   9 5661.67 508.392   2
   7   0  -9 6193.90 527.727   2
   7   0  -8 54.9113 90.9626   2
  -7   0   8 49.8898 83.0880   1
  -7   0   8 66.2076 72.7373   2
  -7   0   7 471.349 182.175   6
  -7   0   7 238.070 89.3241   1
  -7   0   7 296.218 101.319   2
   7   0  -7 215.225 80.3377   2
  -7   0   6-17.7697 49.3190   1
  -7   0   6 47.3008 47.9749   2
   7   0  -6 33.3454 67.9938   2
  -7   0   5 17387.9 877.549   1
  -7   0   5 21849.1 699.222   2
   7   0  -5 20554.1 681.825   2
  -7   0   4 27.8130 67.0344   1
  -7   0   4 40.2325 25.1406   2
  -7   0   3 49801.9 1600.56   1
  -7   0   2 15.0564 48.7629   1
  -7   0   1 41329.9 1544.63   1
  -7   0   1 59180.3 1966.32   6
  -7   0   0 65.3868 78.6004   1
   7   0   0 11.9276 34.3516   3
  -7   0   0-23.2482 78.1956   6
  -7   0  -1 18721.7 1093.88   1
   7   0   1 17825.2 551.697   3
  -7   0  -1 18634.4 1112.90   6
  -7   0  -2 54.9414 83.5029   5
  -7   0  -2 49.2311 65.3752   6
  -7   0  -3 6574.95 667.844   5
  -7   0  -3 6413.81 636.330   6
  -7   0  -4-3.52763 58.8702   6
  -7   0  -4 25.4506 101.709   5
   7   0   5 30323.9 626.527   2
  -7   0  -5 32358.9 1495.97   5
  -7   0  -5 33087.6 1484.42   6
  -7   0  -6 163.777 170.691   5
   7   0   6 38.8800 21.1233   2
  -7   0  -6 120.876 135.019   6
  -7   0  -7 28488.6 1445.12   5
   7   0   7 27600.8 854.849   2
  -7   0  -7 30047.0 1407.46   6
   7   0   8-13.9969 36.8214   2
  -7   0  -8 50.0095 54.9145   6
   7   0   9 11.2579 39.6099   2
  -7   0  -9 100.602 72.8056   6
  -7   0  -9 39.7122 39.6672   3
   7   0  10-54.1223 73.9922   2
  -7   0 -10 58.9626 119.819   6
  -7   0 -10 76.7496 69.7301   3
  -7   0 -11 12198.8 917.733   6
   7   0  11 9472.98 694.873   2
  -7   0 -11 11055.0 657.728   3
  -7   0 -12 137.225 95.2960   3
  -7   0 -12 24.9550 58.8324   2
   7   0  12-50.8240 53.6571   2
  -7   0 -13 1930.12 300.145   3
  -7   0 -13 2607.83 405.431   2
  -7   0 -13 2442.85 418.106   6
  -7   0 -14 277.789 177.824   6
  -7   0 -14 108.749 114.417   2
  -7   0 -15-50.2180 116.090   2
  -7   0 -15 113.615 126.027   6
  -7   0 -16-70.8475 95.2630   4
  -7   0 -16-42.6381 93.5957   2
  -7   0 -16 67.5290 60.0019   6
  -7   0 -17 4376.34 774.913   4
  -7   0 -17 4217.77 545.742   6
  -7   0 -17 4365.97 613.471   2
  -7   0 -18-97.5725 129.672   6
  -7   0 -18 228.126 160.497   4
  -7   0 -18-209.765 159.261   2
  -7   0 -19 3334.17 701.944   4
  -7   0 -20 89.8157 151.031   4
  -7   0 -21 373.721 303.700   4
  -7   0 -22 142.731 228.917   4
  -7   0 -23-74.6673 193.401   4
   7  -1 -27 3.39321 137.814   2
   7   1 -27-396.500 261.357   2
   7   1 -26 273.310 185.346   2
   7  -1 -26 803.854 367.037   2
   7   1 -25 1173.62 389.182   2
   7  -1 -25 563.761 318.581   2
   7   1 -24 678.863 311.806   2
   7  -1 -24 732.394 354.437   2
   7  -1 -23 1886.72 485.055   2
   7   1 -23 1758.16 465.655   2
   7  -1 -22-123.403 121.767   2
   7   1 -22 645.741 315.300   2
   7  -1 -21 302.264 175.688   2
   7   1 -21 146.879 205.468   2
   7  -1 -20-41.9544 104.791   2
   7   1 -20 101.071 166.593   2
   7  -1 -19 1339.04 368.565   2
   7   1 -19 1233.65 353.629   2
   7  -1 -18 189.544 196.977   2
   7   1 -18 247.915 156.467   2
   7  -1 -17 823.248 280.111   2
   7   1 -17 919.583 265.744   2
   7  -1 -16 236.890 158.070   2
   7   1 -16-102.507 129.877   2
   7  -1 -15 2387.08 439.163   2
   7   1 -15 2173.99 431.541   2
   7  -1 -14 456.386 192.197   2
   7   1 -14 465.767 204.546   2
   7  -1 -13 1116.33 278.719   2
  -7   1  13 1161.71 124.972   1
   7   1 -13 1658.34 346.339   2
  -7  -1  12 5361.29 583.191   2
  -7   1  12 6696.21 651.337   2
   7   1 -12 5659.24 581.255   2
   7  -1 -12 5927.58 601.975   2
  -7   1  12 5617.08 332.487   1
  -7  -1  12 5693.40 677.550   6
  -7   1  11 13123.5 573.542   1
  -7  -1  11 14561.9 924.736   2
  -7   1  11 14415.2 911.329   2
   7   1 -11 15043.5 910.766   2
   7  -1 -11 14333.3 897.467   2
  -7  -1  11 13926.5 1029.57   6
  -7   1  10 23528.5 829.390   1
  -7  -1  10 23607.5 1128.26   2
  -7   1  10 23326.2 1109.29   2
   7   1 -10 24062.7 1116.29   2
   7  -1 -10 24019.2 1107.81   2
  -7  -1  10 24011.6 1329.46   6
  -7   1   9 11175.4 603.354   1
  -7  -1   9 10866.2 720.782   2
  -7   1   9 11157.2 726.643   2
   7   1  -9 12271.7 747.801   2
   7  -1  -9 12068.0 747.159   2
  -7  -1   9 11910.7 931.941   6
  -7   1   8 22074.2 898.147   1
  -7  -1   8 21993.9 966.588   2
  -7   1   8 22112.7 962.283   2
   7  -1  -8 22654.7 962.772   2
  -7  -1   8 19977.2 1226.01   6
  -7   1   8 22086.0 1280.03   6
  -7   1   7 3261.38 373.921   1
  -7  -1   7 2918.42 459.626   6
  -7   1   7 2464.18 423.576   6
  -7   1   7 2315.05 381.692   5
  -7  -1   7 3187.06 335.654   2
  -7   1   7 2843.31 317.863   2
   7  -1  -7 3041.44 329.744   2
  -7   1   6 10956.0 686.670   1
  -7   1   6 9918.75 789.113   5
  -7  -1   6 10397.7 558.610   2
  -7   1   6 10858.8 575.934   2
   7  -1  -6 10474.8 560.465   2
  -7   1   5 1714.65 280.683   1
  -7   1   5 2283.96 396.604   5
  -7  -1   5 2120.54 224.228   2
  -7   1   5 1813.18 213.046   2
   7  -1  -5 1830.11 210.005   2
  -7   1   4 2608.67 349.357   1
  -7   1   4 2703.07 424.937   5
  -7  -1   4 2722.41 222.647   2
   7  -1  -4 2975.74 238.357   2
  -7   1   3 11220.9 762.020   1
  -7  -1   3 9680.57 329.272   2
   7  -1  -3 10335.0 367.603   2
  -7   1   2 5163.92 533.420   1
  -7   1   2 7896.99 727.767   6
  -7   1   1 4573.36 513.015   1
  -7  -1   1 4993.53 523.300   1
  -7   1   1 6555.83 663.779   6
  -7   1   0 1558.06 296.838   1
  -7   1   0 1935.17 357.238   6
   7  -1   0 1601.74 123.201   3
  -7  -1   0 1543.79 304.469   1
   7   1   0 1819.22 234.290   3
  -7  -1   0 1729.70 336.469   6
  -7   1  -1 482.904 203.146   6
  -7   1  -1 178.136 98.8215   1
  -7  -1  -1 82.5776 50.8802   1
   7   1   1 146.785 58.8766   3
   7   1   1 329.108 146.613   1
  -7  -1  -1 252.605 166.130   6
  -7  -1  -1 428.952 181.070   5
  -7   1  -2 14429.0 959.605   6
  -7  -1  -2 13335.6 940.898   5
  -7   1  -2 13914.3 958.345   5
   7   1   2 13357.8 602.767   3
   7   1   2 16098.1 993.893   1
  -7  -1  -2 15140.6 1004.55   6
  -7  -1  -3 14488.2 983.090   5
  -7   1  -3 13657.7 955.366   5
  -7  -1  -3 14381.3 996.904   6
   7   1   3 14317.3 975.475   1
  -7   1  -3 15193.4 979.137   6
  -7  -1  -4 4347.15 557.378   5
  -7   1  -4 4387.33 566.845   5
   7  -1   4 3888.40 194.589   2
   7   1   4 4339.74 549.364   1
  -7   1  -4 4910.64 561.081   6
  -7  -1  -5 15005.9 1011.34   5
  -7   1  -5 15034.4 1027.44   5
   7  -1   5 14343.9 494.902   2
   7   1   5 18287.2 1158.32   1
  -7   1  -5 15515.2 996.217   6
  -7  -1  -6 667.994 199.344   5
   7   1   6 1279.45 322.350   1
  -7   1  -6 1040.74 291.643   5
   7  -1   6 889.077 142.564   2
   7   1   6 951.458 140.608   2
  -7  -1  -6 866.457 139.963   2
  -7   1  -6 694.454 222.366   6
  -7  -1  -7 7641.64 750.124   5
   7  -1   7 6916.65 446.230   2
  -7  -1  -7 7379.90 446.984   2
   7   1   7 7982.93 791.869   1
  -7   1  -7 7652.18 692.942   6
   7   1   7 7413.75 449.628   2
  -7  -1  -8 8.94847 84.2244   5
   7   1   8 215.393 87.1495   2
   7  -1   8 229.716 90.2256   2
   7   1   8 127.985 123.161   1
  -7  -1  -8 118.650 57.4984   2
  -7   1  -8 20.8236 76.9689   6
  -7  -1  -9 354.372 110.335   2
  -7  -1  -9 493.288 209.761   5
   7   1   9 336.913 123.575   2
   7  -1   9 377.310 130.376   2
  -7   1  -9 384.612 85.3390   3
  -7  -1  -9 397.732 119.954   3
  -7   1  -9 496.167 191.694   6
   7   1  10 490.433 152.034   2
  -7  -1 -10 603.149 229.137   5
  -7   1 -10 662.249 132.218   3
  -7  -1 -10 445.770 151.576   3
   7  -1  10 446.790 148.520   2
  -7  -1 -10 509.114 165.582   2
  -7   1 -10 387.492 163.046   6
   7  -1  11 4829.00 502.915   2
  -7   1 -11 4220.41 362.427   3
  -7  -1 -11 4824.45 486.051   3
   7   1  11 4759.54 493.477   2
  -7  -1 -11 5596.90 531.385   2
  -7   1 -11 5152.29 579.471   6
   7   1  12 1825.27 322.433   2
  -7  -1 -12 1851.72 327.290   2
  -7   1 -12 1833.60 256.154   3
  -7  -1 -12 1846.90 311.854   3
   7  -1  12 1690.42 308.467   2
  -7   1 -12 1826.11 343.680   6
  -7  -1 -13 792.914 217.629   3
  -7  -1 -13 1201.89 277.444   2
  -7   1 -13 1345.17 291.579   6
  -7  -1 -14 2174.07 381.023   2
  -7  -1 -14 2027.21 492.799   4
  -7   1 -14 2392.82 396.231   6
  -7  -1 -15 57.8980 64.5295   2
  -7   1 -15 108.072 95.8742   6
  -7  -1 -16 2240.98 564.825   4
  -7  -1 -16 1374.88 367.454   2
  -7   1 -16 1304.02 282.506   6
  -7  -1 -17 2101.56 551.420   4
  -7  -1 -17 1047.43 311.338   2
  -7   1 -17 1536.84 314.272   6
  -7   1 -18-196.901 189.740   4
  -7  -1 -18-201.072 195.529   4
  -7  -1 -18 13.7240 140.625   2
  -7  -1 -19 2452.08 492.975   2
  -7   1 -19 3018.54 687.266   4
  -7  -1 -19 3240.80 720.388   4
  -7   1 -20 1357.15 453.472   4
  -7  -1 -20 971.086 428.630   4
  -7  -1 -20 644.350 257.796   2
  -7   1 -21 857.068 373.431   4
  -7  -1 -21 1264.54 465.495   4
  -7  -1 -21 93.7609 113.108   2
  -7   1 -22 144.336 184.490   4
  -7  -1 -22-8.32208 121.483   4
  -7   1 -23 230.547 237.193   4
  -7  -1 -23 4.74598 133.173   4
   7  -2 -27-55.4537 168.460   2
   7  -2 -26 443.615 308.257   2
   7  -2 -25 582.605 304.832   2
   7   2 -25 459.282 271.763   2
   7  -2 -24 3530.68 717.369   2
   7   2 -24 3386.24 679.474   2
   7  -2 -23 177.814 174.482   2
   7   2 -23 276.276 238.929   2
   7  -2 -22 1892.81 495.009   2
   7   2 -22 2101.38 510.338   2
   7  -2 -21 147.757 126.977   2
   7   2 -21 213.510 147.797   2
   7  -2 -20-116.833 178.291   2
  -7   2  20-117.718 121.550   5
   7   2 -20-70.1170 151.358   2
   7  -2 -19 444.044 265.784   2
  -7   2  19 479.365 184.921   5
   7   2 -19 31.8713 87.1696   2
  -7   2  18 3286.24 432.467   5
   7  -2 -18 3203.86 571.302   2
   7   2 -18 3029.61 549.258   2
  -7   2  17 101.613 85.6876   5
   7  -2 -17 370.024 163.898   2
   7   2 -17 314.907 192.355   2
  -7   2  16 3286.69 435.326   5
   7   2 -16 3435.43 549.380   2
   7  -2 -16 4284.44 605.272   2
  -7   2  16 3031.53 180.367   1
   7  -2 -15 1198.19 319.697   2
  -7   2  15 1034.07 262.677   5
   7   2 -15 893.806 314.081   2
  -7   2  15 789.185 122.398   1
  -7  -2  14 196.258 92.1840   6
  -7   2  14 400.761 168.332   5
   7  -2 -14 260.361 134.058   2
  -7  -2  13 487.964 174.778   6
  -7   2  13 613.637 179.705   5
   7  -2 -13 461.626 155.338   2
  -7   2  12 9308.99 741.252   5
   7  -2 -12 9509.18 789.369   2
  -7  -2  12 9637.52 854.834   6
  -7  -2  11 5954.92 607.720   2
  -7   2  11 6368.92 628.995   5
  -7   2  11 5453.62 576.554   2
  -7  -2  11 6880.48 714.791   6
   7  -2 -11 6309.86 609.879   2
  -7   2  10 27884.2 1310.37   5
  -7  -2  10 27913.8 1265.21   2
  -7   2  10 28332.4 1271.47   2
  -7  -2  10 29062.7 1464.30   6
   7  -2 -10 29229.0 1265.27   2
  -7   2   9 16487.4 993.936   5
   7  -2  -9 16098.8 903.548   2
  -7   2   9 15353.9 879.311   2
  -7  -2   9 16830.8 1113.45   6
  -7  -2   9 15422.7 887.306   2
  -7  -2   8 16688.2 872.497   2
  -7   2   8 16648.3 1007.64   5
  -7  -2   8 16271.2 1090.39   6
  -7   2   8 14613.1 821.317   2
   7  -2  -8 16042.4 845.756   2
  -7   2   7 13455.6 909.028   5
   7  -2  -7 11896.0 689.997   2
  -7  -2   7 13127.5 975.674   6
  -7   2   7 12243.4 708.313   2
  -7  -2   7 11697.8 690.717   2
   7  -2  -6 4947.03 417.420   2
  -7   2   6 4778.32 407.669   2
  -7   2   6 5408.59 573.467   5
   7   2  -6 4656.23 415.868   1
  -7  -2   6 4655.31 405.831   2
  -7  -2   6 5135.15 595.136   6
   7  -2  -5 1457.94 207.666   2
  -7   2   5 1623.14 345.362   6
  -7   2   5 1660.77 321.842   5
   7   2  -5 1855.84 272.357   1
  -7  -2   5 1743.73 225.102   2
  -7  -2   5 1226.20 306.239   6
   7  -2  -4 4593.72 343.108   2
  -7   2   4 4726.29 547.654   5
  -7  -2   4 4317.34 324.032   2
  -7   2   4 4345.34 560.120   6
   7   2  -4 4023.79 409.337   1
  -7   2   3 2955.07 433.084   6
   7  -2  -3 2991.29 251.661   2
  -7   2   3 2966.39 448.954   5
  -7   2   3 1817.46 316.776   1
  -7  -2   3 2918.88 237.920   2
   7   2  -3 2651.83 360.182   1
   7  -2  -2 12570.9 475.981   2
  -7   2   2 13339.1 953.363   6
  -7  -2   2 12547.1 432.609   2
  -7   2   2 9305.53 737.244   1
   7   2  -2 12649.8 803.513   1
  -7   2   1 82.5753 93.0519   6
  -7  -2   1 22.0033 18.3590   2
  -7  -2   1 24.9205 21.2714   2
  -7   2   1 87.6594 50.6371   1
   7  -2  -1 37.7311 33.0089   2
   7   2  -1 92.3930 103.533   1
  -7   2   0 108.330 89.6493   6
  -7   2   0-89.8069 50.0186   1
   7   2   0 180.637 73.8805   3
   7   2   0 92.1135 65.6002   1
   7  -2   0 94.3905 32.5903   2
   7   2   1 7845.36 680.778   1
   7   2   1 6629.46 511.154   3
   7  -2   1 6250.33 270.812   2
   7  -2   1 5744.10 266.216   2
  -7   2  -1 6531.24 654.052   6
   7   2   2 8432.09 728.366   1
  -7   2  -2 7696.02 719.735   5
   7   2   2 7483.27 538.317   3
   7  -2   2 6605.28 305.324   2
  -7   2  -2 6778.43 678.273   6
   7  -2   2 7194.50 310.442   2
  -7  -2  -2 6387.70 239.979   2
   7   2   3 4898.32 577.858   1
  -7   2  -3 5027.41 587.817   5
   7  -2   3 4070.38 260.011   2
  -7  -2  -3 4287.77 234.189   2
  -7   2  -3 4432.92 538.450   6
   7   2   4 11326.9 898.672   1
  -7  -2  -4 10876.8 853.972   5
  -7  -2  -4 11253.5 441.522   2
  -7   2  -4 11966.8 874.848   6
   7  -2   4 11012.0 484.014   2
  -7   2  -5 453.480 195.476   6
  -7  -2  -5 373.573 88.2202   2
  -7  -2  -5 571.100 197.313   5
   7  -2   5 384.876 102.918   2
   7   2   5 532.718 227.708   1
   7  -2   6 12895.9 621.600   2
  -7  -2  -6 12615.2 936.991   5
   7   2   6 14349.0 1061.11   1
  -7  -2  -6 13102.6 591.792   2
  -7   2  -6 12563.8 886.421   6
  -7  -2  -7 303.159 98.7672   2
  -7  -2  -7 319.900 172.835   5
  -7   2  -7 345.176 158.955   6
   7  -2   7 177.725 91.4576   2
   7   2   7 458.740 190.951   1
  -7   2  -8 2198.65 357.655   6
   7  -2   8 2043.24 283.950   2
   7   2   8 2140.66 282.076   2
  -7  -2  -8 1553.79 332.736   5
   7   2   8 1718.31 372.136   1
  -7  -2  -8 1991.85 266.542   2
  -7   2  -9 62.6971 52.8650   6
  -7  -2  -9 103.305 79.5796   2
  -7  -2  -9 130.056 121.714   5
   7  -2   9 35.9647 40.8990   2
   7   2   9 30.5806 32.3675   2
   7   2   9 114.968 83.2755   1
  -7   2 -10 1654.72 326.915   6
  -7  -2 -10 1499.22 270.217   2
  -7  -2 -10 1453.19 332.923   5
   7  -2  10 1313.04 262.198   2
   7   2  10 1435.33 261.606   2
  -7   2 -10 1364.51 152.572   3
   7   2  10 1841.28 395.371   1
  -7  -2 -10 1425.43 277.926   3
  -7  -2 -11 143.351 119.418   2
  -7   2 -11 129.789 103.225   6
  -7  -2 -11 169.005 151.994   5
  -7  -2 -11 38.0956 90.2248   4
   7   2  11 7.70806 49.2887   2
   7  -2  11 91.3019 86.1103   2
   7   2  11 203.618 188.753   1
  -7   2 -11 201.086 76.0421   3
  -7  -2 -11 346.348 163.644   3
   7  -2  12 3372.67 457.415   2
  -7  -2 -12 4396.00 710.998   4
  -7   2 -12 4013.01 343.188   3
  -7  -2 -12 3799.08 484.421   3
  -7  -2 -12 3987.01 489.806   2
   7   2  12 3698.94 469.060   2
  -7   2 -12 4464.04 518.706   6
   7   2  12 3974.19 630.159   1
  -7   2 -13 1090.09 249.037   6
  -7  -2 -13 847.602 241.166   2
  -7  -2 -13 1037.04 338.054   4
   7   2  13 984.567 336.751   1
  -7  -2 -14 1006.62 268.974   2
  -7   2 -14 1136.25 254.085   6
  -7  -2 -14 1343.38 417.160   4
   7   2  14 1572.44 432.079   1
  -7   2 -15 1594.41 310.370   6
  -7  -2 -15 1535.34 466.205   4
  -7  -2 -15 1356.66 329.064   2
  -7   2 -16 3.87221 48.6701   6
  -7  -2 -16 161.423 218.063   4
  -7  -2 -16 53.9290 69.4875   2
  -7  -2 -17 588.324 286.156   4
  -7  -2 -17 823.868 283.238   2
  -7  -2 -18 1768.65 418.731   2
  -7  -2 -18 2090.92 571.992   4
  -7   2 -19 46.4948 179.390   4
  -7  -2 -19 412.176 298.350   4
  -7  -2 -19 316.444 200.398   2
  -7   2 -20 2837.76 661.516   4
  -7  -2 -20 1298.82 471.440   4
  -7  -2 -20 2395.61 503.415   2
  -7   2 -21-86.6619 123.190   4
  -7  -2 -21 147.476 137.915   4
  -7   2 -22 94.0068 189.985   4
  -7  -2 -22 149.796 225.730   4
  -7   2 -23-607.404 325.429   4
  -7   2 -24 868.979 393.444   4
   7  -3 -26-107.370 149.388   2
   7  -3 -25 104.541 108.139   2
   7  -3 -24 2775.53 655.034   2
   7  -3 -23 231.299 215.145   2
   7  -3 -22 2009.33 510.082   2
   7  -3 -21 319.693 231.601   2
   7  -3 -20 357.778 206.725   2
   7  -3 -19 233.368 125.939   2
  -7   3  19 221.477 103.948   5
  -7   3  18 6992.65 602.920   5
   7  -3 -18 7233.22 854.053   2
  -7   3  17 21.5333 62.1062   5
   7  -3 -17-0.81470 100.286   2
  -7   3  16 9933.09 738.097   5
   7  -3 -16 9385.31 925.493   2
  -7  -3  16 9547.22 870.315   6
  -7  -3  15 1126.30 311.631   6
  -7   3  15 1273.63 267.237   5
   7  -3 -15 1659.29 375.122   2
  -7  -3  15 949.476 123.262   4
  -7   3  14 3968.21 472.907   5
  -7  -3  14 3672.16 537.388   6
   7  -3 -14 4151.04 571.241   2
  -7  -3  13-22.7084 117.292   6
  -7   3  13-2.68017 54.3518   5
   7  -3 -13-66.8149 82.2362   2
  -7  -3  12 2136.50 423.332   6
  -7   3  12 2218.65 362.017   5
   7  -3 -12 2632.38 415.279   2
  -7  -3  11 766.409 266.409   6
  -7   3  11 501.832 217.988   5
  -7  -3  11 481.414 189.469   2
   7  -3 -11 223.535 127.382   2
   7  -3 -10 5283.14 549.397   2
  -7   3  10 4220.74 499.863   5
  -7   3  10 4539.62 521.008   2
  -7  -3  10 5016.91 608.111   6
  -7  -3  10 4945.60 546.706   2
  -7  -3   9 129.414 96.1351   2
  -7   3   9 372.161 182.830   5
   7  -3  -9 272.744 129.770   2
   7   3  -9 207.801 99.0683   1
  -7  -3   9 446.978 241.293   6
  -7   3   9 196.761 105.394   2
  -7   3   8-10.2641 92.9932   5
  -7  -3   8 89.3174 48.9889   2
   7  -3  -8-33.4999 99.6564   2
  -7   3   8 80.9215 44.0783   2
   7   3  -8 167.556 61.1314   1
  -7  -3   8-2.44763 87.7107   6
  -7  -3   7 146.054 106.694   2
  -7   3   7 80.5231 74.0665   5
   7  -3  -7 144.293 92.2985   2
  -7   3   7 113.139 80.7294   2
   7   3  -7 79.9288 37.6168   1
  -7  -3   7 73.4725 131.169   6
   7   3  -6 916.972 189.766   1
  -7  -3   6 815.705 185.414   2
  -7   3   6 757.299 214.095   5
   7  -3  -6 778.545 170.847   2
  -7  -3   6 580.555 210.535   6
  -7  -3   5 259.189 151.296   6
  -7  -3   5 486.261 136.473   2
   7   3  -5 460.067 133.307   1
  -7   3   5 467.571 184.484   5
   7  -3  -5 504.400 141.896   2
   7   3  -4 5077.49 482.624   1
  -7   3   4 4675.64 549.310   5
   7  -3  -4 4526.33 387.529   2
  -7  -3   4 5222.62 413.687   2
  -7  -3   4 4981.41 606.794   6
  -7  -3   3 254.710 90.2882   2
   7   3  -3 352.822 148.492   1
  -7   3   3 386.163 179.153   5
   7  -3  -3 222.176 72.8197   2
   7   3  -2 9978.32 720.208   1
  -7   3   2 9845.15 822.291   5
   7  -3  -2 9657.20 525.242   2
   7  -3  -2 9814.17 443.102   3
  -7  -3   2 9712.43 500.436   2
  -7  -3   1 1829.03 207.393   2
  -7   3   1 1741.97 356.653   5
   7   3  -1 2151.19 359.504   1
   7  -3  -1 1498.28 136.176   3
   7  -3  -1 1960.20 225.287   2
   7   3   0 5155.06 550.112   1
   7   3   0 5020.10 500.583   3
   7  -3   0 4938.73 353.278   2
  -7  -3   0 5409.24 348.410   2
  -7   3   0 5050.35 582.403   6
  -7   3  -1 242.405 120.175   6
  -7  -3  -1 237.722 67.9845   2
   7   3   1 319.183 148.163   1
   7  -3   1 173.967 62.3441   2
   7   3   1 182.073 106.583   3
  -7   3  -2 72.4391 85.1866   6
   7   3   2 325.386 183.944   1
   7   3   2 165.565 95.9537   3
   7  -3   2 282.481 89.2192   2
   7  -3   2 184.368 65.3465   2
  -7  -3  -2 256.317 77.3704   2
  -7   3  -3 1033.89 251.850   6
   7   3   3 1684.31 348.871   1
  -7  -3  -3 1251.65 173.821   2
   7   3   3 1186.68 248.550   3
   7  -3   3 1408.42 201.649   2
   7   3   4 9957.99 851.146   1
  -7  -3  -4 9879.17 520.980   2
   7  -3   4 9004.31 530.031   2
  -7   3  -4 9636.76 783.554   6
  -7   3  -5 1626.07 319.070   6
  -7  -3  -5 1701.98 227.746   2
   7   3   5 2317.35 434.065   1
   7  -3   5 1578.18 233.886   2
  -7  -3  -6 17579.6 782.431   2
   7   3   6 16908.8 1170.20   1
  -7   3  -6 16510.9 1017.12   6
  -7  -3  -6 17115.6 1090.63   5
   7  -3   6 15997.0 781.338   2
   7   3   7 583.102 229.905   1
  -7   3  -7 571.536 184.141   6
  -7  -3  -7 696.678 219.435   5
   7  -3   7 665.944 166.449   2
  -7  -3  -7 721.640 166.567   2
  -7   3  -8 1495.50 292.784   6
  -7  -3  -8 1505.70 327.857   5
   7  -3   8 1240.63 239.220   2
  -7  -3  -8 1275.93 359.075   4
  -7  -3  -8 1554.87 262.450   2
   7   3   8 1687.47 388.673   1
  -7   3  -9 825.945 224.155   6
  -7  -3  -9 812.393 249.471   5
  -7  -3  -9 678.464 191.150   2
   7  -3   9 744.075 197.061   2
  -7  -3  -9 823.885 295.980   4
   7   3   9 1099.97 352.188   1
   7   3  10 5633.80 725.910   1
   7   3  10 4765.35 501.727   2
  -7  -3 -10 5274.22 620.061   5
  -7  -3 -10 5905.22 793.711   4
  -7   3 -10 4534.02 201.422   3
  -7  -3 -10 4474.34 536.533   3
  -7  -3 -10 4794.40 504.057   2
  -7   3 -10 5214.24 556.066   6
   7  -3  10 4566.51 515.783   2
  -7   3 -11 1020.37 252.785   6
  -7  -3 -11 983.248 260.969   2
  -7  -3 -11 839.133 262.095   5
   7  -3  11 1227.40 280.657   2
  -7  -3 -11 832.274 315.559   4
   7   3  11 1272.17 274.224   2
   7   3  11 1478.48 408.147   1
   7   3  12 4637.49 710.736   1
  -7  -3 -12 4146.28 553.134   5
  -7  -3 -12 4193.15 705.759   4
  -7  -3 -12 3985.13 513.846   2
  -7   3 -12 4261.24 496.280   6
  -7   3 -13 29.3513 69.2091   6
  -7  -3 -13 264.159 172.562   2
  -7  -3 -13 9.39467 61.9682   5
  -7  -3 -13 33.6276 146.317   4
   7   3  13-109.845 76.3590   1
  -7   3 -14-66.0015 76.8486   6
  -7  -3 -14-157.307 161.886   2
  -7  -3 -14 102.546 223.832   4
   7   3  14-209.848 228.411   1
  -7   3 -15-35.3747 37.0278   6
  -7  -3 -15-14.4534 79.2301   2
  -7  -3 -15-60.7677 139.453   4
   7   3  15 74.3499 182.920   1
  -7  -3 -16 3586.82 719.755   4
   7   3  16 4053.40 716.561   1
  -7  -3 -16 3482.16 553.463   2
  -7  -3 -17 349.545 208.068   2
  -7  -3 -17 609.759 350.671   4
   7   3  17 81.4136 123.413   1
  -7  -3 -18 6938.57 1049.62   4
  -7  -3 -18 5540.97 742.061   2
   7   3  18 6321.68 944.909   1
  -7  -3 -19 626.552 363.202   4
  -7  -3 -19 1267.45 366.821   2
  -7  -3 -20 1927.41 454.538   2
  -7  -3 -20 1463.47 528.629   4
  -7  -3 -21 163.843 206.146   4
  -7   3 -21 73.9764 89.2826   4
  -7   3 -22-37.0245 109.118   4
  -7  -3 -22-86.2102 252.420   4
  -7   3 -23 192.954 215.173   4
  -7   3 -24-246.656 219.724   4
   7  -4 -26 490.488 299.559   2
   7  -4 -25 838.066 423.165   2
   7  -4 -24 672.337 354.157   2
   7  -4 -23 977.052 347.409   2
   7  -4 -22 267.678 218.184   2
   7  -4 -21 184.295 126.501   2
   7  -4 -20 7.60061 81.8061   2
   7  -4 -19 287.640 192.164   2
   7  -4 -18 1789.12 449.607   2
  -7  -4  17 9.29465 109.764   6
   7  -4 -17 114.281 74.5939   2
   7  -4 -16 1908.35 430.544   2
  -7  -4  16 2132.70 429.417   6
   7  -4 -15 544.824 244.483   2
  -7  -4  15 244.888 153.336   6
   7  -4 -14 751.531 237.846   2
  -7  -4  14 1014.73 292.807   6
  -7  -4  13 1296.68 336.298   6
   7  -4 -13 799.558 264.859   2
   7   4 -12 1670.95 180.316   1
   7  -4 -12 2282.81 403.900   2
  -7  -4  12 2692.55 466.577   6
   7   4 -11 13245.0 579.957   1
   7  -4 -11 14935.3 1010.08   2
  -7   4  11 14340.7 924.790   5
  -7  -4  11 12018.4 448.023   4
  -7  -4  11 13574.4 1023.40   6
   7   4 -10 4154.17 352.571   1
   7  -4 -10 4934.67 577.235   2
  -7  -4  10 5216.32 633.160   6
  -7   4   9 23689.6 1205.82   2
   7   4  -9 21711.4 857.822   1
   7  -4  -9 24816.2 1220.20   2
  -7  -4   9 21928.3 1165.89   2
  -7  -4   9 24330.2 1361.68   6
   7   4  -8 2864.01 330.669   1
   7  -4  -8 3192.70 422.881   2
  -7  -4   8 3029.01 417.546   2
  -7  -4   8 3573.04 518.216   6
   7   4  -7 14357.8 771.013   1
   7  -4  -7 14807.3 876.094   2
  -7  -4   7 13594.2 844.767   2
  -7  -4   7 12479.7 989.207   6
  -7  -4   6 34.1691 50.7047   2
   7   4  -6 73.3447 77.7258   1
  -7  -4   6-19.7438 83.8396   6
   7  -4  -6-2.04548 63.9806   2
   7   4  -5 7.38549 45.8784   1
   7  -4  -5-85.1920 84.9675   2
  -7  -4   5 47.3693 43.1503   2
   7  -4  -4 1935.31 288.450   2
  -7  -4   4 2180.05 303.354   2
   7   4  -4 2152.75 342.792   1
   7   4  -3 9876.11 730.353   1
   7  -4  -3 9336.21 537.923   3
   7  -4  -3 9987.88 628.620   2
  -7  -4   3 9505.93 612.146   2
   7   4  -2 4296.54 503.294   1
   7  -4  -2 4647.18 341.547   3
   7  -4  -2 4036.78 390.265   2
   7   4  -1 4928.44 541.713   1
   7   4  -1 4709.10 540.095   3
   7  -4  -1 4403.71 402.487   2
  -7  -4   0 4828.29 405.009   2
   7   4   0 5287.45 580.625   1
   7   4   0 4803.69 535.389   3
   7  -4   0 5012.73 423.236   2
   7  -4   1 4305.82 395.293   2
   7   4   1 4089.43 524.662   1
   7   4   1 4375.18 509.052   3
  -7  -4  -1 3967.64 369.454   2
  -7  -4  -2 419.412 125.056   2
   7   4   2 861.426 268.166   1
  -7  -4  -2 799.151 249.039   4
   7   4   2 343.118 161.216   3
   7   4   3 14082.6 1028.45   1
  -7  -4  -3 13403.3 1014.23   4
   7   4   3 13212.0 883.332   3
  -7  -4  -3 12270.6 663.823   2
   7   4   4 7310.19 752.102   1
  -7  -4  -4 7442.62 766.314   4
  -7  -4  -4 7702.35 531.842   2
   7  -4   4 7289.39 563.792   2
   7   4   5 6700.43 750.634   1
  -7  -4  -5 5685.89 473.606   2
  -7  -4  -5 4914.84 648.146   4
   7  -4   5 5059.82 476.304   2
   7   4   6 6541.28 747.411   1
  -7  -4  -6 6438.80 526.273   2
  -7  -4  -6 7486.67 805.360   4
   7  -4   6 5903.50 529.965   2
   7  -4   7 840.870 206.571   2
  -7  -4  -7 1103.22 339.502   4
   7   4   7 974.307 322.738   1
  -7  -4  -7 985.185 225.598   2
   7  -4   8 331.584 130.883   2
  -7  -4  -8 285.946 119.454   5
  -7  -4  -8 200.475 132.302   4
   7   4   8 414.291 185.678   1
  -7  -4  -8 322.909 135.908   2
   7  -4   9 849.306 229.362   2
  -7  -4  -9 727.764 223.492   5
   7   4   9 1101.25 327.496   1
  -7  -4  -9 1175.48 354.502   4
  -7  -4  -9 1096.68 251.882   2
   7  -4  10 2062.88 364.656   2
   7   4  10 2484.01 496.831   1
  -7  -4 -10 2168.40 400.354   5
  -7  -4 -10 2070.15 350.782   2
  -7  -4 -10 2497.25 544.052   4
   7   4  11 2911.28 550.768   1
  -7  -4 -11 2664.73 415.998   2
  -7  -4 -11 2160.67 420.759   5
  -7  -4 -11 2471.29 549.881   4
   7   4  12 1109.71 369.083   1
  -7  -4 -12 788.331 261.951   5
  -7  -4 -12 753.315 227.149   2
  -7  -4 -12 877.067 336.247   4
  -7  -4 -13 1886.39 378.067   5
  -7  -4 -13 1823.68 365.655   2
  -7  -4 -13 2525.93 565.455   4
   7   4  13 2500.32 527.170   1
  -7  -4 -14-16.4139 77.5518   2
  -7  -4 -14-135.386 136.251   5
  -7  -4 -14 84.6591 97.7376   4
   7   4  14 107.317 90.2123   1
  -7  -4 -15 2152.08 430.029   2
  -7  -4 -15 2698.53 607.128   4
   7   4  15 1886.37 473.960   1
  -7  -4 -16 312.934 157.683   2
  -7  -4 -16 209.321 244.005   4
   7   4  16 246.912 230.154   1
  -7  -4 -17 29.0867 132.960   2
  -7  -4 -17 284.105 261.280   4
   7   4  17-123.767 234.657   1
  -7  -4 -18 1332.48 381.461   2
  -7  -4 -18 2211.08 608.009   4
   7   4  18 2181.65 578.771   1
  -7  -4 -19 696.972 274.691   2
  -7  -4 -19 688.427 407.368   4
   7   4  19 1145.94 401.830   1
  -7  -4 -20 425.046 242.055   2
   7   4  20 459.654 301.083   1
  -7  -4 -20 560.967 336.476   4
  -7  -4 -21 1165.97 448.890   4
   7   4  21 1472.71 514.213   1
  -7   4 -22 28.2918 96.2665   4
  -7   4 -23-40.7213 111.584   4
   7  -5 -25 453.207 367.407   2
   7  -5 -24 584.767 349.693   2
   7  -5 -23 1379.92 444.872   2
   7  -5 -22 211.476 183.757   2
   7  -5 -21 88.6476 100.087   2
   7  -5 -20-20.8079 89.4528   2
   7  -5 -19 1938.39 484.032   2
   7  -5 -18 884.930 326.198   2
  -7  -5  18 473.223 221.773   6
   7  -5 -17 4047.03 660.095   2
  -7  -5  17 3980.41 571.774   6
  -7  -5  16 1138.08 311.447   6
   7  -5 -16 713.772 266.161   2
  -7  -5  15 1249.17 319.096   6
   7  -5 -15 1114.17 336.161   2
  -7  -5  14 146.311 71.1664   6
   7  -5 -14 129.783 113.214   2
   7   5 -14 77.6711 41.8766   1
  -7  -5  13 1510.55 342.744   6
   7   5 -13 1730.81 202.513   1
   7  -5 -13 1422.62 330.168   2
   7  -5 -12 494.796 207.135   2
   7   5 -12 88.8196 67.6069   1
  -7  -5  12 708.912 266.228   6
   7  -5 -11 17456.4 1160.49   2
   7   5 -11 17412.6 760.127   1
  -7  -5  11 17058.7 1164.53   6
   7  -5 -10 2345.23 418.705   2
   7   5 -10 1451.18 238.982   1
  -7  -5  10 2394.71 457.217   6
   7  -5  -9 22021.6 1214.79   2
   7   5  -9 22172.0 954.675   1
  -7  -5   9 20194.4 678.553   4
  -7  -5   9 19725.3 1271.92   6
  -7  -5   8 5873.29 412.680   4
   7   5  -8 4863.58 464.996   1
   7  -5  -8 6279.69 633.685   2
  -7  -5   8 5764.68 608.348   2
  -7  -5   8 5574.42 695.589   6
  -7  -5   7 4290.35 383.982   4
   7   5  -7 4652.70 471.899   1
   7  -5  -7 4225.68 496.545   2
  -7  -5   7 3994.73 489.970   2
  -7  -5   6 2398.15 307.942   4
   7   5  -6 2622.08 381.713   1
   7  -5  -6 2521.55 371.410   2
   7  -5  -6 2261.85 340.590   3
  -7  -5   6 1992.22 333.867   2
   7  -5  -5 2269.41 350.553   2
  -7  -5   5 2360.76 329.946   4
   7   5  -5 2399.84 364.587   1
   7  -5  -5 2068.36 312.988   3
  -7  -5   5 1930.45 328.725   2
   7  -5  -4 165.394 124.560   2
   7   5  -4 294.761 168.129   1
  -7  -5   4 334.327 136.826   4
   7  -5  -4 145.223 87.8568   3
  -7  -5   3 27571.7 1224.04   4
   7   5  -3 26116.1 1253.20   1
   7  -5  -3 25593.0 983.416   3
   7  -5  -3 26325.2 1156.10   2
   7  -5  -2 135.473 97.9592   2
  -7  -5   2 189.175 158.213   4
   7  -5  -2 159.622 72.7303   3
  -7  -5   1 12711.6 894.413   4
   7   5  -1 13854.4 965.972   1
   7   5  -1 13409.8 966.190   3
   7  -5  -1 13471.6 800.559   2
  -7  -5   0 178.817 135.217   4
   7   5   0 2.04997 69.8519   1
   7  -5   0-52.1316 77.4898   2
   7   5   0-57.8459 60.4762   3
  -7  -5   0-67.1176 85.1518   2
   7   5   1 320.788 124.406   1
  -7  -5  -1 312.871 150.518   4
  -7  -5  -1 248.128 123.949   2
   7   5   1 221.466 133.379   3
   7  -5   1 260.089 105.000   2
   7   5   2 1471.60 344.629   1
  -7  -5  -2 1108.05 221.581   2
  -7  -5  -2 1532.55 351.780   4
   7   5   2 1928.92 364.715   3
   7   5   3 6485.53 720.314   1
  -7  -5  -3 6336.38 709.786   4
   7   5   3 7272.08 727.640   3
  -7  -5  -3 5711.61 521.923   2
  -7  -5  -4 254.526 137.664   2
  -7  -5  -4 387.193 193.689   4
   7   5   4 223.051 149.865   3
   7   5   4 325.435 225.776   1
   7   5   5 11760.4 1014.15   1
  -7  -5  -5 11092.1 1006.63   4
  -7  -5  -5 10933.1 739.549   2
   7  -5   5 9183.65 731.148   2
   7   5   6 1185.72 357.400   1
  -7  -5  -6 1121.60 380.770   4
  -7  -5  -6 751.284 201.801   2
   7  -5   6 910.384 240.845   2
   7   5   7 6083.30 754.912   1
  -7  -5  -7 5704.96 563.597   2
  -7  -5  -7 6898.51 828.995   4
   7  -5   7 4982.27 553.267   2
  -7  -5  -8 270.383 209.887   4
  -7  -5  -8 502.628 179.918   2
   7   5   8 419.429 241.298   1
   7  -5   8 310.345 141.702   2
  -7  -5  -9 8.46659 99.3987   5
  -7  -5  -9 256.185 184.083   4
  -7  -5  -9-46.0584 97.7612   2
   7   5   9-98.1300 153.421   1
  -7  -5 -10-36.6009 75.5443   5
  -7  -5 -10 163.076 190.902   4
  -7  -5 -10 47.4259 68.8328   2
   7   5  10 236.158 207.996   1
  -7   5 -10 51.6543 35.9079   3
  -7  -5 -11 3561.88 512.315   2
  -7  -5 -11 3432.71 514.457   5
  -7  -5 -11 4185.64 730.205   4
   7   5  11 3819.34 662.801   1
  -7  -5 -12-30.8865 56.8193   5
   7   5  12 177.118 195.096   1
  -7  -5 -12 6.19252 54.6235   2
  -7  -5 -12 226.571 189.800   4
  -7  -5 -13 5224.03 650.257   2
   7   5  13 5254.25 817.762   1
  -7  -5 -13 5040.44 615.039   5
  -7  -5 -13 4905.67 802.980   4
   7   5  14 413.019 206.132   1
  -7  -5 -14 185.042 132.715   5
  -7  -5 -14 192.616 137.396   2
  -7  -5 -14 504.696 266.475   4
   7   5  15 1268.67 421.159   1
  -7  -5 -15 1570.05 343.310   5
  -7  -5 -15 1244.93 353.375   2
  -7  -5 -15 1428.94 467.665   4
  -7  -5 -16 890.219 298.283   2
  -7  -5 -16 1228.04 440.492   4
   7   5  16 1456.20 450.466   1
  -7  -5 -17 230.938 161.459   2
  -7  -5 -17 369.885 277.897   4
   7   5  17 269.659 237.475   1
  -7  -5 -18 397.552 218.160   2
  -7  -5 -18 707.366 417.020   4
   7   5  18 366.647 270.490   1
  -7  -5 -19 1564.95 412.318   2
  -7  -5 -19 1683.44 526.811   4
   7   5  19 1334.65 446.154   1
   7   5  20-361.591 252.304   1
   7   5  21 643.022 288.653   1
  -7   5 -23-498.832 290.581   4
   7  -6 -24 841.105 389.706   2
   7  -6 -23 1397.12 486.302   2
   7  -6 -22 236.069 247.207   2
   7  -6 -21 64.9295 93.8208   2
   7  -6 -20 200.480 171.601   2
   7  -6 -19 1916.42 499.817   2
  -7  -6  18 577.170 206.077   6
   7  -6 -18 690.482 286.586   2
  -7  -6  17 5339.91 677.951   6
   7  -6 -17 5103.42 761.876   2
  -7  -6  16 828.830 284.506   6
   7  -6 -16 671.198 292.216   2
  -7  -6  15 1318.35 336.349   6
   7  -6 -15 1161.87 328.691   2
   7   6 -14 281.480 94.8392   1
   7  -6 -14 87.6386 112.703   2
  -7  -6  14 170.105 141.324   6
   7  -6 -13 491.514 213.689   2
  -7  -6  13 916.209 282.699   6
   7  -6 -12 1326.27 377.794   2
  -7  -6  12 1034.94 316.185   6
   7  -6 -11 5667.38 687.639   2
  -7  -6  11 7033.18 765.058   6
   7  -6 -10 3860.30 561.854   2
  -7  -6  10 2652.05 500.915   6
   7  -6  -9 4050.16 560.020   2
   7  -6  -8 776.470 244.881   2
   7  -6  -7-168.042 158.235   2
   7  -6  -7 180.682 109.742   3
   7  -6  -6 43.5959 95.3140   2
   7  -6  -6 194.868 130.626   3
   7  -6  -5 1451.05 309.042   2
  -7  -6   5 1603.67 270.988   4
   7  -6  -5 1005.43 233.065   3
   7  -6  -4 918.501 255.277   2
  -7  -6   4 1238.29 259.241   4
   7  -6  -4 937.390 222.698   3
  -7  -6   3 10056.0 756.894   4
   7  -6  -3 8433.22 618.182   3
   7  -6  -3 9040.79 738.974   2
  -7  -6   2 4408.30 527.110   4
   7   6  -2 5980.52 713.622   3
   7  -6  -2 4894.93 536.218   2
  -7  -6   1 4813.32 563.433   4
   7   6  -1 4010.47 569.038   3
   7  -6  -1 4605.41 524.329   2
  -7  -6   0 1355.05 312.075   4
   7  -6   0 1534.30 292.807   2
   7   6   0 1259.27 315.188   3
  -7  -6   0 1747.72 305.148   2
  -7  -6  -1-30.6681 91.3340   4
   7   6   1 191.641 138.861   1
  -7  -6  -1 60.7527 58.6243   2
   7   6   1 25.1901 84.6960   3
   7  -6   1-40.7689 91.6210   2
   7   6   2 89.9137 122.050   1
  -7  -6  -2 338.991 130.965   2
  -7  -6  -2 514.905 197.289   4
   7   6   2 212.475 161.752   3
  -7  -6  -3 3277.70 536.788   4
   7   6   3 3371.92 538.340   3
  -7  -6  -3 2839.28 414.203   2
  -7  -6  -4 4121.79 612.700   4
   7   6   4 5929.27 745.081   1
   7   6   4 4091.80 596.924   3
  -7  -6  -4 4868.49 541.969   2
   7   6   5 13599.5 1128.86   1
  -7  -6  -5 14271.0 1170.50   4
  -7  -6  -5 12165.9 873.431   2
   7   6   6 7489.00 862.746   1
  -7  -6  -6 7119.87 854.855   4
  -7  -6  -6 5724.89 603.980   2
   7   6   7 8129.22 898.083   1
  -7  -6  -7 8527.47 958.807   4
  -7  -6  -7 7831.31 725.101   2
  -7  -6  -8 127.155 174.398   4
   7   6   8 265.875 215.397   1
  -7  -6  -8 91.7289 116.406   2
   7   6   9 273.814 146.622   1
  -7  -6  -9 66.4358 80.6179   4
  -7   6  -9 174.316 54.5188   3
  -7  -6  -9-14.5121 66.8237   2
   7   6  10 1632.98 444.589   1
  -7  -6 -10 1181.61 290.513   5
  -7  -6 -10 1800.81 471.964   4
  -7  -6 -10 1085.02 291.275   2
  -7  -6 -11 2194.08 425.486   5
  -7  -6 -11 2559.38 576.224   4
  -7  -6 -11 2100.55 407.786   2
   7   6  11 1935.30 473.047   1
  -7  -6 -12 390.957 155.283   5
  -7  -6 -12 534.576 269.242   4
  -7  -6 -12 469.618 204.836   2
   7   6  12 477.602 282.663   1
  -7  -6 -13 1592.50 356.326   5
  -7  -6 -13 1345.50 344.182   2
  -7  -6 -13 1476.11 461.280   4
   7   6  13 1869.65 486.827   1
  -7  -6 -14 268.324 173.527   5
  -7  -6 -14-57.7834 123.254   2
   7   6  14 59.0121 127.301   1
  -7  -6 -14 373.425 326.280   4
  -7  -6 -15 174.898 125.688   5
   7   6  15 172.516 189.311   1
  -7  -6 -15 255.889 171.311   2
  -7  -6 -15 222.553 160.143   4
   7   6  16 335.713 232.001   1
  -7  -6 -16 324.842 162.286   2
   7   6  17 1836.83 495.679   1
  -7  -6 -17 1888.56 472.180   2
  -7  -6 -18 423.558 224.561   2
   7   6  18 1000.20 396.569   1
  -7  -6 -19 1889.66 470.836   2
   7   6  19 2494.45 650.719   1
   7  -7 -23 48.6092 152.032   2
   7  -7 -22 735.257 376.145   2
   7  -7 -21-167.025 233.463   2
   7  -7 -20 33.9174 104.873   2
   7  -7 -19 545.327 281.058   2
   7  -7 -18-53.0841 155.107   2
  -7  -7  17 956.650 308.248   6
   7  -7 -17 877.078 361.673   2
  -7  -7  16 305.420 188.556   6
   7  -7 -16 189.753 176.274   2
  -7  -7  15 397.627 202.831   6
   7  -7 -15 400.575 276.227   2
   7  -7 -14 99.6478 142.661   2
  -7  -7  14 104.181 125.223   6
   7  -7 -13 260.086 112.647   2
  -7  -7  13 114.340 129.304   6
   7  -7 -12 4665.49 662.620   2
  -7  -7  12 4389.57 626.490   6
   7  -7 -11 534.470 274.571   2
  -7  -7  11 944.058 293.254   6
   7  -7 -10 17568.4 1250.74   2
   7  -7  -9 1516.38 379.183   2
   7  -7  -8 16669.6 1168.07   2
   7  -7  -7 384.193 203.115   2
   7  -7  -6 2735.00 421.473   3
   7  -7  -6 3550.93 514.161   2
   7  -7  -5 51.0783 114.984   2
   7  -7  -5 92.1900 88.5521   3
   7  -7  -4 1626.18 344.823   2
   7  -7  -4 1650.94 302.108   3
   7  -7  -3 884.350 248.687   2
   7   7  -3 1192.38 329.412   3
   7   7  -2 6333.83 761.827   3
   7  -7  -2 7548.36 731.182   2
   7  -7  -1 598.524 222.582   2
   7   7  -1 708.589 263.033   3
   7   7   0 553.764 229.416   3
   7  -7   0 922.815 254.148   2
  -7  -7   0 921.885 245.940   2
  -7  -7  -1 510.384 222.251   4
  -7  -7  -1 322.595 153.387   2
   7   7   1 749.334 255.923   3
   7  -7   1 893.698 251.134   2
  -7  -7  -2 5050.98 671.281   4
   7   7   2 5328.48 695.678   3
  -7  -7  -2 4587.58 568.763   2
  -7  -7  -3 819.109 245.465   2
  -7  -7  -3 1481.07 367.727   4
   7   7   3 1610.25 413.739   3
  -7  -7  -4 8492.52 898.768   4
   7   7   4 8777.94 914.705   3
  -7  -7  -4 9649.18 832.208   2
  -7  -7  -5 4978.27 699.875   4
   7   7   5 3464.50 611.057   1
  -7  -7  -5 4203.33 555.331   2
  -7  -7  -6 5640.36 771.136   4
   7   7   6 6743.54 854.755   1
  -7  -7  -6 5018.40 617.840   2
  -7  -7  -7 909.597 239.373   2
  -7  -7  -7 1679.61 464.693   4
   7   7   7 1193.31 395.722   1
   7   7   8 54.0779 108.465   1
  -7  -7  -8 129.980 168.528   4
  -7  -7  -8 480.776 192.706   2
  -7  -7  -9-113.540 103.529   4
   7   7   9 72.4738 177.764   1
  -7  -7  -9 350.082 178.094   2
   7   7  10 1271.90 397.266   1
  -7  -7 -10 1134.15 329.752   2
  -7  -7 -11 269.078 188.813   5
   7   7  11 139.762 96.3614   1
  -7  -7 -11 478.899 204.283   2
   7   7  12 804.086 364.535   1
  -7  -7 -12 1006.77 289.732   5
  -7  -7 -12 981.788 302.248   2
  -7  -7 -13-65.6389 121.933   5
  -7  -7 -13 60.4689 107.633   2
   7   7  13-129.285 82.4538   1
  -7  -7 -14 326.792 111.375   5
  -7  -7 -14 567.960 205.930   2
   7   7  14 821.698 353.776   1
  -7  -7 -15-89.3061 127.544   2
   7   7  15 118.028 159.519   1
  -7  -7 -16 72.3011 133.476   2
   7   7  16 73.7908 104.084   1
   7   7  17 27.1634 112.758   1
  -7  -7 -17 152.941 137.548   2
   7   7  18 621.048 316.406   1
  -7  -7 -18 601.713 288.048   2
   7  -8 -22 842.007 380.854   2
   7  -8 -21 215.271 121.111   2
   7  -8 -20 64.0825 146.410   2
   7  -8 -19 220.099 298.212   2
   7  -8 -18 600.383 288.325   2
   7  -8 -17 1588.89 472.028   2
  -7  -8  16 1797.55 405.746   6
   7  -8 -16 1189.70 385.721   2
   7  -8 -15 531.778 240.980   2
  -7  -8  15 550.097 250.493   6
  -7  -8  14 941.457 299.334   6
   7  -8 -14 574.746 275.129   2
   7  -8 -13 6.59601 127.109   2
  -7  -8  13 47.9374 143.892   6
   7  -8 -12 814.385 279.110   2
  -7  -8  12 1134.08 331.444   6
   7  -8 -11-10.9844 119.626   2
   7  -8 -10 4221.49 635.435   2
   7  -8  -9 66.2575 102.603   2
   7  -8  -8 3798.91 616.954   2
   7  -8  -7 769.461 295.141   2
   7  -8  -6 368.743 191.344   2
   7  -8  -5 337.713 166.720   2
   7  -8  -4 2571.42 463.891   2
   7   8  -4 2972.67 538.083   3
   7  -8  -3 537.591 295.232   2
   7   8  -3 247.111 162.025   3
   7  -8  -2 2851.88 489.635   2
   7   8  -2 3545.01 594.519   3
   7  -8  -1 230.888 140.930   2
   7   8  -1 482.611 260.919   3
   7   8   0 97.6594 151.889   3
   7  -8   0 265.922 160.829   2
  -7  -8   0 136.261 111.362   2
  -7  -8  -1 101.208 148.896   2
   7   8   1 100.916 187.489   3
   7  -8   1-5.51890 58.5955   2
  -7  -8  -2 2398.24 440.056   2
   7   8   2 2246.07 486.911   3
  -7  -8  -3 166.117 121.024   2
   7   8   3 214.463 206.103   3
  -7  -8  -4 1717.62 382.586   2
   7   8   4 2091.53 473.521   3
  -7  -8  -5 223.943 145.419   2
  -7  -8  -6 554.025 238.582   2
  -7  -8  -7 627.468 264.407   2
   7   8   7 330.700 193.287   1
   7   8   8 438.303 263.026   1
  -7  -8  -8-62.0825 115.967   2
   7   8   9 117.140 155.214   1
  -7  -8  -9 29.0924 112.969   2
   7   8  10 2274.27 549.661   1
  -7  -8 -10 1810.68 423.016   2
  -7  -8 -11 480.055 219.902   2
   7   8  11 585.927 334.836   1
  -7  -8 -12 2105.33 421.478   5
   7   8  12 3715.71 734.856   1
  -7  -8 -12 2507.24 517.090   2
   7   8  13 266.593 186.892   1
  -7  -8 -13 77.8295 142.675   2
   7   8  14 1004.15 352.292   1
  -7  -8 -14 852.394 298.629   2
  -7  -8 -15 153.187 125.295   2
   7   8  15 367.246 274.339   1
  -7  -8 -16-80.7082 114.679   2
   7   8  16 180.513 178.934   1
  -7  -8 -17 435.452 201.211   2
   7   8  17-7.94928 155.540   1
   7  -9 -21 289.940 213.724   2
   7  -9 -20-69.1908 124.420   2
   7  -9 -19 681.945 313.442   2
   7  -9 -18 2130.80 552.547   2
   7  -9 -17 1800.65 511.851   2
   7  -9 -16 1035.28 390.477   2
   7  -9 -15 937.156 339.719   2
  -7  -9  15 1124.23 333.287   6
  -7  -9  14 8.71989 111.698   6
   7  -9 -14-135.819 180.552   2
   7  -9 -13-11.9306 116.343   2
  -7  -9  13-16.1305 123.078   6
   7  -9 -12 504.748 188.300   2
   7  -9 -11 1718.15 449.951   2
   7  -9 -10 1842.58 459.593   2
   7  -9  -9 1950.68 469.541   2
   7  -9  -8 865.407 308.122   2
   7  -9  -7 222.890 180.111   2
   7  -9  -6-117.769 120.366   2
   7  -9  -5-7.60765 89.6746   2
   7   9  -5 195.012 207.427   3
   7  -9  -4 1542.40 379.081   2
   7   9  -4 1008.80 343.123   3
   7  -9  -3 3429.83 571.828   2
   7   9  -3 2883.86 588.184   3
   7  -9  -2 1447.72 370.400   2
   7   9  -2 1649.96 438.768   3
   7  -9  -1 2598.72 477.078   2
   7   9  -1 1857.62 459.038   3
  -7  -9   1 3130.15 562.523   2
   7   9   0 475.805 268.056   3
   7  -9   0 260.353 146.186   2
  -7  -9  -1 73.2921 123.541   2
   7  -9   1 101.918 99.1380   2
  -7  -9  -2 19.1069 106.003   2
   7   9   2 134.235 160.575   3
  -7  -9  -3 1045.82 308.768   2
   7   9   3 1084.77 366.919   3
  -7  -9  -4 1394.73 396.533   2
   7   9   4 960.800 313.839   3
  -7  -9  -5 3091.84 551.510   2
  -7  -9  -6 2319.89 488.868   2
  -7  -9  -7 1056.54 345.588   2
  -7  -9  -8 408.525 203.598   2
   7   9   8 353.721 205.349   1
   7   9   9-207.322 170.423   1
  -7  -9  -9 188.145 153.039   2
   7   9  10 14.3448 93.9821   1
  -7  -9 -10-74.8447 69.6952   2
   7   9  11 1321.32 431.408   1
  -7  -9 -11 1458.62 404.868   2
  -7  -9 -12 673.458 310.372   2
   7   9  12 479.386 237.525   1
   7   9  13 940.165 451.938   1
  -7  -9 -13 599.971 245.506   2
   7   9  14-50.2147 134.593   1
  -7  -9 -14-233.953 180.170   2
   7   9  15 251.243 240.420   1
  -7  -9 -15-249.938 186.631   2
  -7  -9 -16 165.503 147.847   2
   7 -10 -19 216.058 189.308   2
   7 -10 -18 81.0554 182.077   2
   7 -10 -17-89.2613 145.247   2
   7 -10 -16 142.345 210.242   2
   7 -10 -15 233.096 152.226   2
   7 -10 -14-20.5877 147.690   2
  -7 -10  14 104.928 67.9100   6
   7 -10 -13 31.4862 114.034   2
  -7 -10  13 94.9978 108.503   6
   7 -10 -12 196.279 177.137   2
   7 -10 -11 3829.64 696.322   2
   7 -10 -10 488.143 271.594   2
   7 -10  -9 5643.17 825.857   2
   7 -10  -8 92.3858 127.868   2
   7 -10  -7 1727.30 440.081   2
   7  10  -7 2164.82 545.661   3
   7 -10  -6-46.0423 81.1323   2
   7  10  -6-69.8629 92.4217   3
   7 -10  -5 58.9982 80.5464   2
   7  10  -5 34.5001 175.274   3
   7 -10  -4-35.8848 88.8821   2
   7  10  -4 59.1663 136.077   3
   7 -10  -3 3175.27 582.102   2
   7  10  -3 4299.77 739.369   3
   7 -10  -2 271.095 226.278   2
   7  10  -2 117.256 180.661   3
   7 -10  -1 2295.79 515.319   2
   7  10  -1 1451.84 394.499   3
  -7 -10   1 1874.63 442.246   2
   7  10   0 62.2995 137.317   3
   7 -10   0 4.14369 110.915   2
  -7 -10   0-13.7766 88.5672   2
  -7 -10  -1 177.530 177.298   2
   7  10   1 79.5549 111.124   3
   7 -10   1 317.423 223.700   2
  -7 -10  -2 401.750 167.006   2
   7  10   2 192.356 156.995   3
   7 -10   2 341.704 206.704   2
   7  10   3 4107.54 721.810   3
  -7 -10  -3 3924.21 661.836   2
  -7 -10  -4 154.533 125.235   2
  -7 -10  -5 5233.27 758.001   2
  -7 -10  -6 397.000 241.873   2
  -7 -10  -7 789.239 332.127   2
  -7 -10  -8 235.734 171.972   2
  -7 -10  -9 6.68553 68.0662   2
   7  10  10 117.101 180.783   1
  -7 -10 -10-16.3801 96.4255   2
   7  10  11 1569.75 517.540   1
  -7 -10 -11 1086.59 341.716   2
   7  10  12 138.418 184.867   1
  -7 -10 -12 296.746 258.062   2
   7  10  13 1158.76 436.963   1
  -7 -10 -13 503.925 259.189   2
  -7 -10 -14 211.665 220.319   2
   7 -11 -16 557.337 284.535   2
   7 -11 -15-66.9135 82.1726   2
   7 -11 -14-291.896 210.832   2
   7 -11 -13 267.101 178.848   2
   7 -11 -12 525.220 272.528   2
   7 -11 -11 2623.57 596.843   2
   7 -11 -10 762.222 326.687   2
   7 -11  -9 4292.26 757.962   2
   7  11  -9 5285.04 897.889   3
   7 -11  -8 195.009 202.546   2
   7  11  -8 335.898 280.706   3
   7 -11  -7 1741.80 468.817   2
   7  11  -7 2006.49 531.304   3
   7 -11  -6-135.268 150.439   2
   7  11  -6 165.175 131.342   3
   7 -11  -5 254.872 185.770   2
   7  11  -5 705.295 365.902   3
   7 -11  -4 739.780 262.955   2
   7  11  -4 731.635 356.548   3
   7 -11  -3 2797.18 587.604   2
   7  11  -3 3230.54 670.254   3
   7 -11  -2 1669.30 475.922   2
   7  11  -2 1164.27 420.336   3
  -7 -11   2 1145.46 371.914   2
   7 -11  -1 1887.89 482.748   2
   7  11  -1 1860.92 518.819   3
  -7 -11   1 1747.23 467.307   2
   7 -11   0 64.4815 142.111   2
  -7 -11   0 157.030 81.0114   2
  -7 -11  -1-76.5600 159.260   2
   7  11   1-158.230 178.395   3
   7 -11   1-85.9828 167.957   2
  -7 -11  -2-31.7739 120.949   2
   7  11   2 343.970 205.181   3
   7 -11   2 325.734 237.593   2
  -7 -11  -3 1898.59 472.422   2
   7  11   3 1616.33 488.366   3
   7 -11   3 1821.78 471.708   2
  -7 -11  -4 264.987 188.357   2
  -7 -11  -5 3151.95 622.056   2
  -7 -11  -6 1258.02 401.405   2
  -7 -11  -7 757.760 337.702   2
  -7 -11  -8 561.615 279.090   2
  -7 -11  -9 0.57625 80.4520   2
  -7 -11 -10 145.529 152.822   2
  -7 -11 -11 72.8796 86.9617   2
  -7 -11 -12 268.449 182.162   2
  -7 -11 -13 35.9644 140.871   2
   7 -12 -13 129.965 100.675   2
   7 -12 -12 597.852 260.375   2
   7 -12 -11 412.687 253.475   2
   7 -12 -10 1401.88 463.422   2
   7  12 -10 1049.33 418.853   3
   7 -12  -9 343.622 224.845   2
   7  12  -9 571.933 372.639   3
   7 -12  -8 588.911 325.868   2
   7  12  -8 1022.24 557.359   3
   7 -12  -7-30.7990 113.835   2
   7  12  -7 374.910 264.396   3
   7 -12  -6-210.607 190.671   2
   7  12  -6 7.39829 107.574   3
   7 -12  -5-262.720 205.692   2
   7  12  -5-30.0002 105.724   3
   7 -12  -4 867.434 380.030   2
   7  12  -4 2139.55 582.802   3
   7 -12  -3 392.927 214.163   2
   7  12  -3 235.561 185.260   3
   7 -12  -2 1560.90 466.845   2
   7  12  -2 1555.36 485.174   3
  -7 -12   2 1768.30 506.677   2
   7 -12  -1 304.720 245.078   2
   7  12  -1 259.399 217.774   3
  -7 -12   1 55.3719 183.203   2
   7 -12   0 410.397 176.691   2
   7  12   0-11.2943 114.473   3
  -7 -12   0 583.039 309.306   2
  -7 -12  -1-158.828 216.960   2
   7  12   1 189.286 245.158   3
   7 -12   1-371.436 234.642   2
  -7 -12  -2 222.997 218.045   2
   7  12   2 132.590 90.3307   3
   7 -12   2 240.611 217.000   2
  -7 -12  -3 112.236 204.294   2
   7 -12   3 358.957 243.970   2
  -7 -12  -4 437.327 252.056   2
   7 -12   4 1847.88 524.122   2
  -7 -12  -5 568.404 278.503   2
  -7 -12  -6 1141.56 397.697   2
  -7 -12  -7 275.131 239.607   2
  -7 -12  -8 627.664 302.164   2
  -7 -12  -9-128.857 146.953   2
  -7 -12 -10-15.6467 82.7083   2
  -7 -12 -11 225.384 131.854   2
   7 -13  -9 187.669 190.169   2
   7 -13  -8 530.938 327.777   2
   7 -13  -7-292.949 224.616   2
   7 -13  -6 107.338 183.715   2
   7 -13  -5 39.8495 170.023   2
   7 -13  -4 334.949 271.929   2
   7 -13  -3 116.022 132.126   2
  -7 -13   3 28.5032 94.9962   2
   7 -13  -2 903.680 370.758   2
  -7 -13   2 419.862 248.592   2
   7 -13  -1 359.399 248.082   2
  -7 -13   1 377.807 251.433   2
   7 -13   0-5.30013 92.0333   2
  -7 -13   0-42.5610 192.248   2
  -7 -13  -1 278.031 208.917   2
   7 -13   1 23.1645 144.577   2
  -7 -13  -2 213.799 219.133   2
   7 -13   2 481.064 287.903   2
  -7 -13  -3-227.946 196.199   2
   7 -13   3-355.736 244.565   2
  -7 -13  -4 544.202 318.481   2
   7 -13   4 1056.05 417.953   2
  -7 -13  -5-153.431 168.553   2
   7 -13   5 105.023 144.702   2
  -7 -13  -6 212.405 187.926   2
  -7 -13  -7 546.673 317.903   2
   8   0 -27 35.1752 95.9490   2
   8   0 -26-83.8010 164.925   2
   8   0 -25-293.668 222.373   2
   8   0 -24 137.132 200.507   2
   8   0 -23 244.953 242.156   2
   8   0 -22-725.322 303.682   2
   8   0 -21-581.813 263.202   2
   8   0 -20 645.329 282.776   2
   8   0 -19 94.0772 121.404   2
   8   0 -18 3363.16 563.171   2
   8   0 -17 491.862 253.702   2
   8   0 -16 12617.2 1031.82   2
   8   0 -15 186.343 136.229   2
   8   0 -14 8286.94 773.049   2
   8   0 -13-50.4454 59.8109   2
   8   0 -12 33.2055 99.1865   2
  -8   0  12 37.7027 45.0915   2
  -8   0  11 127.901 81.2243   6
  -8   0  11 50.7099 59.9993   2
   8   0 -11 14.0146 81.8880   2
  -8   0  10 9129.13 691.957   2
   8   0 -10 10179.8 708.861   2
  -8   0  10 9682.64 912.897   6
  -8   0   9 48.7639 90.4907   6
  -8   0   9-9.92109 54.4379   2
   8   0  -9 45.3171 75.9221   2
  -8   0   8 9291.43 611.151   1
  -8   0   8 9291.74 605.282   2
   8   0  -8 9713.01 614.774   2
  -8   0   8 9940.58 918.604   6
  -8   0   7 85.3096 106.770   6
  -8   0   7-23.3494 26.5953   2
  -8   0   7-54.8054 73.0120   1
   8   0  -7 16.8705 48.6425   2
  -8   0   6 136.407 81.9954   6
  -8   0   6 23.9391 34.1483   2
  -8   0   6 30.3228 56.3845   1
  -8   0   5 29.8159 130.460   6
  -8   0   5 34.7376 31.8082   2
  -8   0   5 124.593 90.0643   1
  -8   0   4 13733.7 882.915   1
  -8   0   4 14019.0 1018.22   5
  -8   0   4 14069.9 1062.58   6
  -8   0   3 235.827 197.707   6
  -8   0   3 84.8982 69.9174   5
  -8   0   3 178.852 145.870   1
  -8   0   2 31116.2 1526.91   5
  -8   0   2 29800.2 1370.64   1
  -8   0   2 32030.6 1586.54   6
  -8   0   1 89.7025 133.366   6
  -8   0   1-32.7902 108.368   5
  -8   0   0 412.297 146.211   5
   8   0   0 751.437 126.045   3
  -8   0   0 796.158 246.308   6
  -8   0  -1-7.63519 77.0489   5
   8   0   1 37.1149 38.6212   3
  -8   0  -1-76.5124 119.708   6
  -8   0  -2 6490.56 713.445   5
  -8   0  -2 6111.43 688.074   6
  -8   0  -3-110.196 115.227   5
  -8   0  -3 65.6947 102.220   6
  -8   0  -4 3921.87 550.422   5
  -8   0  -4 3621.86 533.583   6
  -8   0  -5-94.8119 90.6558   5
  -8   0  -5-9.92434 105.460   6
  -8   0  -6-19.5812 114.658   5
  -8   0  -6 19.3729 73.4922   6
  -8   0  -7 59.8867 171.532   5
   8   0   7 21.6899 28.3405   2
  -8   0  -7 43.0090 77.8050   6
  -8   0  -8 832.144 272.514   5
   8   0   8 1242.47 181.391   2
  -8   0  -8 1176.98 317.050   6
   8   0   9-120.950 85.9751   2
  -8   0  -9 260.394 189.876   6
  -8   0 -10 1657.95 357.540   6
  -8   0 -11 440.051 202.869   6
  -8   0 -12 1587.85 346.592   6
  -8   0 -13 97.1752 106.254   6
  -8   0 -14 1667.77 364.486   6
  -8   0 -15 41.9681 80.8878   6
  -8   0 -16 90.1151 120.096   6
  -8   0 -17 88.6015 113.884   6
  -8   0 -17 162.307 119.003   4
  -8   0 -18 215.097 123.520   4
  -8   0 -19-321.441 241.992   4
  -8   0 -20 1621.65 534.196   4
  -8   0 -21 96.4770 149.289   4
   8   1 -27 226.801 234.939   2
   8  -1 -27-24.7235 86.5347   2
   8  -1 -26-238.228 197.232   2
   8   1 -26 367.141 261.281   2
   8   1 -25 1580.10 480.072   2
   8  -1 -25 1222.42 412.333   2
   8   1 -24 911.616 336.684   2
   8  -1 -24 883.604 326.208   2
   8  -1 -23 3977.42 732.704   2
   8   1 -23 3248.53 650.758   2
   8   1 -22 799.399 307.102   2
   8  -1 -22 1407.58 408.672   2
   8  -1 -21 613.970 267.074   2
  -8   1  21 922.046 273.272   5
   8   1 -21 637.648 290.617   2
   8  -1 -20 57.7322 86.9604   2
   8   1 -20-65.3546 131.328   2
   8  -1 -19 825.638 298.227   2
   8   1 -19 675.709 235.273   2
   8   1 -18 1291.64 361.046   2
   8  -1 -18 1403.69 341.689   2
   8  -1 -17 1386.76 367.984   2
   8   1 -17 1462.33 354.115   2
   8   1 -16 4615.24 624.376   2
   8  -1 -16 4666.19 634.028   2
   8  -1 -15 1330.18 327.079   2
   8   1 -15 3496.73 544.773   2
   8  -1 -14 3298.56 497.289   2
   8   1 -14 2959.56 463.802   2
   8   1 -13-51.1744 104.454   2
   8  -1 -13-23.1997 78.9788   2
  -8   1  12-93.8145 115.196   2
   8  -1 -12 21.7854 75.1981   2
  -8  -1  12 8.56417 85.6242   6
  -8   1  12 67.6544 43.6402   1
  -8  -1  12 48.2398 49.1734   2
   8   1 -12 146.695 109.335   2
   8  -1 -11 240.655 140.017   2
  -8  -1  11 147.616 163.664   6
  -8   1  11 245.890 116.890   2
  -8   1  11 373.817 102.130   1
  -8  -1  11 360.990 149.895   2
   8   1 -11 236.702 115.172   2
  -8  -1  10 2040.99 432.881   6
   8  -1 -10 1767.94 302.695   2
  -8   1  10 2250.58 406.506   5
  -8   1  10 1806.00 300.424   2
  -8   1  10 1875.87 262.471   1
  -8  -1  10 1783.15 305.011   2
  -8  -1   9 1464.81 350.745   6
   8  -1  -9 1425.85 257.417   2
  -8   1   9 1111.47 270.527   5
  -8   1   9 1121.56 225.052   2
  -8   1   9 1254.91 223.163   1
  -8  -1   9 1147.70 236.358   2
  -8  -1   8 894.693 273.243   6
   8  -1  -8 747.649 161.286   2
  -8   1   8 1236.25 331.738   6
  -8   1   8 737.917 254.794   5
  -8   1   8 801.684 193.603   1
  -8   1   8 904.825 192.046   2
  -8  -1   8 874.901 187.569   2
  -8  -1   7 1771.81 397.325   6
   8  -1  -7 1445.86 217.433   2
  -8   1   7 1542.25 378.883   6
  -8   1   7 1748.64 288.746   1
  -8   1   7 1503.54 332.446   5
  -8  -1   7 1476.62 225.541   2
  -8   1   7 1809.16 252.993   2
   8  -1  -6 29.3235 27.9134   2
  -8  -1   6 52.4535 125.176   6
  -8   1   6-45.1702 93.9775   6
  -8   1   6 74.8297 100.097   1
  -8   1   6 32.6318 59.3204   5
  -8   1   6-21.7840 33.2744   2
  -8  -1   6 17.9810 29.0338   2
  -8   1   5 793.775 236.408   6
  -8   1   5 1310.43 265.253   1
  -8   1   5 1146.07 291.606   5
  -8  -1   5 1159.25 305.521   6
  -8  -1   5 1204.50 158.153   2
   8  -1  -5 1006.27 149.993   2
  -8  -1   4 2567.01 453.958   6
  -8   1   4 2139.67 406.998   6
  -8   1   4 2296.93 365.515   1
  -8   1   4 2363.44 428.862   5
  -8  -1   4 2081.77 165.517   2
   8  -1  -4 2520.17 192.933   2
  -8   1   3 1308.79 319.700   6
  -8   1   3 1162.85 260.389   1
  -8   1   3 1619.24 347.135   5
  -8  -1   3 1333.58 320.435   6
  -8   1   2 5022.57 570.235   1
  -8   1   2 5753.51 660.093   5
  -8  -1   2 5539.69 658.278   6
  -8   1   2 6010.07 678.463   6
  -8   1   1 4912.76 601.975   5
  -8  -1   1 4810.42 617.214   6
  -8   1   1 4346.20 592.660   6
  -8   1   0 571.109 225.658   6
  -8  -1   0 213.217 152.119   5
  -8   1   0 192.407 109.888   5
   8   1   0 212.844 89.3290   3
  -8  -1   0 216.678 172.794   6
  -8  -1  -1 6924.15 743.921   5
  -8   1  -1 7176.83 739.091   5
   8   1   1 7104.57 461.842   3
  -8  -1  -1 7833.81 788.881   6
  -8   1  -1 7068.34 726.667   6
  -8   1  -2 1848.77 363.462   6
  -8  -1  -2 1837.72 397.606   5
  -8   1  -2 2069.01 401.526   5
  -8  -1  -2 1806.17 366.220   6
  -8   1  -3 875.373 259.438   6
  -8  -1  -3 591.491 212.673   6
  -8  -1  -3 702.343 245.506   5
  -8   1  -3 688.752 244.898   5
  -8   1  -4 1400.23 323.633   6
  -8  -1  -4 1727.01 350.926   5
  -8   1  -4 1401.96 328.955   5
  -8  -1  -4 1582.74 347.783   6
  -8   1  -5 581.801 218.696   6
  -8  -1  -5 551.432 201.252   5
  -8   1  -5 750.337 264.181   5
  -8  -1  -5 769.903 265.103   6
  -8   1  -6 312.264 170.720   6
   8  -1   6 275.916 65.8050   2
  -8  -1  -6-21.3736 64.1126   5
  -8   1  -6 223.746 145.776   5
  -8  -1  -6 145.540 150.386   6
  -8   1  -7 339.138 168.767   6
   8  -1   7 135.626 53.1259   2
  -8  -1  -7 130.583 98.7722   5
  -8  -1  -7 368.560 240.491   6
   8   1   8 1440.12 198.810   2
  -8  -1  -8 1740.08 381.292   5
   8  -1   8 1966.67 236.829   2
  -8  -1  -8 2579.00 455.509   6
  -8   1  -8 2199.09 407.309   6
  -8  -1  -9 7781.03 810.836   6
  -8  -1  -9 7839.38 806.250   5
   8  -1   9 6469.25 475.213   2
  -8   1  -9 7481.36 746.254   6
   8   1   9 6679.93 478.571   2
  -8  -1 -10 4713.47 655.454   5
  -8  -1 -10 4420.18 417.554   2
  -8   1 -10 5300.02 644.051   6
  -8  -1 -11 8837.83 641.817   2
  -8   1 -11 8909.60 829.216   6
  -8  -1 -12 2521.95 366.091   2
  -8   1 -12 2790.77 460.040   6
  -8  -1 -13 1500.17 318.164   2
  -8   1 -13 1289.86 308.132   6
  -8  -1 -14 329.697 155.391   6
  -8  -1 -14 171.698 123.841   4
  -8   1 -14 536.789 224.481   6
  -8  -1 -14 227.065 90.5432   2
  -8   1 -15 362.027 204.252   6
  -8  -1 -15 389.022 224.415   4
  -8  -1 -15 373.382 150.477   2
  -8  -1 -15 493.680 196.785   6
  -8   1 -16 868.421 259.640   6
  -8  -1 -16 1063.42 315.585   6
  -8  -1 -16 827.512 379.223   4
  -8  -1 -16 440.512 174.414   2
  -8  -1 -17 1058.68 432.278   4
  -8  -1 -17 1539.86 379.866   6
  -8   1 -18 1242.11 447.275   4
  -8  -1 -18 1410.57 479.802   4
  -8  -1 -18 1230.91 331.546   6
  -8   1 -19 767.186 399.433   4
  -8  -1 -19 612.340 301.945   4
  -8   1 -20 796.442 381.216   4
  -8  -1 -20 894.796 418.274   4
  -8   1 -21 312.646 249.449   4
  -8  -1 -21 191.691 182.269   4
   8  -2 -26-40.0914 101.881   2
   8  -2 -25 1096.96 444.215   2
   8  -2 -24 1634.25 522.343   2
   8  -2 -23 3589.99 710.834   2
   8  -2 -22 1802.02 469.189   2
   8  -2 -21 244.979 199.634   2
   8  -2 -20-124.564 182.871   2
  -8   2  20 78.1741 99.7957   5
   8  -2 -19 1288.92 371.771   2
  -8   2  19 1194.67 278.682   5
   8  -2 -18 566.712 234.597   2
  -8   2  18 1165.62 289.709   5
   8  -2 -17 2925.90 524.548   2
  -8   2  17 3496.43 490.982   5
   8  -2 -16 707.433 254.167   2
  -8   2  16 767.607 273.115   5
  -8   2  15 6378.99 359.801   1
  -8   2  15 7455.42 728.560   5
   8  -2 -15 6696.20 730.985   2
  -8  -2  15 7055.97 800.273   6
  -8  -2  14 195.023 174.604   6
   8  -2 -14 164.467 104.214   2
  -8   2  14 173.104 122.409   5
  -8   2  14 150.762 72.4952   1
  -8  -2  13 1285.93 361.789   6
   8  -2 -13 1138.96 279.596   2
  -8   2  13 1347.85 315.882   5
  -8   2  13 908.826 163.287   1
  -8  -2  12 122.077 71.7385   6
   8  -2 -12 190.860 136.572   2
  -8   2  12 203.395 144.879   5
  -8   2  12 54.6003 39.4329   1
  -8  -2  11 1566.07 357.404   6
  -8   2  11 1322.85 303.573   5
   8  -2 -11 1427.55 288.914   2
  -8   2  11 1497.81 298.525   2
  -8  -2  11 1218.80 261.028   2
  -8   2  11 1021.57 199.498   1
  -8  -2  10 453.430 217.136   6
  -8   2  10 485.881 185.294   5
   8  -2 -10 656.728 211.045   2
  -8   2  10 438.255 149.651   2
  -8  -2  10 449.212 158.269   2
  -8   2  10 349.819 125.882   1
  -8  -2   9 1836.33 394.454   6
  -8   2   9 2429.65 425.582   5
  -8   2   9 1724.02 291.760   2
   8  -2  -9 2248.64 342.234   2
  -8  -2   9 2019.31 318.351   2
  -8   2   9 1938.08 294.776   1
  -8  -2   8 2713.55 502.051   6
  -8  -2   8 1811.13 284.062   2
  -8   2   8 2396.20 419.983   5
   8  -2  -8 2453.42 329.028   2
  -8   2   8 2436.44 348.886   1
  -8   2   8 2156.00 307.554   2
  -8  -2   7 1606.67 381.832   6
  -8  -2   7 1817.48 265.314   2
  -8   2   7 1449.85 238.575   2
  -8   2   7 2164.85 401.978   5
   8  -2  -7 1458.33 238.727   2
  -8   2   7 1604.70 285.102   1
  -8   2   6 975.876 258.607   5
   8  -2  -6 880.505 172.507   2
  -8  -2   6 911.483 170.990   2
  -8   2   6 1051.39 240.008   1
  -8  -2   6 400.720 172.916   6
  -8   2   5 21.5115 81.6196   6
  -8   2   5 120.181 64.3232   5
   8  -2  -5 74.9201 25.7494   2
  -8  -2   5 49.3037 25.9628   2
  -8   2   5 14.7017 67.9625   1
  -8  -2   5 171.447 125.286   6
  -8   2   4 247.815 81.4339   6
  -8   2   4 190.487 103.645   5
   8  -2  -4 296.786 88.9569   2
  -8  -2   4 209.335 61.9734   2
  -8   2   4 142.291 81.7844   1
  -8  -2   4 601.223 229.474   6
  -8   2   3 3026.90 477.124   6
  -8  -2   3 3144.68 212.145   2
  -8   2   3 3373.66 499.323   5
   8   2  -3 3483.24 438.239   1
   8  -2  -3 2933.85 230.292   2
  -8  -2   3 3030.95 490.909   6
  -8   2   2 239.749 97.8491   6
   8  -2  -2 200.072 49.4321   2
  -8   2   2 194.003 73.6718   5
   8   2  -2 331.793 154.628   1
  -8  -2   2-1.33117 127.971   6
  -8   2   1 3409.56 500.884   5
  -8   2   1 3066.32 512.336   6
   8   2  -1 3091.76 440.898   1
  -8  -2   1 2841.13 474.905   6
  -8   2   0 6273.86 705.038   5
   8   2   0 6347.24 528.705   3
  -8  -2   0 7621.41 783.346   6
  -8   2   0 6121.03 678.967   6
   8   2   0 6168.24 630.206   1
  -8   2  -1 186.792 122.304   6
  -8  -2  -1 106.059 165.515   6
  -8   2  -1 313.543 209.493   5
   8   2   1 38.4056 106.997   1
   8   2   1 28.6986 55.6821   3
  -8   2  -2 4401.60 586.750   5
   8   2   2 3792.52 392.209   3
   8   2   2 3897.24 526.813   1
  -8   2  -2 4267.60 557.391   6
  -8   2  -3 859.530 250.064   6
  -8  -2  -3 977.648 274.200   5
  -8   2  -3 773.766 256.549   5
   8   2   3 1309.04 315.275   1
  -8   2  -4 40.0413 72.9240   6
  -8  -2  -4 14.4086 82.0819   5
   8   2   4 102.730 108.347   1
   8  -2   4 77.3958 33.3093   2
   8  -2   4 79.0435 30.6810   2
  -8   2  -5 1491.43 339.631   6
  -8  -2  -5 1462.26 337.121   5
   8  -2   5 1220.76 150.886   2
   8   2   5 1400.98 352.621   1
  -8  -2  -5 1283.65 134.325   2
  -8   2  -6 435.971 184.633   6
  -8  -2  -6 653.034 238.119   5
   8   2   6 531.969 185.169   1
   8  -2   6 360.431 98.5504   2
  -8  -2  -6 477.127 97.1789   2
  -8   2  -7 111.540 143.834   6
  -8  -2  -7-73.5355 153.410   5
   8   2   7-128.871 165.267   1
   8  -2   7 56.0828 56.9377   2
  -8  -2  -7 15.1349 28.4737   2
  -8   2  -8 653.596 212.875   6
  -8  -2  -8 496.351 231.006   5
  -8  -2  -8 552.815 129.877   2
   8   2   8 753.313 310.060   1
   8  -2   8 464.752 124.987   2
  -8  -2  -9 6768.84 747.697   5
   8  -2   9 6747.34 526.328   2
  -8  -2  -9 7785.35 540.488   2
  -8   2  -9 8129.68 764.875   6
   8   2   9 7981.46 903.579   1
  -8  -2 -10 5973.40 718.991   5
  -8  -2 -10 5454.25 485.055   2
   8   2  10 7180.56 865.901   1
  -8   2 -10 5931.27 650.767   6
  -8  -2 -11 5819.69 711.886   5
  -8  -2 -11 6174.79 552.224   2
   8   2  11 7192.48 911.469   1
  -8   2 -11 6502.79 687.953   6
  -8  -2 -12 2566.20 562.404   4
  -8  -2 -12 2670.77 385.199   2
   8   2  12 3210.48 610.699   1
  -8   2 -12 3389.93 495.284   6
  -8   2 -13 697.024 226.699   6
  -8  -2 -13 795.879 272.300   4
  -8  -2 -13 761.844 218.415   2
  -8   2 -14-52.5935 47.1391   6
  -8  -2 -14-12.3351 153.045   4
  -8  -2 -14 6.36135 71.3741   2
  -8   2 -15-9.46389 79.3263   6
  -8  -2 -15-121.259 175.601   4
  -8  -2 -15 131.961 113.214   2
  -8  -2 -16 870.693 379.172   4
  -8  -2 -16 543.119 204.607   2
  -8  -2 -17 1523.94 492.776   4
  -8  -2 -18 658.753 364.594   4
  -8  -2 -19 1674.55 556.373   4
  -8   2 -20-253.090 215.059   4
  -8  -2 -20 2.30948 207.877   4
  -8   2 -21-133.388 162.439   4
  -8   2 -22-335.017 254.120   4
   8  -3 -26 143.866 206.094   2
   8  -3 -25 39.6910 197.808   2
   8  -3 -24 243.846 268.540   2
   8  -3 -23 255.817 188.762   2
   8  -3 -22-18.1073 141.761   2
   8  -3 -21-28.0142 180.232   2
   8  -3 -20 54.2422 69.5210   2
   8  -3 -19 468.293 215.452   2
  -8   3  19 487.915 191.112   5
   8  -3 -18 109.425 129.656   2
  -8   3  18 193.506 144.087   5
  -8   3  17 2972.05 438.964   5
   8  -3 -17 2663.30 500.488   2
  -8  -3  16 1387.15 376.408   6
   8  -3 -16 1954.13 424.324   2
  -8   3  16 1808.76 366.065   5
  -8   3  15 9252.38 797.944   5
   8  -3 -15 8953.99 874.761   2
  -8  -3  15 9176.08 939.988   6
  -8  -3  14 290.173 182.556   6
  -8   3  14 191.500 142.450   5
   8  -3 -14 463.162 169.514   2
  -8   3  13 5089.41 587.463   5
   8  -3 -13 5063.30 610.527   2
  -8  -3  13 4566.89 649.266   6
  -8  -3  12 133.683 121.465   6
  -8   3  12-97.7791 125.921   5
   8  -3 -12-59.6918 141.052   2
  -8   3  11 346.997 137.967   5
  -8  -3  11 430.364 166.351   2
   8  -3 -11 456.475 157.685   2
  -8  -3  11 517.778 227.808   6
  -8  -3  10 413.983 234.099   6
  -8   3  10 495.994 191.266   5
  -8  -3  10 424.897 158.619   2
   8  -3 -10 515.848 179.367   2
  -8   3  10 314.970 117.742   2
   8  -3  -9 5877.39 565.159   2
  -8   3   9 5554.46 551.341   2
  -8   3   9 5521.93 631.783   5
  -8  -3   9 5918.28 728.005   6
  -8  -3   9 5174.66 533.090   2
  -8   3   8 302.991 159.607   5
  -8  -3   8 419.663 141.184   2
   8  -3  -8 277.195 124.465   2
  -8  -3   8 503.562 217.431   6
  -8   3   8 281.410 123.679   2
   8   3  -8 535.276 142.779   1
   8  -3  -7 4747.41 457.956   2
  -8   3   7 4932.85 599.266   5
  -8  -3   7 4398.56 599.806   6
  -8  -3   7 2625.96 340.016   2
   8   3  -7 4320.24 434.457   1
  -8  -3   6 105.465 162.665   6
  -8  -3   6-2.51352 45.7022   2
  -8   3   6 79.0427 114.417   5
   8  -3  -6-58.5471 79.3638   2
   8   3  -6 56.0352 57.3431   1
  -8  -3   5 21.6220 41.7756   2
  -8   3   5 110.080 125.938   5
   8  -3  -5 26.3211 47.9057   2
   8   3  -5 65.4158 97.4699   1
  -8  -3   5 57.8823 132.809   6
  -8  -3   4 85.1438 54.4612   2
  -8   3   4 45.9277 118.378   5
   8  -3  -4 42.0690 58.0018   2
   8   3  -4 56.2300 49.4883   1
  -8  -3   4 271.601 177.087   6
   8   3  -3 4251.05 484.993   1
  -8   3   3 4505.31 585.697   5
   8  -3  -3 4090.86 341.947   2
  -8  -3   3 4036.42 323.152   2
  -8  -3   3 4252.45 606.508   6
  -8  -3   2 1802.36 199.344   2
  -8   3   2 2173.53 415.067   5
   8  -3  -2 1789.51 213.351   2
   8  -3  -2 1747.20 172.473   3
  -8  -3   2 1829.96 198.520   2
   8   3  -2 2319.80 376.210   1
  -8  -3   2 1854.67 408.776   6
  -8   3   1 4.22022 94.0828   5
  -8  -3   1 26.1146 25.2831   2
   8   3  -1 3.68664 119.166   3
   8  -3  -1-6.78227 32.1513   2
   8   3  -1-0.26969 84.2295   1
  -8  -3   1 73.2646 34.3522   2
  -8   3   0 1937.02 397.056   6
   8  -3   0 1952.39 206.746   2
  -8  -3   0 1750.00 167.998   2
   8   3   0 2059.74 331.819   3
  -8  -3   0 1742.43 170.678   2
   8   3   0 2261.20 385.216   1
   8   3   1 8707.17 780.499   1
  -8  -3  -1 7449.19 342.121   2
   8   3   1 8246.72 661.229   3
   8  -3   1 7755.74 403.820   2
  -8  -3  -1 6913.01 327.133   2
   8  -3   1 6930.39 392.319   2
  -8   3  -1 7626.87 785.183   6
  -8   3  -2 953.292 260.069   6
  -8  -3  -2 707.474 114.058   2
   8  -3   2 689.205 120.779   2
   8   3   2 692.878 196.651   3
   8   3   2 1159.57 322.837   1
   8  -3   2 548.609 106.767   2
   8  -3   3 5683.78 363.101   2
   8   3   3 5128.08 635.804   1
  -8  -3  -3 5038.29 308.383   2
   8   3   3 5590.54 535.317   3
   8  -3   3 4774.36 339.094   2
  -8   3  -3 5666.54 650.787   6
   8  -3   4-21.9434 38.0298   2
  -8   3  -4 157.375 112.443   6
  -8  -3  -4 59.0997 37.4802   2
   8   3   4 192.959 122.441   1
  -8   3  -5 152.155 121.065   6
  -8  -3  -5 129.898 106.766   5
   8  -3   5 39.9393 29.7256   2
  -8  -3  -5 132.475 55.4407   2
  -8   3  -6-175.718 148.854   6
  -8  -3  -6 8.02680 82.4240   5
  -8  -3  -6 38.3377 51.1713   2
   8  -3   6 65.3236 57.5079   2
   8   3   6-28.8638 95.2467   1
  -8   3  -7 1781.81 349.612   6
  -8  -3  -7 1654.48 372.544   5
   8   3   7 2594.31 487.346   1
  -8  -3  -7 1884.43 258.088   2
   8  -3   7 1932.63 271.781   2
  -8   3  -8 96.2158 80.9522   6
  -8  -3  -8 187.948 91.4139   2
  -8  -3  -8 297.775 89.7054   5
   8  -3   8 334.299 119.877   2
   8   3   8 371.375 247.413   1
  -8  -3  -9 3163.42 514.834   5
  -8  -3  -9 3146.17 610.302   4
  -8  -3  -9 3808.88 407.985   2
  -8   3  -9 3257.53 471.284   6
   8   3   9 4223.48 655.037   1
  -8   3 -10 146.736 96.9215   6
  -8  -3 -10 36.2126 40.7245   2
  -8  -3 -10 98.1194 123.960   5
   8   3  10 110.687 135.017   1
  -8   3 -11 1257.55 277.585   6
  -8  -3 -11 1352.83 329.885   5
  -8  -3 -11 1912.30 482.527   4
  -8  -3 -11 1512.68 287.519   2
   8   3  11 1737.07 444.157   1
  -8   3 -12 94.5225 130.361   6
  -8  -3 -12 208.723 122.099   2
  -8  -3 -12 46.9820 137.550   5
  -8  -3 -12 221.541 244.592   4
   8   3  12 72.0306 126.783   1
  -8  -3 -13 803.463 244.722   2
  -8   3 -13 295.428 130.950   6
  -8  -3 -13 455.076 207.293   5
  -8  -3 -13 326.990 182.380   4
   8   3  13 437.879 245.038   1
  -8  -3 -14-97.2649 75.9161   2
  -8   3 -14-59.3344 91.3183   6
  -8  -3 -14-75.1537 121.842   4
   8   3  14 99.1640 170.713   1
  -8  -3 -15-67.0322 128.848   2
  -8  -3 -15 296.731 262.352   4
   8   3  15 0.56350 164.813   1
  -8  -3 -16 92.3935 71.2488   2
   8   3  16 200.978 182.201   1
  -8  -3 -16 62.3739 158.008   4
  -8  -3 -17 597.417 320.278   4
  -8  -3 -18 610.513 332.370   4
  -8  -3 -19 1609.39 583.843   4
  -8  -3 -20-29.3274 133.902   4
  -8   3 -21 565.075 312.670   4
   8  -4 -26 265.249 250.808   2
   8  -4 -25 124.907 224.568   2
   8  -4 -24 3348.49 717.539   2
   8  -4 -23-30.9055 189.787   2
   8  -4 -22 1773.21 479.195   2
   8  -4 -21 278.067 221.355   2
   8  -4 -20 17.2596 140.695   2
   8  -4 -19 99.5480 88.6954   2
   8  -4 -18 2654.29 529.765   2
  -8  -4  17 3026.13 537.923   6
   8  -4 -17 2304.58 480.526   2
  -8  -4  16 4353.42 637.682   6
   8  -4 -16 4314.80 642.689   2
  -8   4  15 3782.16 503.121   5
  -8  -4  15 3938.75 601.507   6
   8  -4 -15 4154.16 602.640   2
  -8  -4  14 1303.61 352.582   6
  -8   4  14 986.527 266.296   5
   8  -4 -14 1160.88 338.723   2
  -8  -4  13 816.961 287.492   6
  -8   4  13 540.801 197.720   5
   8  -4 -13 477.273 200.337   2
  -8  -4  12 265.659 181.907   6
  -8   4  12 470.682 188.402   5
   8  -4 -12 180.560 118.615   2
  -8  -4  11 780.115 283.375   6
  -8   4  11 529.088 180.578   5
   8  -4 -11 405.097 184.971   2
   8   4 -11 351.779 99.7526   1
  -8   4  10 345.741 164.821   5
   8  -4 -10 270.945 134.750   2
   8   4 -10 318.089 105.712   1
  -8  -4  10 235.982 109.739   6
   8   4  -9 2446.16 315.309   1
   8  -4  -9 2598.38 398.672   2
  -8   4   9 2038.49 406.012   5
  -8  -4   9 2556.42 392.548   2
  -8  -4   9 2588.06 481.177   6
  -8  -4   8 859.250 230.085   2
  -8   4   8 739.319 242.162   5
   8  -4  -8 524.721 184.115   2
   8   4  -8 452.719 137.024   1
  -8  -4   8 456.808 189.590   6
  -8  -4   7 311.132 126.465   2
  -8  -4   7 620.748 260.329   6
   8  -4  -7 575.357 191.848   2
   8   4  -7 513.655 160.588   1
   8   4  -6 1478.18 270.969   1
   8  -4  -6 1486.74 265.865   2
  -8  -4   6 1756.57 286.216   2
  -8  -4   6 1532.67 371.625   6
  -8  -4   5 74.9371 54.7633   2
   8   4  -5 234.719 148.424   1
   8  -4  -5 176.812 75.2337   2
  -8  -4   5 229.551 144.048   6
   8   4  -4 1510.35 294.687   1
   8  -4  -4 1614.36 236.101   3
   8  -4  -4 1649.55 264.172   2
  -8  -4   4 1126.31 211.692   2
   8   4  -3 3291.98 448.423   1
   8  -4  -3 3157.85 345.129   2
   8  -4  -3 3481.96 308.603   3
  -8  -4   3 3580.78 360.162   2
   8   4  -2 8063.65 719.151   1
   8  -4  -2 7795.31 540.470   2
   8  -4  -2 7156.52 383.655   3
  -8  -4   2 7580.07 507.449   2
   8  -4  -1 301.271 106.365   2
   8   4  -1 534.057 221.101   1
  -8  -4   1 323.986 88.1814   2
   8   4  -1 367.893 175.541   3
   8   4   0 2657.76 428.744   1
   8   4   0 2514.71 391.743   3
   8  -4   0 2301.29 281.053   2
  -8  -4   0 2152.69 256.725   2
   8   4   1 1533.86 348.412   1
   8  -4   1 1382.37 215.373   2
  -8  -4  -1 1631.20 224.895   2
   8   4   1 1565.89 335.121   3
   8  -4   2 1779.86 244.139   2
   8   4   2 1481.84 353.922   1
  -8  -4  -2 1597.98 216.249   2
   8   4   2 1602.88 314.976   3
   8   4   3 269.331 96.4411   1
   8   4   3 499.309 174.985   3
  -8  -4  -3 464.702 124.902   2
   8  -4   3 530.265 152.014   2
   8   4   4 313.254 178.270   1
  -8  -4  -4-0.78267 148.010   4
  -8  -4  -4 134.373 86.0761   2
   8  -4   4 103.300 48.8282   2
   8  -4   5-4.33155 30.1776   2
  -8  -4  -5 23.8376 135.720   4
  -8  -4  -5-26.4487 58.5404   2
   8  -4   6 698.043 179.641   2
   8   4   6 665.378 206.934   1
  -8  -4  -6 677.394 242.552   4
  -8  -4  -6 773.217 172.682   2
   8   4   7 524.077 179.276   1
   8  -4   7 560.839 161.291   2
  -8  -4  -7 240.646 63.9632   5
  -8  -4  -7 470.156 197.757   4
  -8  -4  -7 528.076 152.274   2
   8   4   8 1611.43 409.342   1
  -8  -4  -8 1702.94 371.061   5
  -8  -4  -8 1720.02 292.510   2
  -8  -4  -8 1502.41 424.652   4
  -8  -4  -9 426.344 165.749   5
  -8  -4  -9 613.090 176.294   2
  -8  -4  -9 625.845 274.408   4
   8   4   9 861.036 335.181   1
   8   4  10 10561.4 1082.83   1
  -8  -4 -10 9357.11 896.746   5
  -8  -4 -10 9508.74 1083.72   4
  -8  -4 -10 9455.89 736.051   2
  -8  -4 -11 909.133 284.658   5
  -8  -4 -11 977.448 253.660   2
  -8  -4 -11 1441.48 457.299   4
   8   4  11 1226.42 369.647   1
   8   4  12 5850.00 834.364   1
  -8  -4 -12 4951.38 656.691   5
  -8  -4 -12 6544.71 660.908   2
  -8  -4 -12 5889.71 895.217   4
  -8  -4 -13 576.575 199.381   2
  -8  -4 -13 286.364 149.619   5
  -8  -4 -13 293.365 98.0839   4
   8   4  13 359.797 249.238   1
  -8  -4 -14 258.897 151.415   2
  -8  -4 -14 26.3429 112.353   5
  -8  -4 -14 137.795 194.691   4
   8   4  14 163.790 90.8089   1
  -8  -4 -15-50.3571 92.9570   2
  -8  -4 -15 194.093 229.300   4
   8   4  15 255.242 222.185   1
  -8  -4 -16 1330.59 462.185   4
   8   4  16 1270.15 426.746   1
  -8  -4 -17 684.286 379.325   4
   8   4  17 197.159 173.587   1
   8   4  18 1814.88 544.001   1
  -8  -4 -18 2801.70 742.299   4
  -8  -4 -19 1167.20 451.310   4
   8   4  19 648.293 356.051   1
   8  -5 -25 93.9094 176.077   2
   8  -5 -24 2401.86 643.571   2
   8  -5 -23 461.545 309.957   2
   8  -5 -22 949.232 388.493   2
   8  -5 -21 273.432 192.862   2
   8  -5 -20 226.967 223.072   2
   8  -5 -19-248.077 240.906   2
   8  -5 -18 3386.22 623.548   2
  -8  -5  18 3669.67 586.749   6
  -8  -5  17 808.380 287.598   6
   8  -5 -17 583.301 296.067   2
   8  -5 -16 3965.39 632.931   2
  -8  -5  16 3893.49 596.619   6
  -8  -5  15 276.533 218.519   6
   8  -5 -15 193.299 188.269   2
  -8  -5  14 2571.94 498.758   6
   8  -5 -14 2230.73 443.376   2
  -8  -5  13-17.1755 156.314   6
   8  -5 -13 19.3301 83.2733   2
   8   5 -13 33.9934 20.5730   1
   8  -5 -12 117.920 107.392   2
   8   5 -12 80.1826 42.0207   1
  -8  -5  12 46.5750 119.044   6
   8   5 -11 291.064 110.477   1
  -8  -5  11 152.315 55.8268   4
   8  -5 -11 229.886 144.793   2
  -8  -5  11 169.153 140.267   6
  -8  -5  10 1728.33 213.613   4
   8   5 -10 1262.15 232.376   1
   8  -5 -10 1552.08 327.228   2
  -8  -5  10 1599.67 408.012   6
  -8  -5   9 692.791 157.808   4
   8   5  -9 955.308 208.844   1
   8  -5  -9 740.770 226.091   2
  -8  -5   9 977.267 316.385   6
  -8  -5   8 186.610 102.901   2
  -8  -5   8 253.513 122.772   4
   8  -5  -8 319.218 165.809   2
   8   5  -8 127.851 74.8220   1
  -8  -5   8 411.995 236.772   6
  -8  -5   7 1328.58 239.737   4
   8  -5  -7 1510.05 312.712   2
   8   5  -7 1552.33 294.560   1
  -8  -5   7 1465.09 375.426   6
  -8  -5   7 1374.89 288.642   2
  -8  -5   6 638.731 180.750   4
   8  -5  -6 547.921 164.521   3
   8  -5  -6 546.360 182.761   2
  -8  -5   6 509.783 171.011   2
   8   5  -6 672.729 191.445   1
   8   5  -5 178.461 82.2081   1
  -8  -5   5 106.228 58.5179   4
   8  -5  -5 109.108 60.2304   3
   8  -5  -5 22.5093 47.6697   2
  -8  -5   5 47.3441 45.0748   2
   8   5  -4 7785.65 695.293   1
  -8  -5   4 7903.57 682.341   4
   8  -5  -4 7400.26 620.250   2
   8  -5  -4 6793.46 516.187   3
  -8  -5   4 6706.62 584.261   2
   8  -5  -3 152.622 118.195   2
   8   5  -3 217.258 157.082   1
  -8  -5   3 313.396 172.711   4
   8  -5  -3 208.158 96.6895   3
  -8  -5   3 280.502 137.612   2
   8   5  -2 14170.9 993.410   1
  -8  -5   2 13215.8 946.461   4
   8   5  -2 14655.5 1048.24   3
   8  -5  -2 13734.0 816.517   2
   8   5  -1 255.768 158.158   1
   8  -5  -1 691.918 182.845   2
  -8  -5   1 885.295 269.406   4
  -8  -5   1 598.926 181.765   2
   8   5  -1 470.831 193.858   3
   8   5   0 7090.51 742.285   1
  -8  -5   0 5797.11 678.066   4
   8   5   0 6364.68 703.470   3
   8  -5   0 6831.89 566.171   2
  -8  -5   0 6228.09 519.676   2
  -8  -5  -1 2914.94 484.226   4
   8   5   1 2780.41 451.539   3
  -8  -5  -1 2846.63 352.539   2
   8  -5   1 3344.54 390.612   2
   8   5   1 2833.94 488.839   1
  -8  -5  -2 155.505 105.523   2
   8   5   2 411.619 226.180   1
  -8  -5  -2-1.10634 106.605   4
   8   5   2 102.105 124.971   3
   8  -5   2 232.037 116.072   2
  -8  -5  -3 1490.52 361.912   4
  -8  -5  -3 1730.28 281.359   2
   8   5   3 1420.02 336.183   3
   8   5   3 1654.51 387.901   1
  -8  -5  -4 1597.95 376.371   4
  -8  -5  -4 1958.40 291.808   2
   8   5   4 2115.18 432.098   1
   8  -5   4 1754.42 311.338   2
  -8  -5  -5 34.7981 130.403   4
   8   5   5 211.879 211.670   1
  -8  -5  -5 125.450 103.691   2
   8  -5   5 29.2860 89.5404   2
  -8  -5  -6 2043.94 460.108   4
   8   5   6 2022.83 441.879   1
  -8  -5  -6 1731.64 290.590   2
   8  -5   6 1878.84 325.688   2
  -8  -5  -7-53.3175 174.806   4
   8   5   7 102.246 135.042   1
  -8  -5  -7 8.20400 59.0947   2
  -8  -5  -8 1479.96 353.771   5
   8   5   8 1474.09 382.615   1
  -8  -5  -8 2177.11 510.472   4
  -8  -5  -8 1625.98 299.192   2
  -8  -5  -9 233.911 124.186   5
   8   5   9 320.175 266.299   1
  -8  -5  -9 547.316 317.762   4
  -8  -5  -9 131.157 111.233   2
  -8  -5 -10 10236.6 812.100   2
   8   5  10 12343.3 1186.72   1
  -8  -5 -10 9246.73 907.980   5
  -8  -5 -10 9942.33 1122.99   4
   8   5  11 1524.04 452.083   1
  -8  -5 -11 1227.09 341.230   5
  -8  -5 -11 1578.08 331.639   2
  -8  -5 -11 981.523 380.088   4
   8   5  12 5455.70 824.711   1
  -8  -5 -12 4697.27 654.214   5
  -8  -5 -12 6314.69 945.804   4
  -8  -5 -12 5847.38 662.789   2
  -8  -5 -13 164.286 125.600   5
  -8  -5 -13 242.352 154.181   2
  -8  -5 -13 386.217 235.415   4
   8   5  13 149.227 219.100   1
  -8  -5 -14 377.419 193.930   2
  -8  -5 -14 269.690 201.070   5
  -8  -5 -14 319.008 214.026   4
   8   5  14 228.585 248.421   1
  -8  -5 -15-42.9364 93.1352   2
  -8  -5 -15 119.764 133.574   5
  -8  -5 -15 296.670 309.768   4
   8   5  15 172.620 151.499   1
  -8  -5 -16 465.144 291.053   4
   8   5  16 269.004 124.585   1
  -8  -5 -17 301.207 358.460   4
   8   5  17 1087.54 559.790   1
  -8  -5 -18 1136.33 464.770   4
   8   5  18 1370.80 468.585   1
   8   5  19 441.285 310.472   1
   8  -6 -24 121.638 239.016   2
   8  -6 -23 300.653 267.548   2
   8  -6 -22-20.0520 75.9210   2
   8  -6 -21-609.316 298.558   2
   8  -6 -20 179.858 134.674   2
  -8  -6  19-51.3399 179.881   6
   8  -6 -19-153.676 203.531   2
  -8  -6  18 404.256 188.085   6
   8  -6 -18 942.643 356.708   2
  -8  -6  17 846.714 293.449   6
   8  -6 -17 926.449 316.430   2
  -8  -6  16 1552.28 393.473   6
   8  -6 -16 811.593 305.480   2
  -8  -6  15 1052.11 337.680   6
   8  -6 -15 1406.05 383.519   2
  -8  -6  14 1895.47 427.169   6
   8  -6 -14 2454.09 485.659   2
   8  -6 -13 70.4675 101.959   2
  -8  -6  13-83.3117 162.643   6
   8  -6 -12 156.069 73.8739   2
   8   6 -12 25.6490 74.5795   1
  -8  -6  12 314.822 176.998   6
   8   6 -11 1831.77 284.710   1
   8  -6 -11 1773.22 390.884   2
  -8  -6  11 1303.08 341.484   6
   8  -6 -10 2829.09 504.370   2
   8   6 -10 2682.84 360.317   1
  -8  -6  10 2590.86 502.343   6
   8   6  -9 2113.71 329.451   1
   8  -6  -9 2498.57 433.402   2
  -8  -6   9 1928.21 454.292   6
   8   6  -8 2995.01 411.605   1
   8  -6  -8 3286.71 490.081   2
  -8  -6   8 2596.52 495.546   6
  -8  -6   7 153.034 73.7838   4
   8  -6  -7 281.830 144.856   3
   8  -6  -7 282.220 168.339   2
   8   6  -6 386.585 176.138   1
  -8  -6   6 224.956 114.763   4
   8  -6  -6 575.726 169.779   3
   8  -6  -6 695.185 234.114   2
   8  -6  -5 306.078 172.569   2
   8   6  -5 191.072 116.376   1
  -8  -6   5 259.569 134.458   4
   8  -6  -5 134.657 93.4463   3
  -8  -6   5 235.194 147.478   2
   8   6  -4 2762.33 443.824   1
  -8  -6   4 3779.35 474.197   4
   8  -6  -4 3124.54 381.270   3
   8  -6  -4 3310.13 454.866   2
   8   6  -3 3181.74 487.224   1
  -8  -6   3 3066.36 465.611   4
   8  -6  -3 3470.05 466.375   2
   8   6  -3 2971.19 512.833   3
   8   6  -2 1399.08 319.173   1
   8  -6  -2 929.383 239.798   2
  -8  -6   2 1057.95 268.537   4
   8   6  -2 1048.19 309.218   3
   8  -6  -1 297.839 124.588   2
  -8  -6   1 386.396 181.304   4
   8   6  -1 295.963 163.498   3
  -8  -6   1 279.403 133.425   2
   8   6  -1 350.612 182.596   1
  -8  -6   0-95.0028 105.772   4
   8  -6   0-77.5355 102.224   2
  -8  -6   0-55.7549 82.9752   2
   8   6   0-1.80392 110.955   3
   8   6   0 33.1640 119.746   1
   8  -6   1 3003.49 424.646   2
  -8  -6  -1 1835.07 413.222   4
   8   6   1 3092.97 517.647   3
   8   6   1 2587.63 489.771   1
  -8  -6  -1 2236.98 355.675   2
   8  -6   2 4696.21 524.575   2
   8   6   2 4561.37 652.526   1
  -8  -6  -2 4502.89 641.763   4
   8   6   2 4623.06 623.440   3
  -8  -6  -2 4659.15 516.383   2
  -8  -6  -3 1177.77 262.019   2
  -8  -6  -3 1463.80 392.575   4
   8   6   3 1236.92 371.402   1
   8   6   3 1961.95 423.260   3
   8   6   4 3431.63 587.654   1
  -8  -6  -4 3099.60 539.324   4
   8   6   4 3052.08 518.335   3
  -8  -6  -4 3628.91 459.854   2
   8   6   5 380.053 233.315   1
  -8  -6  -5 410.742 211.053   4
  -8  -6  -5 191.253 92.8352   2
   8   6   6 571.680 266.527   1
  -8  -6  -6 381.743 160.894   4
  -8  -6  -6 269.401 132.459   2
  -8  -6  -7-67.5210 154.640   4
  -8  -6  -7 277.883 148.813   2
   8   6   7 15.4177 88.2675   1
  -8  -6  -8 386.104 193.484   4
  -8  -6  -8 366.680 157.415   2
   8   6   8 280.314 174.883   1
  -8  -6  -9-127.347 158.526   5
  -8  -6  -9 198.340 191.571   4
  -8  -6  -9 225.037 113.109   2
   8   6   9 169.872 202.186   1
  -8  -6 -10 1086.86 321.651   5
  -8  -6 -10 2455.18 576.135   4
  -8  -6 -10 1460.34 326.053   2
   8   6  10 1993.99 531.632   1
  -8  -6 -11-104.371 189.963   5
   8   6  11 523.026 256.878   1
  -8  -6 -11 541.225 328.789   4
  -8  -6 -11 98.1670 124.976   2
  -8  -6 -12 883.523 306.942   5
   8   6  12 644.104 305.562   1
  -8  -6 -12 754.443 254.453   2
  -8  -6 -12 591.265 373.233   4
   8   6  13 451.447 280.470   1
  -8  -6 -13 480.692 199.388   5
  -8  -6 -13 558.528 226.584   2
  -8  -6 -13 543.161 277.896   4
   8   6  14 163.581 201.381   1
  -8  -6 -14-29.6529 68.2133   5
  -8  -6 -14-102.472 108.194   2
  -8  -6 -14 139.974 165.402   4
   8   6  15-138.192 237.172   1
  -8  -6 -15 56.4747 132.340   4
  -8  -6 -16-200.239 205.103   4
   8   6  16 161.930 152.317   1
  -8  -6 -17 173.527 207.702   4
   8   6  17 314.365 254.219   1
   8   6  18 623.712 362.871   1
   8  -7 -23 2029.19 602.927   2
   8  -7 -22 214.217 245.963   2
   8  -7 -21 119.328 89.4415   2
   8  -7 -20 84.3196 128.339   2
   8  -7 -19 124.259 109.631   2
   8  -7 -18 149.443 151.689   2
  -8  -7  17 3647.24 595.745   6
   8  -7 -17 3401.75 643.301   2
  -8  -7  16 792.611 307.281   6
   8  -7 -16 661.282 283.338   2
  -8  -7  15 2378.23 485.874   6
   8  -7 -15 2145.73 510.255   2
   8  -7 -14 733.202 306.355   2
  -8  -7  14 1121.54 336.507   6
  -8  -7  13 95.7715 112.291   6
   8  -7 -13 1.31841 78.6840   2
   8   7 -12 63.9014 85.0869   1
   8  -7 -12-27.2665 82.2799   2
  -8  -7  12 50.2509 83.5407   6
  -8  -7  11 1089.55 332.424   6
   8   7 -11 1366.55 277.082   1
   8  -7 -11 1560.24 379.337   2
   8   7 -10 536.785 186.232   1
   8  -7 -10 851.432 287.231   2
  -8  -7  10 867.548 313.506   6
   8  -7  -9 1417.04 351.976   2
   8  -7  -8 834.563 271.717   2
   8  -7  -7-22.9325 93.4491   2
   8  -7  -6 123.754 133.867   2
   8  -7  -5 566.435 253.592   2
   8  -7  -4 1242.44 310.114   2
  -8  -7   3 3896.39 511.434   4
   8   7  -3 4614.59 613.099   1
   8   7  -3 5003.92 708.240   3
   8  -7  -3 4755.14 586.607   2
   8  -7  -2-16.4061 76.0171   2
  -8  -7   2 102.629 113.398   4
   8   7  -2 12.9542 71.4177   1
   8   7  -2-21.9336 109.720   3
  -8  -7   1 2973.29 449.489   2
  -8  -7   1 2977.54 493.341   4
   8   7  -1 3614.03 589.937   3
   8   7  -1 3360.43 552.753   1
   8  -7  -1 4273.38 549.199   2
   8   7   0 120.595 128.970   1
  -8  -7   0 30.9266 98.6239   4
   8  -7   0-110.228 120.485   2
  -8  -7   0-67.4819 91.7985   2
   8   7   0 37.9107 116.507   3
  -8  -7  -1 88.3622 80.5998   2
  -8  -7  -1 217.259 140.970   4
   8   7   1-7.30792 119.310   3
   8  -7   1 119.129 101.366   2
   8   7   1 10.0291 121.120   1
  -8  -7  -2 1337.08 307.724   2
  -8  -7  -2 1106.61 333.100   4
   8   7   2 1051.85 294.969   3
   8   7   2 1462.75 400.256   1
   8  -7   2 1122.13 281.763   2
  -8  -7  -3 132.578 128.796   2
   8   7   3 241.874 217.825   1
  -8  -7  -3 56.6893 78.6989   4
   8   7   3 359.734 243.449   3
  -8  -7  -4 16.1944 62.6018   2
  -8  -7  -4 144.726 177.634   4
   8   7   4 183.706 133.028   3
   8   7   4-45.1462 146.377   1
  -8  -7  -5 1340.46 308.550   2
  -8  -7  -5 1334.79 384.752   4
   8   7   5 1402.54 369.191   1
  -8  -7  -6-264.589 227.975   4
   8   7   6 114.485 139.354   1
  -8  -7  -6-45.0642 119.818   2
   8   7   7 176.611 118.921   1
  -8  -7  -7 132.952 115.252   4
  -8  -7  -7 10.5269 84.7808   2
   8   7   8-49.1584 160.769   1
  -8  -7  -8-192.341 178.703   4
  -8  -7  -8-25.3594 52.3670   2
   8   7   9 1604.31 470.298   1
  -8  -7  -9 1108.92 359.390   4
  -8  -7  -9 1506.05 337.670   2
  -8  -7 -10 150.309 108.840   5
  -8  -7 -10 469.005 343.844   4
  -8  -7 -10 231.377 157.815   2
   8   7  10 192.960 219.496   1
  -8  -7 -11 2891.86 515.281   5
  -8  -7 -11 3288.72 532.168   2
  -8  -7 -11 3306.20 695.602   4
   8   7  11 3755.77 712.884   1
  -8  -7 -12 131.488 163.212   5
  -8  -7 -12 280.006 232.329   4
  -8  -7 -12 107.649 124.402   2
   8   7  12 312.064 246.656   1
  -8  -7 -13 883.595 293.287   5
  -8  -7 -13 1285.05 349.484   2
   8   7  13 1060.28 389.649   1
   8   7  14 80.9891 89.5980   1
   8   7  15-11.4286 178.649   1
   8   7  16-350.430 284.458   1
   8  -8 -22 9760.25 1298.30   2
   8  -8 -21 119.870 186.374   2
   8  -8 -20 54.5736 110.725   2
   8  -8 -19 831.463 354.108   2
   8  -8 -18 110.369 107.754   2
   8  -8 -17 2150.18 535.192   2
  -8  -8  16 194.563 171.435   6
   8  -8 -16 462.148 282.011   2
   8  -8 -15 2963.65 611.096   2
  -8  -8  15 2455.37 506.035   6
   8  -8 -14 310.591 170.652   2
  -8  -8  14 324.750 232.578   6
   8  -8 -13 818.626 319.789   2
  -8  -8  13 619.767 279.272   6
   8  -8 -12-198.784 176.157   2
  -8  -8  12-85.5035 125.528   6
   8  -8 -11 139.356 179.755   2
  -8  -8  11 199.068 145.698   6
   8  -8 -10 371.481 210.135   2
   8  -8  -9 33.2560 95.9274   2
   8  -8  -8 521.574 233.903   2
   8  -8  -7 405.274 199.238   2
   8  -8  -6 136.654 105.300   2
   8  -8  -5 613.344 256.543   2
   8   8  -5 703.366 320.255   3
   8  -8  -4 18.3140 122.886   2
   8   8  -4 94.4303 136.858   3
   8   8  -3 2957.42 577.171   3
   8  -8  -3 3356.64 556.798   2
   8  -8  -2 207.771 109.928   2
   8   8  -2 105.674 114.465   3
   8  -8  -1 2102.63 427.171   2
   8   8  -1 2435.34 514.162   3
  -8  -8   1 2337.89 436.723   2
  -8  -8   0 92.9807 133.463   2
   8   8   0 240.126 145.356   3
  -8  -8  -1 353.530 147.431   2
   8   8   1 450.183 232.891   3
   8  -8   1 353.743 182.422   2
   8   8   2 271.293 143.797   1
  -8  -8  -2 488.716 211.262   2
   8   8   2 629.124 290.618   3
   8  -8   2 471.081 215.210   2
  -8  -8  -3 14.6503 91.1036   2
   8   8   3-184.075 204.318   3
   8   8   3 280.075 177.541   1
   8   8   4 362.606 209.852   1
  -8  -8  -4 107.585 119.493   2
   8   8   4 97.6453 128.770   3
  -8  -8  -5 315.140 138.106   2
   8   8   5-293.794 269.398   1
   8   8   6 581.230 373.907   1
  -8  -8  -6 35.2043 49.4785   2
   8   8   7 1039.54 355.578   1
  -8  -8  -7 956.461 293.467   2
   8   8   8 196.319 142.016   1
  -8  -8  -8-40.8643 116.787   2
   8   8   9 5910.99 897.720   1
  -8  -8  -9 4694.70 649.562   2
   8   8  10 470.719 310.275   1
  -8  -8 -10 140.668 134.829   2
  -8  -8 -11 4131.44 633.751   5
   8   8  11 6037.79 943.904   1
  -8  -8 -11 5004.48 709.450   2
  -8  -8 -12 239.019 148.144   5
  -8  -8 -12 115.397 176.666   2
   8   8  12 142.395 233.050   1
   8   8  13 1460.50 468.794   1
   8   8  14-36.3764 153.510   1
   8   8  15 25.6404 145.871   1
   8  -9 -20-94.6368 128.068   2
   8  -9 -19 641.547 309.439   2
   8  -9 -18 865.649 351.673   2
   8  -9 -17 764.945 353.670   2
   8  -9 -16 1355.57 435.456   2
   8  -9 -15 6568.74 915.768   2
  -8  -9  15 843.306 299.174   6
   8  -9 -14 1383.63 409.069   2
  -8  -9  14 477.703 197.065   6
   8  -9 -13 257.784 192.580   2
  -8  -9  13 316.970 165.354   6
   8  -9 -12 92.1524 176.958   2
  -8  -9  12 465.038 265.774   6
   8  -9 -11 249.850 229.643   2
   8  -9 -10 1389.85 395.757   2
   8  -9  -9 1163.67 352.911   2
   8  -9  -8 873.995 320.774   2
   8  -9  -7 469.856 236.330   2
   8  -9  -6 55.7713 110.075   2
   8   9  -6 122.553 192.871   3
   8  -9  -5 147.939 125.022   2
   8   9  -5 1039.08 324.525   3
   8  -9  -4 1369.53 360.897   2
   8   9  -4 1273.96 379.609   3
   8  -9  -3 464.324 211.621   2
   8   9  -3 697.917 298.094   3
   8  -9  -2 1040.74 339.050   2
   8   9  -2 1126.44 367.974   3
   8  -9  -1 452.300 207.569   2
   8   9  -1 315.695 193.434   3
  -8  -9   1 205.671 150.974   2
   8  -9   0-70.5430 108.534   2
  -8  -9   0 27.2151 116.207   2
   8   9   0-100.797 98.6767   3
  -8  -9  -1-63.8590 118.602   2
   8   9   1-154.672 190.765   3
   8  -9   1-26.0078 72.4821   2
  -8  -9  -2 443.461 233.816   2
   8   9   2 1091.53 379.034   3
   8  -9   2 986.831 356.244   2
  -8  -9  -3 271.772 152.191   2
   8   9   3 373.446 191.997   3
   8  -9   3 238.952 155.813   2
  -8  -9  -4 670.169 265.599   2
   8   9   4 1037.78 374.883   1
  -8  -9  -5 271.647 188.619   2
   8   9   5 391.988 264.639   1
  -8  -9  -6 184.319 131.970   2
   8   9   6 299.266 206.678   1
   8   9   7-132.663 149.619   1
  -8  -9  -7 77.6739 121.135   2
   8   9   8-130.476 206.222   1
  -8  -9  -8-43.2625 88.1461   2
  -8  -9  -9 540.494 225.095   2
   8   9   9 378.924 274.346   1
   8   9  10 1577.51 486.205   1
  -8  -9 -10 786.739 274.309   2
   8   9  11 1453.92 481.171   1
  -8  -9 -11 858.229 319.974   2
   8   9  12 612.987 339.262   1
   8   9  13 170.617 104.565   1
   8 -10 -18 896.262 395.055   2
   8 -10 -17-251.763 194.456   2
   8 -10 -16 1624.64 488.689   2
   8 -10 -15-35.3587 106.976   2
   8 -10 -14 268.344 204.630   2
  -8 -10  14-189.174 158.706   6
   8 -10 -13-73.4714 158.524   2
  -8 -10  13 247.246 163.928   6
   8 -10 -12 787.390 324.303   2
  -8 -10  12 403.995 250.351   6
   8 -10 -11-392.334 232.780   2
   8 -10 -10 720.646 314.675   2
   8 -10  -9 144.169 212.596   2
   8 -10  -8 197.216 144.065   2
   8 -10  -7 445.594 223.658   2
   8  10  -7 88.1640 82.7201   3
   8 -10  -6 345.670 214.405   2
   8  10  -6 65.5717 134.540   3
   8 -10  -5 337.693 224.915   2
   8  10  -5 146.584 194.179   3
   8 -10  -4 2402.85 527.144   2
   8  10  -4 2584.04 593.216   3
   8 -10  -3 45.5420 113.471   2
   8  10  -3 208.187 209.015   3
   8 -10  -2 1841.72 464.990   2
   8  10  -2 2525.97 593.086   3
  -8 -10   2 2154.36 476.398   2
   8 -10  -1-153.319 173.143   2
   8  10  -1 31.6328 133.058   3
  -8 -10   1 27.1130 90.6017   2
   8 -10   0-68.6394 159.941   2
  -8 -10   0 455.244 245.926   2
   8  10   0 362.876 234.006   3
  -8 -10  -1-178.051 118.325   2
   8  10   1-277.608 246.412   3
   8 -10   1-284.915 214.812   2
  -8 -10  -2 34.2952 66.8773   2
   8  10   2 239.733 198.842   3
   8 -10   2 175.001 150.192   2
  -8 -10  -3-7.93284 70.4166   2
   8 -10   3-228.024 202.600   2
  -8 -10  -4 881.194 306.632   2
  -8 -10  -5-31.1850 117.830   2
  -8 -10  -6 114.559 96.1336   2
   8  10   6 410.791 271.817   1
  -8 -10  -7-212.261 166.070   2
   8  10   7 83.6694 181.397   1
   8  10   8-1.92501 101.198   1
  -8 -10  -8 16.3229 69.2638   2
   8  10   9 113.124 121.714   1
  -8 -10  -9 29.8888 70.2605   2
   8  10  10 1904.92 567.081   1
   8 -11 -16 1340.46 467.797   2
   8 -11 -15 55.2527 121.752   2
   8 -11 -14-271.305 213.205   2
   8 -11 -13 132.785 163.670   2
   8 -11 -12 57.8590 85.2074   2
   8 -11 -11 126.714 164.069   2
   8 -11 -10 660.337 306.572   2
   8  11  -9 766.984 332.713   3
   8 -11  -9 919.774 355.636   2
   8 -11  -8 381.415 250.525   2
   8  11  -8 20.7577 98.4989   3
   8 -11  -7 249.369 189.885   2
   8  11  -7-224.289 156.504   3
   8 -11  -6 21.4648 86.7992   2
   8  11  -6 135.733 169.870   3
   8 -11  -5 154.829 177.214   2
   8  11  -5-27.4175 111.207   3
   8 -11  -4 816.536 324.852   2
   8  11  -4 2148.66 587.901   3
   8 -11  -3 550.961 278.792   2
   8  11  -3 627.690 328.611   3
  -8 -11   3 762.494 326.634   2
   8 -11  -2 2698.20 565.182   2
   8  11  -2 3537.59 711.547   3
  -8 -11   2 1981.91 511.257   2
   8 -11  -1 599.529 262.350   2
   8  11  -1 89.0977 124.967   3
  -8 -11   1 352.594 203.220   2
   8 -11   0 872.680 338.796   2
  -8 -11   0 472.184 201.583   2
   8  11   0 689.618 296.393   3
  -8 -11  -1 77.2904 117.433   2
   8 -11   1-257.832 212.246   2
   8  11   1 286.547 235.560   3
  -8 -11  -2 31.6108 67.5378   2
   8  11   2 84.0931 113.836   3
   8 -11   2-145.608 165.006   2
  -8 -11  -3 246.567 194.384   2
   8  11   3 59.7165 128.065   3
   8 -11   3-4.21692 117.546   2
  -8 -11  -4 614.006 289.365   2
   8 -11   4 694.038 314.870   2
  -8 -11  -5 640.691 291.215   2
  -8 -11  -6 225.223 166.110   2
  -8 -11  -7 309.354 207.387   2
   8  11   7 216.313 190.529   1
   8  11   8 281.619 109.666   1
   8 -12 -13 310.320 245.311   2
   8 -12 -12 10.2553 134.921   2
   8 -12 -11 630.281 300.875   2
   8 -12 -10-23.5316 130.536   2
   8 -12  -9 822.231 357.219   2
   8 -12  -8 442.436 260.730   2
   8  12  -8 70.0485 194.230   3
   8 -12  -7 196.054 168.203   2
   8  12  -7 677.626 353.576   3
   8 -12  -6 17.8280 93.3093   2
   8  12  -6-202.953 197.513   3
   8 -12  -5 230.584 219.707   2
   8  12  -5 98.0568 99.0864   3
   8 -12  -4-225.566 188.735   2
   8  12  -4 184.606 130.449   3
   8 -12  -3 1520.30 472.622   2
   8  12  -3 1284.03 452.863   3
  -8 -12   3 633.705 257.405   2
   8 -12  -2 516.091 286.651   2
   8  12  -2 108.836 156.697   3
  -8 -12   2 139.491 125.468   2
   8 -12  -1 426.193 244.273   2
  -8 -12   1 679.872 337.588   2
   8  12  -1 486.694 317.229   3
   8 -12   0-44.0316 158.120   2
  -8 -12   0-171.373 167.012   2
   8  12   0 78.4903 184.827   3
  -8 -12  -1 195.462 172.053   2
   8 -12   1-345.106 224.525   2
   8  12   1 204.090 245.756   3
  -8 -12  -2 116.436 155.933   2
   8  12   2 81.9770 117.035   3
   8 -12   2-262.807 202.027   2
  -8 -12  -3 515.498 297.064   2
   8 -12   3 566.501 293.065   2
  -8 -12  -4 145.605 151.705   2
   8 -12   4 227.474 231.859   2
  -8 -12  -5 877.586 355.914   2
   8 -12   5 676.852 329.548   2
   8 -13  -8 459.296 319.269   2
   8 -13  -7-8.93806 187.256   2
   8 -13  -6 333.005 216.370   2
   8 -13  -5 648.878 343.348   2
   8 -13  -4-182.860 184.678   2
  -8 -13   4 13.3442 80.1500   2
   8 -13  -3 520.131 330.544   2
  -8 -13   3 579.120 285.008   2
   8 -13  -2 253.535 240.879   2
  -8 -13   2 126.790 128.397   2
   8 -13  -1 643.315 320.740   2
  -8 -13   1 510.780 278.098   2
   8 -13   0-241.503 205.537   2
  -8 -13   0-115.259 143.815   2
  -8 -13  -1 249.964 203.975   2
   8 -13   1 306.064 292.179   2
  -8 -13  -2-156.592 165.003   2
   8 -13   2-413.336 257.500   2
   8 -13   3 160.820 171.436   2
   9   0 -26 283.230 213.432   2
   9   0 -25 3252.73 690.923   2
   9   0 -24-150.796 185.156   2
   9   0 -23 4093.67 750.070   2
   9   0 -22-32.4706 104.937   2
   9   0 -21 748.206 373.953   2
   9   0 -20 183.578 161.550   2
   9   0 -19 5941.40 774.744   2
   9   0 -18 17.8400 111.387   2
   9   0 -17 6723.60 780.577   2
   9   0 -16 171.249 115.818   2
   9   0 -15 144.625 128.972   2
   9   0 -14 56.9853 119.820   2
   9   0 -13 4375.64 537.956   2
   9   0 -12 62.8673 86.7462   2
  -9   0  12-69.9122 101.171   2
  -9   0  11 14263.8 900.428   2
   9   0 -11 16063.2 933.524   2
  -9   0  11 17549.0 1316.10   6
  -9   0  10-92.5445 91.9444   2
   9   0 -10-1.02878 49.1662   2
  -9   0   9 3021.78 533.599   6
  -9   0   9 2981.14 360.029   2
   9   0  -9 3189.10 369.972   2
  -9   0   8-55.3748 99.6562   6
  -9   0   8-3.31038 33.4661   2
  -9   0   8-16.3985 59.9038   1
  -9   0   7 257.499 207.524   6
  -9   0   7 220.795 87.6193   2
  -9   0   7 283.737 124.832   1
  -9   0   6 15.4829 31.2008   1
  -9   0   6-16.4830 32.1478   2
  -9   0   6 53.4856 73.9178   6
  -9   0   5 4336.81 595.711   5
  -9   0   5 3559.05 471.882   1
  -9   0   5 3802.06 616.534   6
  -9   0   4-105.092 98.1209   6
  -9   0   4 162.310 150.699   5
  -9   0   3 22857.6 1404.84   5
  -9   0   3 21246.7 1391.27   6
  -9   0   2 45.9188 145.051   6
  -9   0   2 314.286 216.433   5
  -9   0   1 9730.58 916.986   5
   9   0  -1 8636.27 488.270   3
  -9   0   1 9577.53 936.033   6
  -9   0   0-31.6857 93.0047   6
  -9   0   0-16.4370 85.6915   5
   9   0   0 12.5473 31.7970   3
  -9   0  -1 4006.51 592.794   5
  -9   0  -1 4687.77 641.311   6
  -9   0  -2 20.7003 85.6011   6
  -9   0  -2-423.404 200.987   5
  -9   0  -3 1885.61 397.676   5
  -9   0  -3 2601.26 478.797   6
  -9   0  -4 84.3206 125.024   5
  -9   0  -4 13.7554 137.801   6
  -9   0  -5 11897.2 1041.46   5
  -9   0  -5 13704.6 1107.63   6
  -9   0  -6 11.2474 79.6479   5
  -9   0  -6 429.620 213.887   6
  -9   0  -7 2902.65 531.577   5
  -9   0  -7 3219.15 536.543   6
  -9   0  -8-107.112 87.9074   5
  -9   0  -8 344.160 218.381   6
  -9   0  -9 8175.53 858.676   6
  -9   0 -10 214.589 178.123   6
  -9   0 -11 14856.2 1169.99   6
  -9   0 -12 351.578 204.909   6
  -9   0 -13 6515.32 769.179   6
  -9   0 -14 96.3389 101.508   6
  -9   0 -15 105.814 115.842   6
  -9   0 -16-81.3094 142.006   6
  -9   0 -17-148.443 206.559   4
  -9   0 -18 321.789 295.913   4
  -9   0 -19 564.685 341.421   4
   9   1 -26 41.9498 168.695   2
   9  -1 -26-42.9707 172.707   2
   9   1 -25 487.790 369.020   2
   9  -1 -25 669.903 288.451   2
   9   1 -24-71.5874 160.897   2
   9  -1 -24 112.179 183.202   2
   9   1 -23 1316.99 408.951   2
   9  -1 -23 1475.08 440.867   2
   9   1 -22 943.261 361.859   2
   9  -1 -22 365.433 213.239   2
   9   1 -21 101.540 127.783   2
   9  -1 -21 79.4858 150.045   2
  -9   1  20 443.670 221.408   5
   9   1 -20 97.0071 169.053   2
   9  -1 -20 137.699 181.474   2
  -9   1  19 1458.23 345.224   5
   9   1 -19 1234.06 354.310   2
   9  -1 -19 1704.92 422.533   2
  -9   1  18 1357.28 349.477   5
   9   1 -18 1184.85 337.043   2
   9  -1 -18 812.167 272.291   2
  -9   1  17 2082.73 427.120   5
   9   1 -17 1945.21 420.154   2
   9  -1 -17 2022.17 415.154   2
   9  -1 -16 3332.03 519.899   2
  -9   1  16 3225.52 558.492   5
   9   1 -16 2632.71 487.214   2
   9  -1 -15 818.726 259.467   2
  -9   1  15 531.384 215.693   5
   9   1 -15 811.020 252.544   2
  -9   1  14 3535.56 554.283   5
   9   1 -14 3060.29 465.285   2
   9  -1 -14 2876.94 467.233   2
   9  -1 -13 396.948 164.241   2
  -9  -1  13 714.877 280.843   6
  -9   1  13 926.343 291.447   5
   9  -1 -12-31.8672 59.0874   2
  -9  -1  12-59.2345 111.370   6
  -9   1  12 37.2899 50.2324   2
  -9   1  12 127.345 134.255   5
  -9  -1  12-39.0800 109.037   2
  -9   1  12 30.4249 49.7263   1
  -9   1  11 6698.21 751.599   5
  -9   1  11 5456.35 464.890   1
  -9  -1  11 5814.49 571.166   2
  -9   1  11 6032.22 590.728   2
   9  -1 -11 6231.85 584.985   2
  -9  -1  11 6831.73 823.755   6
  -9  -1  10 3269.96 557.003   6
  -9   1  10 3843.41 591.178   5
  -9   1  10 2825.27 355.066   1
  -9  -1  10 2705.20 363.436   2
  -9   1  10 2926.52 389.139   2
   9  -1 -10 3650.49 423.258   2
  -9  -1   9 2680.20 513.349   6
  -9   1   9 3569.67 596.954   6
  -9   1   9 3104.46 518.997   5
  -9   1   9 2782.06 364.837   1
  -9  -1   9 2646.31 343.931   2
  -9   1   9 2788.96 353.486   2
   9  -1  -9 2968.47 356.471   2
  -9  -1   8 2708.40 497.209   6
  -9   1   8 2703.63 503.796   6
  -9   1   8 2731.66 471.276   5
  -9   1   8 2736.76 379.921   1
  -9  -1   8 2650.03 321.388   2
   9  -1  -8 2488.73 302.464   2
  -9   1   8 2466.05 310.027   2
  -9  -1   7 21.9163 136.773   6
  -9   1   7 121.457 184.218   6
  -9   1   7 3.92114 79.6149   5
  -9   1   7-91.3433 74.1340   1
  -9   1   7 32.4324 35.7863   2
   9  -1  -7 39.9646 52.5313   2
  -9  -1   7 53.4814 47.8355   2
  -9  -1   6 402.865 166.743   6
  -9  -1   6 501.217 108.809   2
  -9   1   6 601.319 249.927   6
  -9   1   6 613.943 213.952   5
  -9   1   6 657.197 191.259   1
   9  -1  -6 748.043 137.841   2
  -9  -1   5 2339.53 469.965   6
  -9   1   5 2218.56 428.970   6
  -9   1   5 1586.08 344.048   5
  -9   1   5 1884.94 339.399   1
  -9  -1   5 1689.59 153.412   2
  -9   1   4 5669.94 705.117   5
  -9  -1   4 6431.58 780.210   6
  -9   1   4 5999.17 745.668   6
  -9   1   3 9649.50 906.508   5
  -9  -1   3 10430.2 981.060   6
  -9   1   3 10457.5 967.861   6
  -9  -1   2 10320.7 959.717   5
  -9   1   2 10072.5 930.074   5
  -9  -1   2 10673.6 978.662   6
  -9   1   2 10618.0 967.158   6
  -9   1   1 798.962 266.121   6
  -9  -1   1 892.067 298.978   5
  -9   1   1 720.123 242.408   5
   9  -1  -1 658.382 96.6560   3
   9   1  -1 1052.81 207.596   3
  -9  -1   1 727.776 228.274   6
  -9   1   0 2120.04 434.828   6
  -9  -1   0 2166.72 426.063   5
  -9   1   0 1400.16 326.751   5
   9   1   0 1894.67 252.657   3
  -9  -1   0 1686.09 391.067   6
  -9   1  -1 1001.60 298.718   6
  -9  -1  -1 871.339 305.417   5
  -9   1  -1 832.912 302.853   5
   9   1   1 681.685 152.038   3
  -9  -1  -1 1041.61 335.309   6
  -9  -1  -2 6176.61 744.307   5
  -9   1  -2 7120.35 791.034   5
  -9  -1  -2 6775.31 777.400   6
  -9   1  -2 7307.18 802.164   6
  -9  -1  -3 6705.43 773.569   5
  -9   1  -3 6082.78 745.206   5
  -9  -1  -3 6125.94 744.340   6
  -9   1  -3 6433.78 751.029   6
  -9   1  -4 3456.79 569.902   5
  -9  -1  -4 3892.83 582.586   5
  -9  -1  -4 4077.01 614.391   6
  -9   1  -4 3466.31 560.395   6
  -9  -1  -5 7012.06 796.180   5
  -9   1  -5 7720.87 844.202   5
  -9  -1  -5 6681.31 781.161   6
  -9   1  -5 7162.01 784.488   6
  -9   1  -6 602.721 257.001   6
  -9  -1  -6 521.574 191.195   5
  -9   1  -6 692.852 243.450   5
  -9  -1  -6 411.200 166.701   6
  -9   1  -7 1205.91 319.305   6
  -9  -1  -7 793.053 272.145   5
  -9  -1  -7 760.989 263.068   6
  -9   1  -8 92.9206 164.531   6
  -9  -1  -8 108.756 144.253   5
  -9  -1  -8-70.3699 88.4642   6
  -9   1  -9 2418.57 477.612   6
  -9  -1  -9 2357.83 493.169   5
  -9  -1  -9 1940.41 435.242   6
  -9   1 -10 342.010 233.007   6
  -9  -1 -10 81.7083 114.408   5
  -9  -1 -10 391.160 187.110   6
  -9  -1 -11 4525.77 660.902   6
  -9   1 -11 3593.51 568.016   6
  -9   1 -12 222.030 193.727   6
  -9  -1 -12-44.6878 123.848   6
  -9   1 -13 2146.78 431.516   6
  -9  -1 -13 1971.08 440.765   6
  -9   1 -14 94.6809 159.962   6
  -9  -1 -14-61.9858 114.554   6
  -9   1 -15-98.6241 62.0639   6
  -9  -1 -15-342.866 265.935   4
  -9  -1 -15-182.425 165.856   6
  -9  -1 -16-93.4551 145.749   6
  -9  -1 -16 167.518 137.878   4
  -9  -1 -17 794.225 367.237   4
  -9  -1 -17 7.45598 77.5526   6
  -9   1 -18 1464.83 488.320   4
  -9  -1 -18 1705.52 555.233   4
  -9   1 -19 528.393 304.286   4
  -9  -1 -19 1476.78 524.294   4
   9  -2 -26 436.126 260.033   2
   9  -2 -25 1.89002 150.662   2
   9  -2 -24 2016.69 564.343   2
   9  -2 -23 394.146 199.400   2
   9  -2 -22 181.846 110.313   2
   9  -2 -21-9.66344 131.812   2
   9  -2 -20 138.193 123.438   2
  -9   2  20 197.373 156.330   5
   9  -2 -19 235.555 175.579   2
  -9   2  19 356.927 189.026   5
   9  -2 -18 3310.31 572.434   2
  -9   2  18 4162.66 583.385   5
   9  -2 -17 408.277 191.860   2
  -9   2  17 751.032 279.342   5
  -9   2  16 4735.95 621.042   5
   9  -2 -16 5054.00 673.784   2
  -9  -2  15 2821.25 555.015   6
   9  -2 -15 2343.60 438.315   2
  -9   2  15 3021.08 499.521   5
  -9  -2  14 743.760 283.017   6
   9  -2 -14 935.599 253.411   2
  -9   2  14 654.068 224.470   5
  -9  -2  13 692.892 243.968   6
   9  -2 -13 987.368 260.645   2
  -9   2  13 1187.49 207.728   1
  -9   2  13 824.102 227.321   5
  -9   2  12 3511.05 389.611   1
  -9   2  12 3468.34 552.007   5
   9  -2 -12 3452.98 471.081   2
  -9  -2  12 4210.84 652.071   6
   9  -2 -11 192.112 123.280   2
  -9   2  11 213.788 150.109   5
  -9   2  11-27.1564 47.9150   2
  -9  -2  11 122.318 82.9550   2
  -9   2  11 172.803 131.638   1
  -9   2  10 8455.85 657.544   1
  -9   2  10 9153.79 885.619   5
  -9  -2  10 8694.49 694.000   2
   9  -2 -10 9914.14 724.008   2
  -9  -2  10 10453.9 1016.82   6
  -9   2  10 8306.07 671.771   2
  -9   2   9 1994.97 345.203   1
  -9  -2   9 1840.61 427.223   6
  -9  -2   9 2007.17 316.796   2
  -9   2   9 2120.39 424.611   5
  -9   2   9 1690.73 283.172   2
   9  -2  -9 2154.28 325.663   2
  -9   2   8 3940.39 476.199   1
  -9   2   8 4342.01 430.575   2
  -9   2   8 4736.52 629.362   5
  -9  -2   8 4270.94 426.703   2
   9  -2  -8 4494.65 433.922   2
  -9  -2   8 5060.01 709.682   6
   9  -2  -7 200.463 89.3046   2
  -9   2   7 360.124 212.316   5
  -9  -2   7 352.536 114.422   2
  -9  -2   7 312.334 184.138   6
  -9   2   7 230.520 112.195   1
  -9  -2   6 222.673 212.322   6
   9  -2  -6 95.6716 59.4400   2
  -9   2   6 370.263 191.418   5
  -9  -2   6 122.051 72.0991   2
  -9   2   5 1575.73 356.902   6
  -9   2   5 2072.44 424.337   5
  -9  -2   5 1822.59 196.743   2
   9  -2  -5 1614.30 196.396   2
  -9  -2   5 2327.87 469.085   6
  -9   2   4 3294.92 555.025   6
  -9   2   4 3760.67 581.375   5
  -9  -2   4 3648.99 210.785   2
   9  -2  -4 3408.86 239.062   2
  -9  -2   4 4025.70 614.385   6
  -9   2   3 4393.47 608.210   5
  -9  -2   3 5024.35 691.716   6
  -9   2   3 4405.90 638.383   6
  -9   2   2 12243.7 1028.22   5
  -9  -2   2 14322.8 1141.28   6
  -9   2   2 12967.1 1081.58   6
  -9   2   1 162.095 117.216   6
  -9   2   1 443.951 169.298   5
   9   2  -1 462.510 151.093   3
  -9  -2   1 558.359 199.694   6
  -9   2   0 362.719 172.865   6
  -9   2   0 285.128 144.535   5
   9   2   0 358.953 144.957   3
  -9  -2   0 121.514 128.920   6
  -9  -2  -1 4044.58 593.209   5
  -9   2  -1 4371.02 631.875   5
   9   2   1 4021.96 418.893   3
  -9  -2  -1 4323.19 636.377   6
  -9   2  -1 3787.56 579.275   6
  -9   2  -2 4018.97 603.302   5
  -9  -2  -2 3484.82 567.507   5
   9   2   2 3569.65 392.261   3
   9   2   2 4453.63 600.085   1
  -9   2  -2 4220.39 600.412   6
  -9  -2  -2 3299.68 563.848   6
  -9   2  -3 3281.75 540.164   6
  -9   2  -3 3627.22 571.840   5
  -9  -2  -3 3239.84 549.558   5
   9   2   3 3558.04 546.571   1
  -9  -2  -3 3300.34 553.950   6
  -9  -2  -4 7236.03 803.189   5
   9   2   4 7104.25 803.363   1
  -9  -2  -4 7985.20 878.743   6
  -9   2  -4 6848.44 792.652   6
  -9   2  -5 677.463 228.467   6
  -9  -2  -5 207.364 88.6485   5
   9   2   5 452.191 273.498   1
  -9  -2  -5 591.368 283.630   6
  -9  -2  -6 4847.97 681.270   5
   9   2   6 4962.64 721.456   1
  -9  -2  -6 4456.49 657.290   6
  -9   2  -6 4147.86 596.871   6
  -9   2  -7-12.0263 112.918   6
  -9  -2  -7 1.19548 91.4479   5
  -9   2  -8 145.430 101.035   6
  -9  -2  -8 208.536 119.204   5
  -9   2  -9 112.036 58.7067   6
  -9  -2  -9 133.156 122.480   5
  -9  -2  -9 231.148 75.4379   2
  -9   2 -10 1473.91 350.113   6
  -9  -2 -10 996.873 300.425   5
  -9  -2 -10 1415.71 220.446   2
  -9   2 -11 151.079 87.6482   6
  -9  -2 -11 599.678 252.149   5
  -9   2 -12 2161.81 423.335   6
  -9  -2 -12 2455.31 562.453   4
  -9   2 -13 139.350 138.853   6
  -9  -2 -13-173.769 205.939   4
  -9   2 -14 297.065 174.008   6
  -9  -2 -14 201.188 124.126   4
  -9  -2 -15 195.028 185.343   4
  -9  -2 -16 959.195 412.048   4
  -9  -2 -16 717.333 306.461   6
  -9  -2 -17 1091.06 459.614   4
  -9  -2 -17 874.244 305.880   6
  -9  -2 -18 2183.37 634.508   4
  -9  -2 -18 2272.02 501.393   6
   9  -3 -26 656.906 351.314   2
   9  -3 -25 746.975 367.800   2
   9  -3 -24 3243.85 679.760   2
   9  -3 -23 513.576 292.760   2
   9  -3 -22 1183.65 386.324   2
   9  -3 -21-99.6637 139.437   2
   9  -3 -20-86.2883 143.505   2
   9  -3 -19 558.534 261.016   2
  -9   3  19 367.998 177.641   5
   9  -3 -18 3477.74 608.181   2
  -9   3  18 4117.72 556.282   5
   9  -3 -17 301.260 179.367   2
  -9   3  17 657.226 274.819   5
  -9  -3  16 2266.63 479.582   6
   9  -3 -16 2121.87 434.649   2
  -9   3  16 1840.97 376.037   5
  -9  -3  15 173.624 193.777   6
   9  -3 -15-135.419 93.0856   2
  -9   3  15 136.199 140.163   5
   9  -3 -14-3.36392 75.0595   2
  -9   3  14-32.9622 57.7021   5
  -9  -3  13 74.7742 89.2490   6
   9  -3 -13-21.1366 78.4882   2
  -9   3  13-40.7205 59.7248   5
  -9   3  12 6024.51 695.060   5
  -9   3  12 4731.92 485.811   1
   9  -3 -12 6035.13 642.064   2
  -9  -3  12 5483.08 756.331   6
  -9  -3  11 841.126 310.968   6
  -9   3  11 1151.87 306.052   5
   9  -3 -11 874.210 253.981   2
  -9  -3  11 509.999 181.445   2
  -9   3  11 569.524 176.664   1
  -9  -3  10 4194.60 494.498   2
  -9   3  10 4214.39 492.210   2
  -9   3  10 4354.74 596.370   5
  -9   3  10 3631.64 456.202   1
  -9  -3  10 4903.51 720.731   6
   9  -3 -10 5226.97 551.697   2
  -9   3   9-27.2436 101.105   5
   9  -3  -9 49.3335 96.7300   2
  -9  -3   9 152.786 118.899   2
  -9   3   9 90.2532 67.3775   1
  -9   3   8 456.891 198.677   5
   9  -3  -8 673.709 187.158   2
  -9  -3   8 232.782 101.973   2
  -9  -3   8 228.666 98.3884   6
  -9   3   7-108.559 186.229   5
   9  -3  -7-53.4245 72.0637   2
  -9  -3   7 25.1978 39.4930   2
  -9  -3   7-146.251 209.208   6
  -9   3   6 153.217 105.566   5
  -9  -3   6 85.0175 41.1093   2
   9  -3  -6 12.5792 27.6553   2
  -9  -3   6 8.45665 131.352   6
  -9   3   5-78.9433 105.649   5
  -9  -3   5-1.07140 20.2605   2
   9  -3  -5 10.5362 28.2534   2
   9   3  -5 4.94812 83.1669   1
  -9  -3   5 23.9781 86.8993   6
   9  -3  -4 1397.63 197.330   2
  -9   3   4 1584.48 380.591   5
   9   3  -4 1092.41 249.042   1
  -9  -3   4 1553.67 384.128   6
  -9  -3   4 1288.41 181.559   2
  -9   3   3 730.060 269.284   5
  -9  -3   3 666.496 113.680   2
   9  -3  -3 599.447 124.986   2
   9  -3  -3 629.064 116.692   3
   9   3  -3 707.435 227.466   1
  -9  -3   3 605.452 109.680   2
  -9  -3   3 931.504 321.533   6
   9  -3  -2 3901.51 276.644   2
  -9   3   2 2983.11 519.645   5
  -9  -3   2 3441.92 210.910   2
  -9  -3   2 4339.97 648.200   6
   9   3  -2 4130.34 546.451   1
  -9  -3   2 3879.52 224.249   2
  -9   3   1 53.6127 114.012   6
  -9   3   1 57.2280 87.7794   5
   9  -3  -1-2.37250 14.1698   2
   9   3  -1 1.22485 67.8169   1
   9   3  -1-4.74027 59.7958   3
  -9  -3   1 133.798 168.981   6
  -9   3   0 599.869 234.937   6
   9  -3   0 504.067 77.3423   2
   9   3   0 558.477 201.914   1
   9   3   0 246.945 128.043   3
  -9  -3   0 781.376 284.460   6
   9  -3   0 419.581 70.3127   2
  -9   3  -1 103.969 104.249   6
   9   3   1 220.483 91.9341   3
   9  -3   1 127.630 35.3057   2
   9   3   1-30.6842 69.1255   1
  -9   3  -2-44.9210 120.622   6
   9   3   2 111.125 102.410   3
   9   3   2 240.226 161.380   1
   9  -3   2 44.6320 21.1976   2
  -9   3  -3-61.5681 142.198   6
   9  -3   3 161.387 49.7748   2
   9  -3   3 119.503 41.1374   2
   9   3   3 278.100 188.797   1
   9  -3   4 3714.47 249.475   2
  -9  -3  -4 4487.84 656.988   5
   9  -3   4 4068.17 259.442   2
  -9   3  -4 4321.18 613.998   6
   9   3   4 3963.21 599.320   1
  -9   3  -5 787.468 276.335   6
  -9  -3  -5 858.449 286.032   5
   9   3   5 837.137 296.068   1
   9  -3   5 613.956 114.937   2
  -9  -3  -5 509.826 80.7381   2
   9   3   6 4848.62 700.375   1
  -9  -3  -6 3708.36 595.046   5
  -9  -3  -6 3661.13 266.263   2
  -9   3  -6 3845.20 573.896   6
  -9  -3  -7 20.1443 19.0140   2
  -9   3  -7 53.6091 81.1645   6
  -9  -3  -7 7.32376 161.835   5
   9   3   7 271.188 183.788   1
  -9  -3  -8 1254.03 199.968   2
  -9   3  -8 1132.41 304.205   6
  -9  -3  -8 1556.82 397.803   5
   9   3   8 1337.76 392.409   1
  -9   3  -9 949.635 275.516   6
  -9  -3  -9 942.406 316.687   5
  -9  -3  -9 576.631 285.226   4
   9   3   9 1204.02 377.974   1
  -9  -3  -9 577.833 141.876   2
  -9  -3 -10 9659.56 978.200   5
  -9  -3 -10 10060.7 1147.85   4
   9   3  10 9668.10 1066.85   1
  -9   3 -10 8919.46 858.761   6
  -9   3 -11 863.909 275.388   6
  -9  -3 -11 487.391 203.401   5
  -9  -3 -11 817.703 338.788   4
   9   3  11 1258.94 414.807   1
  -9  -3 -12 6669.28 815.026   5
  -9  -3 -12 7905.31 1059.11   4
   9   3  12 8874.58 1063.03   1
  -9   3 -12 7749.96 785.389   6
  -9   3 -13-16.0476 80.6639   6
  -9  -3 -13 326.021 212.067   4
   9   3  13 517.721 250.416   1
  -9   3 -14 285.319 126.233   6
  -9  -3 -14 39.1301 147.352   4
  -9  -3 -15-34.6330 224.095   4
  -9  -3 -16 360.538 309.560   4
  -9  -3 -17 517.748 348.908   4
  -9  -3 -18 1045.06 441.523   4
   9  -4 -25-351.966 240.139   2
   9  -4 -24 980.368 382.529   2
   9  -4 -23-525.275 278.753   2
   9  -4 -22 66.2901 96.4326   2
   9  -4 -21-49.2200 198.991   2
   9  -4 -20 523.935 233.475   2
   9  -4 -19 879.929 324.914   2
  -9  -4  18 2002.81 468.740   6
   9  -4 -18 1407.50 391.346   2
  -9  -4  17 3297.44 598.354   6
   9  -4 -17 3607.35 605.292   2
  -9  -4  16 613.840 268.934   6
   9  -4 -16 552.387 226.759   2
  -9   4  16 687.486 249.122   5
  -9  -4  15 3613.26 626.511   6
  -9   4  15 3080.34 488.307   5
   9  -4 -15 2854.28 505.373   2
  -9  -4  14 142.621 152.014   6
  -9   4  14 69.9756 107.440   5
   9  -4 -14 146.276 117.232   2
  -9  -4  13 791.417 312.275   6
  -9   4  13 471.566 186.413   5
   9  -4 -13 410.370 155.132   2
  -9  -4  12 1714.78 427.877   6
  -9   4  12 1854.49 393.658   5
   9  -4 -12 1724.45 370.633   2
  -9  -4  11 2720.19 514.518   6
   9  -4 -11 3033.53 455.731   2
  -9   4  11 3171.95 515.143   5
  -9   4  10 2562.40 456.387   5
   9  -4 -10 2380.79 410.134   2
  -9  -4  10 3287.59 585.701   6
   9  -4  -9 4020.32 495.718   2
  -9   4   9 3806.78 571.464   5
  -9  -4   9 3874.89 635.989   6
  -9  -4   9 3416.59 450.370   2
   9   4  -9 4308.90 451.236   1
  -9  -4   8 288.266 112.619   2
  -9   4   8 461.963 221.618   5
   9  -4  -8 441.565 161.848   2
   9   4  -8 343.630 125.680   1
  -9  -4   8 583.615 234.253   6
  -9  -4   7 156.605 89.1018   2
  -9   4   7 271.678 173.821   5
   9  -4  -7 52.1153 39.9594   2
   9   4  -7 176.447 93.8392   1
  -9  -4   7 19.7007 80.5197   6
   9  -4  -6 38.4407 55.3395   2
  -9  -4   6-0.41721 122.359   6
   9   4  -5 3377.93 454.218   1
  -9  -4   5 2904.92 546.484   6
   9  -4  -5 2390.65 323.336   2
  -9  -4   5 2671.89 327.098   2
   9  -4  -4 2250.80 295.146   2
  -9  -4   4 3388.23 588.060   6
   9  -4  -4 2543.39 277.600   3
  -9  -4   4 2403.75 290.889   2
   9   4  -4 2409.61 404.135   1
   9   4  -3 13528.1 961.078   1
   9  -4  -3 14409.8 717.731   2
   9  -4  -3 12600.9 535.333   3
  -9  -4   3 14160.1 1193.09   6
  -9  -4   2 660.740 131.263   2
   9   4  -2 969.354 284.095   3
   9  -4  -2 739.482 148.110   2
   9   4  -2 1176.90 300.611   1
  -9  -4   2 750.034 146.720   2
  -9  -4   1 759.756 138.087   2
  -9  -4   1 906.909 152.465   2
   9   4  -1 1102.57 279.218   3
   9  -4  -1 1101.91 184.020   2
   9   4  -1 1173.97 293.776   1
  -9  -4   0 459.710 97.6843   2
   9   4   0 526.504 203.056   3
  -9  -4   0 545.764 109.252   2
   9   4   0 620.902 208.436   1
   9  -4   0 456.580 111.875   2
  -9  -4  -1 2677.60 247.670   2
   9   4   1 2842.67 441.326   3
   9  -4   1 2824.56 288.482   2
  -9  -4  -1 2182.52 223.469   2
   9  -4   1 2347.31 272.368   2
   9   4   1 2350.81 433.133   1
   9   4   2 393.166 239.461   1
   9  -4   2 418.482 105.718   2
   9   4   2 529.021 199.421   3
  -9  -4  -2 352.629 89.7692   2
   9  -4   2 264.344 87.7741   2
   9   4   3 6294.46 753.798   1
  -9  -4  -3 5675.45 372.415   2
   9   4   3 6756.66 668.712   3
   9  -4   3 5780.38 420.504   2
   9  -4   4 2944.66 309.457   2
  -9  -4  -4 2798.11 271.504   2
   9   4   4 2434.83 480.984   1
  -9  -4  -5 2868.05 540.226   5
  -9  -4  -5 2700.22 553.447   4
   9   4   5 3493.07 581.998   1
  -9  -4  -5 2782.36 286.168   2
  -9  -4  -6 1835.07 412.384   5
  -9  -4  -6 1443.50 411.279   4
   9   4   6 1662.77 400.000   1
  -9  -4  -6 1554.89 226.197   2
  -9  -4  -7 108.332 128.361   5
  -9  -4  -7 201.929 94.9461   2
  -9  -4  -7 145.087 165.345   4
   9   4   7 53.7090 95.6520   1
  -9  -4  -8-154.299 166.761   5
  -9  -4  -8-14.6825 45.1833   2
  -9  -4  -8-269.207 195.001   4
   9   4   8-21.9772 160.958   1
  -9  -4  -9 186.944 105.973   2
  -9  -4  -9 81.0087 70.6216   5
  -9  -4  -9 127.037 206.038   4
  -9  -4 -10 2913.65 537.303   5
  -9  -4 -10 2543.10 601.342   4
   9   4  10 3002.45 611.625   1
  -9  -4 -11 34.6484 101.854   5
  -9  -4 -11 33.2007 200.809   4
   9   4  11 213.893 192.169   1
  -9  -4 -12 1863.77 439.035   5
  -9  -4 -12 2096.62 558.059   4
   9   4  12 1760.64 515.638   1
  -9  -4 -13 259.119 159.417   5
  -9  -4 -13 457.452 296.388   4
   9   4  13 260.692 180.142   1
  -9  -4 -14 14.7649 70.5198   5
   9   4  14 17.0661 142.052   1
  -9  -4 -15-488.102 296.440   4
   9   4  15 173.432 234.728   1
   9   4  16-39.0972 134.928   1
  -9  -4 -16 114.315 133.495   4
  -9  -4 -17 775.697 392.005   4
   9   4  17 792.458 379.365   1
   9  -5 -24 118.575 170.891   2
   9  -5 -23-46.7705 176.498   2
   9  -5 -22 252.091 249.102   2
   9  -5 -21 362.596 263.970   2
   9  -5 -20 9.20985 126.340   2
  -9  -5  19 798.999 289.848   6
   9  -5 -19 1209.28 377.721   2
  -9  -5  18 243.091 175.152   6
   9  -5 -18 279.179 224.450   2
  -9  -5  17 5728.58 838.276   6
   9  -5 -17 3949.17 668.271   2
  -9  -5  16 455.282 234.564   6
   9  -5 -16 54.0334 144.948   2
  -9  -5  15 3496.47 614.071   6
   9  -5 -15 3119.65 545.673   2
  -9  -5  14 908.017 315.096   6
   9  -5 -14 670.293 251.375   2
  -9  -5  13 369.570 201.310   6
   9  -5 -13 104.017 65.0745   2
  -9  -5  12 448.630 226.979   6
   9  -5 -12 185.102 129.125   2
   9  -5 -11 6305.91 694.759   2
  -9  -5  11 5499.86 410.018   4
  -9  -5  11 5531.33 761.743   6
   9   5 -11 6448.02 515.101   1
  -9  -5  10 109.346 79.9638   4
   9  -5 -10 216.645 148.247   2
   9   5 -10 44.7938 97.0667   1
  -9  -5  10 317.704 237.038   6
   9   5  -9 5794.37 545.879   1
   9  -5  -9 5268.84 603.390   2
  -9  -5   9 4859.70 472.907   4
  -9  -5   9 4516.13 677.206   6
   9   5  -8 172.876 93.8943   1
  -9  -5   8 167.612 100.834   4
   9  -5  -8 28.9011 62.6908   2
  -9  -5   8 148.745 107.859   6
  -9  -5   7-10.3767 79.1401   2
   9   5  -7-33.6999 103.422   1
  -9  -5   7-56.9952 89.8912   4
   9  -5  -7 9.02339 43.5925   3
   9  -5  -7 14.5529 60.2683   2
  -9  -5   7 112.808 180.552   6
  -9  -5   6-121.295 100.800   2
   9   5  -6 283.940 168.648   1
  -9  -5   6 136.715 145.500   4
   9  -5  -6 554.253 177.049   2
  -9  -5   6 196.885 165.942   6
   9   5  -5 6454.40 653.284   1
  -9  -5   5 5980.43 618.398   4
   9  -5  -5 6125.05 566.488   2
  -9  -5   5 4679.52 484.666   2
  -9  -5   5 6186.18 818.908   6
   9   5  -4 1628.08 342.149   1
  -9  -5   4 2618.61 425.085   4
   9  -5  -4 2140.10 336.570   2
  -9  -5   4 1595.15 273.829   2
   9   5  -3 19920.7 1206.28   1
  -9  -5   3 19510.5 1200.37   4
   9  -5  -3 19588.0 969.883   2
   9   5  -3 20872.0 1307.74   3
  -9  -5   3 16536.4 856.295   2
   9   5  -2 284.262 167.558   1
  -9  -5   2 123.959 96.3486   2
   9   5  -2 133.825 138.890   3
  -9  -5   2 139.870 91.3619   2
   9  -5  -2-12.0743 54.7631   2
   9   5  -1 6806.65 744.881   1
  -9  -5   1 5779.73 706.045   4
   9   5  -1 7499.97 775.322   3
   9  -5  -1 7652.62 579.171   2
  -9  -5   1 5780.15 479.375   2
  -9  -5   1 6300.17 500.296   2
   9  -5   0 87.3329 82.0851   2
  -9  -5   0-4.47370 35.4488   2
  -9  -5   0-182.417 189.014   4
   9   5   0 25.5464 77.5194   1
   9   5   0 67.0342 94.4626   3
  -9  -5  -1 1185.10 214.309   2
   9  -5   1 815.368 192.521   2
   9   5   1 612.231 242.837   1
  -9  -5  -1 838.234 311.601   4
   9   5   1 792.615 242.533   3
   9   5   2 761.378 277.187   1
  -9  -5  -2 1053.71 302.089   4
   9  -5   2 844.228 187.669   2
   9   5   2 1163.48 304.990   3
  -9  -5  -2 598.300 150.618   2
   9  -5   3 5641.81 503.452   2
   9   5   3 5018.72 697.719   1
  -9  -5  -3 4975.71 706.584   4
  -9  -5  -3 4718.32 422.924   2
   9   5   3 5189.59 654.830   3
   9   5   4 1.70446 125.754   1
  -9  -5  -4 146.053 109.653   4
  -9  -5  -4 53.8221 55.8002   2
   9  -5   4 124.056 98.2641   2
  -9  -5  -5 5041.70 468.625   2
  -9  -5  -5 5077.81 745.694   4
   9   5   6 280.248 218.705   1
  -9  -5  -6 162.430 119.252   4
  -9  -5  -6 177.420 104.997   2
   9   5   7 615.610 266.612   1
  -9  -5  -7 307.612 155.131   5
  -9  -5  -7 670.414 279.302   4
  -9  -5  -7 331.751 116.306   2
   9   5   8 157.067 201.155   1
  -9  -5  -8 240.594 111.878   5
  -9  -5  -8 193.787 103.169   2
  -9  -5  -8 210.141 224.353   4
  -9  -5  -9 498.489 173.376   5
  -9  -5  -9 742.382 306.129   4
   9   5   9 1041.23 344.926   1
  -9  -5 -10 212.372 150.170   5
  -9  -5 -10 224.248 195.569   4
   9   5  10 728.737 359.883   1
  -9  -5 -11 2907.80 542.412   5
  -9  -5 -11 3282.97 688.661   4
   9   5  11 3103.71 652.250   1
  -9  -5 -12 498.934 266.792   5
  -9  -5 -12 730.030 391.338   4
   9   5  12 725.234 392.851   1
  -9  -5 -13 1690.07 396.632   5
  -9  -5 -13 1753.96 525.147   4
   9   5  13 2830.25 651.340   1
  -9  -5 -14-195.157 231.250   4
   9   5  14 118.081 169.816   1
  -9  -5 -15-46.5601 229.091   4
   9   5  15 107.154 145.644   1
  -9  -5 -16 172.160 213.322   4
   9   5  16-4.79941 152.099   1
   9  -6 -24 858.521 388.335   2
   9  -6 -23 1533.85 489.042   2
   9  -6 -22 78.3475 218.125   2
   9  -6 -21 314.268 226.696   2
   9  -6 -20 238.429 184.752   2
  -9  -6  19 331.854 202.209   6
   9  -6 -19 468.131 237.710   2
  -9  -6  18 931.003 336.638   6
   9  -6 -18 741.734 299.345   2
  -9  -6  17 1917.99 473.695   6
   9  -6 -17 1277.00 398.251   2
  -9  -6  16 429.328 230.332   6
   9  -6 -16 231.946 204.752   2
  -9  -6  15 142.393 84.8549   6
   9  -6 -15 213.209 158.901   2
  -9  -6  14 175.189 169.367   6
   9  -6 -14-12.7362 111.575   2
  -9  -6  13 2465.31 537.075   6
   9  -6 -13 2522.83 483.331   2
   9  -6 -12 1875.76 418.205   2
  -9  -6  12 1055.83 349.553   6
   9   6 -11 3758.24 429.667   1
   9  -6 -11 4788.52 636.808   2
  -9  -6  11 4454.22 715.045   6
   9   6 -10 2129.80 337.640   1
   9  -6 -10 2274.46 428.573   2
  -9  -6  10 1098.62 369.929   6
  -9  -6   9 2267.97 299.872   4
   9   6  -9 2369.03 369.457   1
   9  -6  -9 2269.28 422.171   2
  -9  -6   9 2617.74 538.788   6
  -9  -6   8 194.868 105.287   4
   9   6  -8 544.393 183.699   1
   9  -6  -8 417.561 185.665   2
  -9  -6   8 233.701 221.067   6
  -9  -6   7-12.3940 47.9177   4
   9   6  -7 26.1366 89.7269   1
   9  -6  -7 36.7757 121.446   2
  -9  -6   7 8.35257 105.044   6
  -9  -6   6 90.5102 80.7713   4
   9   6  -6-9.41595 69.3590   1
   9  -6  -6 46.9679 66.0380   2
  -9  -6   5 1013.45 263.384   4
   9   6  -5 804.820 231.567   1
   9  -6  -5 1444.35 287.985   2
   9  -6  -4 596.014 211.860   2
  -9  -6   4 689.268 221.646   4
   9   6  -4 747.530 250.867   1
  -9  -6   3 3541.13 519.825   4
   9  -6  -3 3033.62 420.907   2
   9   6  -3 3835.58 609.311   3
  -9  -6   3 2951.18 407.587   2
   9   6  -3 2758.35 474.731   1
   9  -6  -2 1619.62 313.120   2
  -9  -6   2 1611.85 371.585   4
   9   6  -2 1945.08 424.577   3
  -9  -6   2 1551.99 291.896   2
   9   6  -2 1822.35 406.299   1
  -9  -6   1 1569.98 375.645   4
   9   6  -1 2913.45 526.416   3
   9  -6  -1 2475.85 377.131   2
   9   6  -1 2788.43 502.090   1
  -9  -6   1 2421.78 359.018   2
   9  -6   0 7.75339 73.2391   2
  -9  -6   0-66.0961 68.0824   2
  -9  -6   0 112.046 154.621   4
   9   6   0-165.361 171.864   3
   9   6   0 37.9258 114.271   1
  -9  -6  -1 142.570 102.945   2
  -9  -6  -1 313.984 183.780   4
   9  -6   1 185.984 89.1571   2
   9   6   1 430.807 211.279   3
   9   6   1 214.157 130.921   1
  -9  -6  -2 6.08232 59.8536   2
  -9  -6  -2 128.068 136.063   4
   9  -6   2 32.7695 93.3166   2
   9   6   2 224.155 185.540   1
   9  -6   3 2593.46 394.489   2
  -9  -6  -3 3428.39 599.788   4
  -9  -6  -3 2447.83 358.923   2
   9   6   3 2985.27 520.461   3
   9   6   3 2225.84 489.873   1
  -9  -6  -4 1972.48 471.298   4
   9   6   4 2368.65 513.262   1
   9  -6   4 2040.80 350.310   2
  -9  -6  -4 1993.73 328.305   2
   9   6   5 5223.69 757.144   1
  -9  -6  -5 5743.28 551.134   2
  -9  -6  -5 5684.47 802.962   4
  -9  -6  -6 1640.87 440.901   4
   9   6   6 2429.12 522.115   1
  -9  -6  -6 2136.69 346.817   2
   9   6   7 720.672 297.558   1
  -9  -6  -7 540.209 264.526   4
  -9  -6  -7 664.365 213.523   2
   9   6   8-63.5206 184.235   1
  -9  -6  -8 347.630 247.127   4
  -9  -6  -8 40.5523 63.2957   2
  -9  -6  -9 1773.48 432.067   5
   9   6   9 1411.80 464.590   1
  -9  -6  -9 1133.28 380.135   4
   9   6  10 967.116 376.670   1
  -9  -6 -10 555.104 252.739   5
   9   6  11 4711.33 809.782   1
  -9  -6 -11 4749.98 697.867   5
  -9  -6 -11 4878.68 864.836   4
   9   6  12 895.617 385.781   1
  -9  -6 -12 656.075 252.129   5
  -9  -6 -12 1508.45 538.672   4
  -9  -6 -13 1763.97 435.090   5
  -9  -6 -13 1357.23 474.942   4
   9   6  13 1935.89 554.955   1
  -9  -6 -14 21.5231 100.139   5
  -9  -6 -14-153.506 147.784   4
   9   6  14-359.961 260.263   1
  -9  -6 -15-459.226 296.074   4
   9   6  15-169.932 238.404   1
   9  -7 -22 87.0615 139.548   2
   9  -7 -21 144.112 166.868   2
   9  -7 -20 497.986 269.486   2
   9  -7 -19 68.7950 119.734   2
  -9  -7  18 1208.62 389.463   6
   9  -7 -18 1015.30 343.580   2
  -9  -7  17 192.032 91.0082   6
   9  -7 -17 350.128 203.629   2
  -9  -7  16 2195.70 489.158   6
   9  -7 -16 2200.52 518.879   2
  -9  -7  15-5.90732 75.0104   6
   9  -7 -15 108.711 84.8763   2
   9  -7 -14 441.557 238.546   2
  -9  -7  14 550.754 251.507   6
   9  -7 -13 555.028 264.770   2
  -9  -7  13 1009.36 347.882   6
   9  -7 -12 1335.96 365.867   2
  -9  -7  12 1403.64 402.952   6
   9  -7 -11 954.632 314.137   2
  -9  -7  11 574.732 271.230   6
   9   7 -10 5744.05 594.975   1
   9  -7 -10 6031.37 742.652   2
  -9  -7  10 5077.43 779.238   6
   9   7  -9 413.363 175.868   1
   9  -7  -9 726.518 241.255   2
  -9  -7   9 1186.33 394.394   6
   9   7  -8 2994.51 452.730   1
   9  -7  -8 2711.63 485.747   2
  -9  -7   8 3045.71 595.748   6
   9   7  -7 38.4868 84.4439   1
   9  -7  -7-25.8883 125.908   2
   9   7  -6-66.9999 138.509   1
   9  -7  -6-9.64672 130.480   2
  -9  -7   5 209.465 126.044   4
   9   7  -5-39.1738 109.210   1
   9  -7  -5 57.8364 94.5193   2
   9   7  -4 5506.51 671.311   1
  -9  -7   4 5138.12 601.092   4
   9  -7  -4 5026.24 620.368   2
   9   7  -4 5026.06 736.931   3
   9  -7  -3 96.5039 138.805   2
  -9  -7   3 106.531 113.125   4
   9   7  -3 190.865 101.220   1
   9   7  -3 192.918 137.778   3
  -9  -7   2 3478.86 480.723   2
   9   7  -2 3741.02 600.211   1
  -9  -7   2 2852.63 486.975   4
   9   7  -2 2952.35 558.968   3
   9  -7  -2 3816.93 514.713   2
   9  -7  -1 283.281 108.783   2
  -9  -7   1 275.567 159.189   4
   9   7  -1 269.917 207.618   1
  -9  -7   1 286.772 145.263   2
   9   7  -1 137.064 132.753   3
   9  -7   0-73.1277 118.075   2
   9   7   0-41.8917 77.6568   1
  -9  -7   0-60.5950 61.5435   2
  -9  -7   0 8.01243 65.0091   4
   9   7   0-130.558 118.610   3
  -9  -7  -1-48.3453 96.3674   2
   9   7   1-3.91205 125.664   1
  -9  -7  -1-46.2075 68.6048   4
   9  -7   1 9.18785 73.0674   2
   9   7   1-94.4503 96.1446   3
   9   7   2 2564.47 539.604   1
  -9  -7  -2 2286.96 493.176   4
   9   7   2 2271.95 502.833   3
  -9  -7  -2 2276.13 397.781   2
   9  -7   2 2813.71 447.549   2
  -9  -7  -3 919.380 247.627   2
   9   7   3 609.946 280.474   1
  -9  -7  -3 1103.99 349.930   4
   9   7   3 673.122 286.556   3
   9  -7   3 1041.44 282.218   2
   9  -7   4 4676.47 576.507   2
   9   7   4 4867.69 739.417   1
  -9  -7  -4 3767.45 662.290   4
  -9  -7  -4 4213.17 525.755   2
  -9  -7  -5 1660.15 451.786   4
   9   7   5 1323.70 392.314   1
  -9  -7  -6 2366.48 554.023   4
  -9  -7  -6 1780.69 351.649   2
   9   7   6 2250.13 537.316   1
  -9  -7  -7 232.427 158.303   4
  -9  -7  -7-9.40206 93.0138   2
   9   7   7 405.783 228.791   1
  -9  -7  -8 3.54636 122.289   4
   9   7   8 310.269 202.626   1
  -9  -7  -9 343.972 229.065   5
  -9  -7  -9 325.015 252.799   4
   9   7   9 184.262 191.079   1
  -9  -7 -10 220.274 142.035   5
   9   7  10 352.813 293.494   1
  -9  -7 -10 32.0881 114.727   4
  -9  -7 -11 593.592 260.631   5
   9   7  11 923.636 352.457   1
  -9  -7 -11 908.658 390.808   4
  -9  -7 -12 389.485 182.385   5
   9   7  12 263.727 158.327   1
  -9  -7 -12 456.888 247.142   4
   9   7  13 107.034 150.892   1
  -9  -7 -13 313.341 172.569   5
  -9  -7 -13-78.0770 114.759   4
   9   7  14 352.236 259.328   1
  -9  -7 -14-108.908 140.352   4
   9  -8 -21 92.9148 118.728   2
   9  -8 -20 153.454 223.601   2
   9  -8 -19-195.859 182.388   2
   9  -8 -18 1163.54 382.641   2
   9  -8 -17 126.067 146.756   2
  -9  -8  16 2803.07 572.085   6
   9  -8 -16 3328.15 645.385   2
  -9  -8  15 146.971 171.958   6
   9  -8 -15 350.723 230.651   2
   9  -8 -14 1376.69 393.576   2
  -9  -8  14 1058.17 337.321   6
   9  -8 -13-76.9838 170.150   2
  -9  -8  13 66.5255 81.4082   6
   9  -8 -12 143.885 83.8720   2
  -9  -8  12 294.669 153.718   6
   9  -8 -11 453.996 235.479   2
  -9  -8  11 455.437 272.050   6
   9  -8 -10 1258.61 359.114   2
  -9  -8  10 1458.85 437.712   6
   9   8 -10 1157.83 291.048   1
   9   8  -9 0.64450 95.5383   1
   9  -8  -9-187.011 169.476   2
   9   8  -8 454.943 204.708   1
   9  -8  -8 384.880 199.866   2
   9   8  -7-87.7409 91.3834   1
   9  -8  -7-167.618 168.657   2
   9   8  -6 259.608 110.750   1
   9  -8  -6 389.068 203.843   2
   9  -8  -5 8.62895 90.2601   2
   9   8  -5 219.581 208.897   3
   9   8  -4 4556.55 661.345   1
   9   8  -4 5122.69 785.301   3
   9  -8  -4 5210.72 672.888   2
   9  -8  -3 282.454 186.302   2
   9   8  -3 262.886 187.650   1
   9   8  -3 464.954 288.155   3
   9  -8  -2 2311.96 430.164   2
   9   8  -2 2441.11 497.082   1
   9   8  -2 2326.50 513.293   3
  -9  -8   2 2229.27 416.729   2
   9   8  -1 314.564 244.699   1
   9  -8  -1 628.092 235.918   2
  -9  -8   1 344.568 160.271   2
   9   8  -1 164.960 175.087   3
   9   8   0-73.9009 116.373   1
   9  -8   0-58.4872 86.1689   2
  -9  -8   0 228.865 148.301   2
   9   8   0 42.5616 125.707   3
  -9  -8  -1-123.636 131.887   2
   9  -8   1 77.5183 77.2662   2
   9   8   1-53.4732 108.417   3
   9   8   1 76.3732 123.208   1
  -9  -8  -2 1277.41 327.629   2
   9  -8   2 1321.55 309.235   2
   9   8   2 1194.28 375.409   3
   9   8   2 890.818 315.652   1
  -9  -8  -3-45.2613 137.175   2
   9   8   3-136.698 171.021   1
   9  -8   3-39.5039 59.6285   2
  -9  -8  -4 1307.14 322.775   2
   9   8   4 1790.04 479.688   1
   9  -8   4 1281.20 337.481   2
   9   8   5 109.421 164.262   1
  -9  -8  -5-26.8914 91.9910   2
   9   8   6-30.6578 200.979   1
   9   8   7-92.9037 218.563   1
   9   8   8 330.862 224.353   1
   9   8   9 622.441 357.666   1
  -9  -8 -10 1613.47 410.209   5
   9   8  10 1273.91 460.521   1
  -9  -8 -11 573.644 217.465   5
   9   8  11 405.374 271.089   1
   9   8  12 1354.86 471.827   1
   9  -9 -20 217.992 216.379   2
   9  -9 -19 243.974 197.188   2
   9  -9 -18 729.506 346.829   2
   9  -9 -17 969.336 403.683   2
   9  -9 -16 742.787 329.008   2
   9  -9 -15 5.22077 117.024   2
  -9  -9  15 217.397 155.725   6
   9  -9 -14-133.497 149.327   2
  -9  -9  14-34.9154 91.8460   6
   9  -9 -13 131.826 170.925   2
  -9  -9  13-143.558 150.698   6
   9  -9 -12 1152.83 377.012   2
  -9  -9  12 958.241 360.603   6
   9  -9 -11 1580.60 420.681   2
  -9  -9  11 1286.90 405.565   6
   9  -9 -10 932.922 325.984   2
  -9  -9  10 1176.86 391.713   6
   9   9  -9 1420.93 354.486   1
   9  -9  -9 1155.35 359.007   2
   9   9  -8 190.686 112.244   1
   9  -9  -8 486.359 234.976   2
   9   9  -7-89.2029 161.971   1
   9   9  -7 266.777 227.451   3
   9  -9  -7-61.9426 164.163   2
   9  -9  -6 188.000 176.549   2
   9   9  -6-36.8678 68.5985   1
   9   9  -6-159.632 242.210   3
   9  -9  -5 297.345 194.672   2
   9   9  -5 484.620 210.446   1
   9   9  -5-8.84937 98.4294   3
   9  -9  -4 957.163 333.944   2
   9   9  -4 621.157 276.775   3
   9   9  -4 769.749 272.400   1
   9  -9  -3 2223.79 486.029   2
   9   9  -3 1849.02 455.079   1
   9   9  -3 2403.48 551.172   3
  -9  -9   3 2158.94 448.977   2
   9  -9  -2 1367.38 370.881   2
   9   9  -2 1254.56 417.964   3
  -9  -9   2 1193.87 328.572   2
   9   9  -2 1701.83 444.194   1
   9  -9  -1 1332.73 348.203   2
   9   9  -1 1814.61 476.009   1
  -9  -9   1 1245.65 352.402   2
   9   9  -1 1296.39 402.523   3
   9   9   0 328.695 197.591   1
   9  -9   0 266.878 109.183   2
  -9  -9   0 197.035 118.367   2
   9   9   0 272.406 162.967   3
  -9  -9  -1-133.537 130.764   2
   9  -9   1 27.0560 121.599   2
   9   9   1-36.5610 111.184   3
   9   9   1 57.4776 93.3752   1
  -9  -9  -2 68.9157 59.2291   2
   9   9   2 377.047 128.386   1
   9  -9   2 371.919 204.686   2
   9   9   2 208.678 196.500   3
  -9  -9  -3 679.859 258.438   2
   9   9   3 810.068 287.582   1
   9   9   3 220.892 217.110   3
   9  -9   3 850.860 299.812   2
  -9  -9  -4 822.697 278.169   2
   9  -9   4 1134.25 333.919   2
   9   9   4 891.732 353.131   1
   9   9   5 1227.19 430.898   1
   9  -9   5 1820.49 424.707   2
   9   9   6-109.396 211.414   1
   9   9   7 504.620 310.101   1
   9   9   8 0.63680 189.784   1
   9   9   9 768.744 319.362   1
   9   9  10 1172.64 450.833   1
   9 -10 -18 338.593 242.201   2
   9 -10 -17 735.093 352.623   2
   9 -10 -16-272.983 214.020   2
   9 -10 -15 299.061 233.649   2
   9 -10 -14-4.87804 82.0178   2
  -9 -10  14-384.990 256.423   6
   9 -10 -13-209.407 179.773   2
  -9 -10  13 93.5240 106.171   6
   9 -10 -12 51.3118 168.887   2
  -9 -10  12 287.462 203.961   6
   9 -10 -11 1422.39 433.629   2
  -9 -10  11 1353.44 444.152   6
   9 -10 -10-72.1980 116.914   2
   9 -10  -9 2391.43 536.869   2
   9  10  -8 36.6755 113.063   3
   9 -10  -8 75.8418 151.037   2
   9 -10  -7 32.9068 94.6234   2
   9  10  -7-279.324 267.759   3
   9 -10  -6-118.147 148.914   2
   9  10  -6-227.473 220.933   3
   9 -10  -5 1215.82 374.980   2
   9  10  -5 1156.60 383.169   3
   9 -10  -4 334.294 260.557   2
   9  10  -4 405.386 349.691   3
   9 -10  -3 2716.88 545.783   2
   9  10  -3 2711.99 621.878   3
  -9 -10   3 2441.00 524.751   2
   9 -10  -2-53.2494 142.015   2
   9  10  -2-123.451 88.1935   3
  -9 -10   2-33.3875 71.3093   2
   9  10  -1 999.415 356.550   1
   9 -10  -1 624.328 270.518   2
  -9 -10   1 416.313 226.617   2
   9  10  -1 498.523 261.820   3
   9 -10   0-148.831 173.903   2
  -9 -10   0-12.7454 118.080   2
   9  10   0-211.897 156.984   3
  -9 -10  -1 618.326 264.126   2
   9 -10   1 370.348 208.284   2
   9  10   1 532.608 276.749   3
   9  10   1 120.354 207.411   1
  -9 -10  -2-38.6413 65.0577   2
   9  10   2 84.5793 84.5025   1
   9 -10   2 16.9500 131.540   2
   9  10   2-164.487 212.401   3
   9 -10   3 1608.60 444.209   2
   9  10   3 1932.81 546.460   1
   9  10   4 174.066 223.071   1
   9  10   5 2043.52 553.148   1
   9  10   6-229.732 230.329   1
   9  10   7 626.193 316.957   1
   9  10   8 310.646 226.870   1
   9 -11 -15 80.9024 134.504   2
   9 -11 -14-55.7742 117.881   2
   9 -11 -13 194.338 231.937   2
   9 -11 -12 371.641 228.346   2
  -9 -11  12 237.171 212.542   6
   9 -11 -11 1443.03 466.297   2
   9  11 -10 325.776 251.361   3
   9 -11 -10 367.384 263.282   2
   9  11  -9 1433.52 488.908   3
   9 -11  -9 1217.49 404.417   2
   9  11  -8-274.263 227.011   3
   9 -11  -8 104.362 162.583   2
   9 -11  -7-314.489 210.786   2
   9  11  -7 214.195 199.073   3
   9 -11  -6-289.378 200.227   2
   9  11  -6-120.943 175.605   3
   9 -11  -5 1709.22 474.487   2
   9  11  -5 1046.90 414.534   3
   9 -11  -4 967.764 360.669   2
   9  11  -4 641.008 321.014   3
  -9 -11   4 806.954 319.992   2
   9 -11  -3 1638.49 443.350   2
  -9 -11   3 1958.35 497.676   2
   9 -11  -2 502.474 240.595   2
   9  11  -2 818.975 398.523   3
  -9 -11   2 888.850 344.338   2
   9 -11  -1 582.859 284.347   2
  -9 -11   1 333.052 232.792   2
   9  11  -1 590.118 329.977   3
   9 -11   0-241.944 184.056   2
   9  11   0 232.813 186.820   3
   9 -11   1 202.674 133.495   2
   9  11   1 125.167 115.404   3
   9  11   2-208.373 135.475   1
   9  11   2 332.988 222.269   3
   9  11   3 1108.81 386.348   1
   9  11   4 1132.57 460.323   1
   9  11   5 590.526 342.800   1
   9 -12 -12 843.674 358.109   2
   9 -12 -11-337.255 237.698   2
   9 -12 -10 342.053 267.353   2
   9 -12  -9-288.227 180.790   2
   9 -12  -8 428.687 289.678   2
   9 -12  -7 50.4267 152.760   2
   9 -12  -6-308.361 217.942   2
   9 -12  -5 229.121 192.910   2
  -9 -12   5 380.216 217.754   2
   9 -12  -4 621.078 347.305   2
   9 -12  -3-29.6984 97.5203   2
   9 -12  -2 1306.94 442.154   2
   9 -12  -1 37.1642 133.428   2
  10   0 -26 882.693 415.401   2
  10   0 -25 147.576 197.361   2
  10   0 -24 887.718 350.255   2
  10   0 -23-54.5313 134.141   2
  10   0 -22 9.65647 124.092   2
  10   0 -21 193.114 174.680   2
  10   0 -20-72.2319 106.276   2
  10   0 -19 322.541 204.765   2
  10   0 -18 1994.10 435.922   2
  10   0 -17 70.6323 88.5288   2
  10   0 -16 3045.75 503.053   2
  10   0 -15-6.64546 66.4770   2
  10   0 -14 1863.84 365.287   2
  10   0 -13-81.0314 79.3353   2
  10   0 -12 2697.71 393.822   2
 -10   0  11 223.785 186.502   6
 -10   0  11-77.9237 83.8391   2
 -10   0  10 6595.38 555.401   2
 -10   0  10 7907.22 933.824   6
 -10   0   9-38.9691 175.614   6
 -10   0   9-43.4312 93.8639   5
 -10   0   9-50.5653 65.8804   2
 -10   0   8 882.435 327.402   6
 -10   0   8 737.182 269.796   5
 -10   0   8 1053.86 179.246   2
 -10   0   7-168.982 182.024   6
 -10   0   7-220.287 140.186   5
 -10   0   7 16.8632 27.7667   2
 -10   0   6 6556.67 824.490   5
 -10   0   6 7897.35 922.472   6
 -10   0   5 163.092 183.611   6
 -10   0   5 175.332 200.984   5
 -10   0   4 28499.6 1671.05   5
 -10   0   4 25553.4 1627.69   6
 -10   0   3 155.765 237.861   6
 -10   0   3-15.4110 186.386   5
 -10   0   2 32445.8 1803.05   5
  10   0  -2 29574.9 974.606   3
 -10   0   2 29672.0 1771.20   6
 -10   0   1 18.7860 104.946   5
  10   0  -1 2.65721 23.1184   3
 -10   0   0 306.511 160.503   6
 -10   0   0 12.9878 93.5312   5
 -10   0  -1-67.0309 129.543   6
 -10   0  -1 53.0352 106.553   5
 -10   0  -2 1688.72 417.403   6
 -10   0  -2 989.355 331.383   5
 -10   0  -3-44.9435 110.923   6
 -10   0  -3 47.4492 80.7743   5
 -10   0  -4 2653.92 523.229   6
 -10   0  -4 2894.37 547.803   5
 -10   0  -5-57.9928 121.091   5
 -10   0  -5-98.4148 165.321   6
 -10   0  -6 298.909 153.602   5
 -10   0  -6 286.164 182.196   6
 -10   0  -7-212.691 161.711   5
 -10   0  -7 22.2415 88.3286   6
 -10   0  -8 1798.85 448.882   5
 -10   0  -8 1231.65 352.645   6
 -10   0  -9-118.343 148.055   6
 -10   0 -10 805.625 289.894   6
 -10   0 -11 184.341 177.055   6
 -10   0 -12 2609.56 536.975   6
 -10   0 -13 109.665 145.790   6
 -10   0 -14 1079.42 331.644   6
 -10   0 -15 78.0744 193.707   6
 -10   0 -17-101.754 190.166   4
  10  -1 -26 828.752 384.714   2
  10  -1 -25 180.082 138.678   2
  10  -1 -24 1016.51 397.769   2
  10  -1 -23 1067.82 379.424   2
  10  -1 -22 122.324 119.162   2
  10  -1 -21-33.2410 70.5248   2
 -10   1  20 16.7895 70.9603   5
  10  -1 -20 131.643 163.439   2
 -10   1  19 1581.29 390.470   5
  10  -1 -19 1351.04 362.618   2
 -10   1  18 1204.25 371.951   5
  10  -1 -18 1025.07 307.103   2
 -10   1  17 1708.45 419.127   5
  10  -1 -17 1234.99 342.584   2
 -10   1  16 1045.72 350.815   5
  10  -1 -16 557.989 208.678   2
 -10   1  15 438.921 230.392   5
  10  -1 -15 453.363 197.569   2
 -10   1  14-86.7830 143.668   5
  10  -1 -14 140.277 105.135   2
 -10  -1  13 1974.46 489.172   6
 -10   1  13 2441.48 489.312   5
  10  -1 -13 2617.78 423.453   2
 -10  -1  12 3744.26 653.622   6
 -10   1  12 4627.32 677.906   5
  10  -1 -12 3397.82 452.326   2
 -10   1  11 5594.95 742.253   5
 -10  -1  11 4524.27 499.644   2
  10  -1 -11 4773.80 500.771   2
 -10   1  11 6031.46 578.049   2
 -10  -1  11 4842.61 752.708   6
 -10   1  10 4359.45 651.904   5
 -10   1  10 3885.82 458.841   1
 -10  -1  10 4116.75 441.944   2
  10  -1 -10 4288.38 445.283   2
 -10   1  10 3930.73 435.302   2
 -10  -1  10 4199.14 698.556   6
 -10  -1   9 1236.26 370.310   6
 -10   1   9 1908.94 464.547   6
 -10   1   9 1178.11 352.634   5
 -10   1   9 1229.75 271.278   1
 -10   1   9 917.710 192.870   2
  10  -1  -9 1075.62 207.029   2
 -10  -1   9 1130.75 208.865   2
 -10  -1   8 806.661 318.494   6
 -10   1   8 673.583 245.943   6
 -10  -1   8 575.929 140.889   2
 -10   1   8 637.074 256.258   5
 -10   1   8 571.281 186.802   1
 -10   1   8 557.168 132.631   2
  10  -1  -8 728.545 157.618   2
 -10   1   7-54.0399 179.634   6
 -10   1   7-7.83485 96.7194   5
 -10  -1   7 162.569 61.4353   2
 -10  -1   6 991.192 341.065   6
 -10   1   6 541.434 211.812   6
 -10   1   6 618.047 237.410   5
 -10  -1   5 386.095 239.926   6
 -10   1   5 144.299 171.934   6
 -10   1   5 335.066 193.672   5
 -10  -1   4 4524.20 672.191   5
 -10   1   4 4197.07 643.450   5
 -10  -1   4 5053.50 716.116   6
 -10   1   4 4730.14 705.097   6
 -10  -1   3 1118.26 351.017   6
 -10   1   3 800.645 312.574   6
 -10  -1   3 1005.33 320.099   5
 -10   1   3 609.456 244.152   5
 -10  -1   2 5488.32 755.606   5
 -10   1   2 4648.61 673.154   5
  10  -1  -2 4109.04 281.701   3
  10   1  -2 5328.21 480.404   3
 -10  -1   2 5033.70 731.078   6
 -10   1   2 4976.37 708.882   6
 -10   1   1 830.405 325.839   6
 -10  -1   1 790.932 287.233   5
 -10   1   1 415.337 224.239   5
  10   1  -1 751.444 172.208   3
 -10  -1   1 465.387 215.270   6
 -10   1   0 737.136 291.800   6
 -10  -1   0 693.890 261.345   5
 -10   1   0 718.882 245.149   5
  10   1   0 350.914 106.306   3
 -10  -1   0 442.060 185.813   6
 -10   1  -1 308.926 161.028   6
 -10  -1  -1 366.377 153.702   5
 -10   1  -1 125.505 72.4653   5
 -10  -1  -1 309.742 207.017   6
 -10   1  -2 3723.16 612.636   6
 -10  -1  -2 4061.08 627.568   5
 -10   1  -2 3321.79 578.038   5
 -10  -1  -2 3734.36 623.770   6
 -10  -1  -3 5467.14 747.849   5
 -10   1  -3 5374.35 764.203   5
 -10  -1  -3 5009.44 729.407   6
 -10   1  -3 5505.01 738.135   6
 -10  -1  -4 6540.28 827.847   5
 -10   1  -4 5769.77 769.063   5
 -10  -1  -4 6571.70 834.711   6
 -10   1  -4 6168.12 797.894   6
 -10  -1  -5 7767.10 901.061   5
 -10   1  -5 7392.85 878.482   5
 -10  -1  -5 7531.42 883.698   6
 -10   1  -5 7222.76 850.427   6
 -10   1  -6 2437.89 503.790   6
 -10  -1  -6 2654.18 520.648   5
 -10  -1  -6 2486.33 516.534   6
 -10   1  -7 1457.07 383.573   6
 -10  -1  -7 1617.52 419.511   5
 -10  -1  -7 1553.16 410.790   6
 -10   1  -8 464.033 205.176   6
 -10  -1  -8 452.277 202.700   5
 -10  -1  -8 320.384 200.188   6
 -10   1  -9 518.506 236.538   6
 -10  -1  -9 501.605 237.165   5
 -10  -1  -9 546.319 260.466   6
 -10   1 -10 1394.68 373.941   6
 -10  -1 -10 1250.55 354.863   6
 -10   1 -11 1423.20 393.917   6
 -10  -1 -11 1433.96 388.285   6
 -10   1 -12 1946.33 450.074   6
 -10  -1 -12 1410.55 394.693   6
 -10   1 -13 48.9609 115.535   6
 -10  -1 -13 217.480 188.953   6
 -10   1 -14-149.765 116.275   6
 -10  -1 -14-264.482 198.427   6
 -10  -1 -15 749.507 345.318   4
 -10  -1 -15 726.640 286.956   6
 -10  -1 -16 279.878 213.574   4
 -10  -1 -16 164.233 78.0897   6
 -10  -1 -17 195.359 136.696   4
  10  -2 -26-269.756 213.209   2
  10  -2 -25 1534.04 499.721   2
  10  -2 -24 467.071 239.527   2
  10  -2 -23 1266.41 405.036   2
  10  -2 -22 359.206 238.380   2
  10  -2 -21-32.6132 121.780   2
  10  -2 -20 200.667 150.246   2
  10  -2 -19 964.675 307.284   2
 -10   2  19 1822.65 411.206   5
  10  -2 -18 993.128 322.748   2
 -10   2  18 854.802 293.439   5
  10  -2 -17 2203.07 447.049   2
 -10   2  17 2762.01 506.208   5
  10  -2 -16 74.7331 176.320   2
 -10   2  16-66.8036 140.954   5
  10  -2 -15 222.989 154.676   2
 -10  -2  15-204.934 197.816   6
 -10   2  15 185.494 120.884   5
  10  -2 -14 992.515 296.397   2
 -10  -2  14 1326.27 382.420   6
 -10   2  14 997.618 300.348   5
  10  -2 -13 1195.92 298.322   2
 -10  -2  13 1124.96 359.983   6
 -10   2  13 765.050 263.871   5
  10  -2 -12 1745.73 339.570   2
 -10  -2  12 1822.78 443.447   6
 -10   2  12 1915.20 439.396   5
 -10   2  11 9615.07 967.951   5
  10  -2 -11 9439.09 733.158   2
 -10  -2  11 10562.8 1093.47   6
  10  -2 -10 945.205 217.532   2
 -10  -2  10 1560.70 426.991   6
 -10   2  10 1261.41 357.779   5
 -10   2  10 811.385 209.078   2
 -10   2   9 5474.17 727.618   5
 -10  -2   9 4799.36 461.523   2
  10  -2  -9 4672.89 448.145   2
 -10  -2   9 5306.68 763.034   6
  10  -2  -8 126.991 69.6142   2
 -10  -2   8 78.0501 114.480   6
 -10   2   8 90.7332 142.824   5
 -10  -2   8 249.717 103.490   2
 -10  -2   7 383.310 229.285   6
 -10   2   7 541.473 209.759   5
 -10  -2   7 438.928 111.745   2
  10  -2  -7 389.384 108.295   2
 -10  -2   6 611.683 207.961   6
 -10   2   6 523.681 240.386   5
  10  -2  -6 648.615 122.099   2
 -10  -2   6 471.501 94.5415   2
 -10  -2   5 284.360 178.549   6
 -10   2   5 325.603 136.598   6
 -10   2   5 502.496 261.970   5
  10  -2  -5 433.197 77.6854   2
 -10   2   4 196.849 165.336   6
 -10   2   4 153.752 172.105   5
 -10  -2   4 267.595 169.294   6
 -10   2   3 8921.75 920.252   5
 -10  -2   3 9853.34 1017.71   6
 -10   2   3 9247.18 972.077   6
 -10   2   2 13.0027 105.300   6
 -10   2   2 416.238 171.808   5
  10   2  -2 455.535 162.534   3
 -10  -2   2 345.052 205.705   6
 -10   2   1 195.435 67.6559   6
 -10   2   1 40.5830 126.371   5
  10   2  -1 15.8119 56.8477   3
 -10  -2   1-75.7664 105.854   6
 -10   2   0 206.512 148.444   6
 -10  -2   0 60.9594 98.8343   5
 -10   2   0-137.323 183.673   5
  10   2   0 125.117 82.5186   3
 -10  -2   0 198.721 138.042   6
 -10   2  -1 719.584 265.985   6
 -10  -2  -1 870.946 290.315   5
 -10   2  -1 859.300 279.676   5
  10   2   1 856.836 209.277   3
 -10  -2  -1 979.682 334.354   6
 -10   2  -2 707.160 265.658   6
 -10  -2  -2 779.237 271.922   5
 -10   2  -2 1282.66 369.211   5
 -10  -2  -2 784.669 301.706   6
 -10  -2  -3 5563.67 795.243   5
 -10   2  -3 6581.93 833.156   5
 -10  -2  -3 6641.47 837.433   6
 -10   2  -3 5997.76 779.052   6
 -10  -2  -4 3731.71 642.313   5
 -10   2  -4 4087.39 629.221   6
 -10  -2  -4 3485.59 616.017   6
 -10  -2  -5 6032.36 809.828   5
 -10  -2  -5 6300.98 819.416   6
 -10   2  -5 6150.02 782.586   6
 -10   2  -6 2474.24 486.085   6
 -10  -2  -6 3292.87 591.325   5
 -10  -2  -6 2960.39 559.712   6
 -10   2  -7 805.960 286.465   6
 -10  -2  -7 859.240 306.169   5
 -10  -2  -7 833.304 322.523   6
 -10   2  -8-83.1876 101.446   6
 -10  -2  -8-169.946 174.494   5
 -10  -2  -8-11.4869 136.117   6
 -10   2  -9 1197.51 354.744   6
 -10  -2  -9 1002.85 347.354   5
 -10  -2  -9 850.088 308.668   6
 -10   2 -10 775.857 259.020   6
 -10  -2 -10 624.081 236.608   5
 -10  -2 -10 1126.27 367.805   6
 -10   2 -11 596.093 234.288   6
 -10  -2 -11 1196.66 389.025   5
 -10  -2 -11 1330.85 439.257   6
 -10   2 -12 242.506 111.599   6
 -10  -2 -12 43.6173 142.369   4
 -10  -2 -12 235.106 153.697   6
 -10   2 -13 255.110 175.239   6
 -10  -2 -13 230.224 251.963   4
 -10  -2 -13 175.004 169.728   6
 -10   2 -14 288.678 191.469   6
 -10  -2 -14 107.306 224.119   4
 -10  -2 -14 248.863 168.656   6
 -10  -2 -15 361.104 303.860   4
 -10  -2 -15 272.952 175.749   6
 -10  -2 -16 553.263 364.856   4
 -10  -2 -16-79.1809 125.708   6
 -10  -2 -17 294.326 225.913   6
  10  -3 -25 1110.87 448.339   2
  10  -3 -24 125.806 175.084   2
  10  -3 -23 620.365 313.691   2
  10  -3 -22 192.741 200.360   2
  10  -3 -21-108.907 158.257   2
  10  -3 -20-221.572 168.582   2
  10  -3 -19 465.641 233.191   2
  10  -3 -18 176.661 145.670   2
 -10   3  18 46.7541 94.0660   5
 -10  -3  17 2911.83 598.489   6
  10  -3 -17 1810.86 419.943   2
 -10   3  17 1631.81 404.197   5
 -10  -3  16 109.391 117.173   6
  10  -3 -16-27.1653 113.427   2
 -10   3  16 227.687 183.642   5
 -10  -3  15 2509.94 549.462   6
  10  -3 -15 2211.46 432.232   2
 -10   3  15 2189.67 437.174   5
 -10  -3  14 322.954 217.486   6
  10  -3 -14-92.5117 51.4338   2
 -10   3  14 149.440 151.635   5
 -10  -3  13 18.5347 185.709   6
  10  -3 -13 129.666 105.424   2
 -10   3  13 15.4679 143.441   5
 -10  -3  12 508.503 270.622   6
  10  -3 -12 487.272 192.962   2
 -10   3  12 564.216 234.645   5
 -10  -3  11 4151.93 687.031   6
 -10   3  11 4194.29 623.755   5
  10  -3 -11 3588.74 463.251   2
 -10  -3  10 128.682 151.705   6
  10  -3 -10 218.276 120.912   2
 -10   3  10 68.3397 80.9572   5
 -10  -3   9 3085.08 577.039   6
 -10   3   9 2798.24 501.876   5
  10  -3  -9 2623.33 360.498   2
 -10  -3   8-246.487 235.893   6
  10  -3  -8 56.9332 44.1140   2
 -10   3   8-88.0284 157.331   5
  10  -3  -7 3.59642 28.7542   2
 -10   3   7 22.2941 116.487   5
 -10  -3   7-16.4077 58.2215   2
  10  -3  -6 158.362 73.1250   2
 -10   3   6 312.439 179.328   5
 -10  -3   6 214.355 81.1114   2
 -10  -3   6 307.188 251.191   6
 -10   3   5 7351.62 843.860   5
 -10  -3   5 5488.64 353.154   2
  10  -3  -5 4884.33 356.267   2
 -10  -3   5 6279.95 822.520   6
  10  -3  -4 291.898 82.4800   2
 -10   3   4 418.187 264.022   5
 -10  -3   4 216.981 55.1267   2
 -10  -3   4 161.265 44.3113   2
 -10  -3   4 30.8336 144.674   6
 -10   3   3 15085.4 1218.91   5
 -10  -3   3 14663.9 1249.95   6
 -10  -3   2 1842.29 462.329   6
 -10   3   2 2010.34 469.783   5
  10   3  -2 1521.30 326.553   3
  10   3  -2 2172.45 424.916   1
 -10   3   1 693.728 284.987   5
  10   3  -1 1022.54 265.428   3
  10   3  -1 1449.92 334.647   1
 -10  -3   1 1205.13 357.750   6
 -10   3   0-51.4936 78.6755   6
  10   3   0-62.8916 117.019   1
  10   3   0 101.410 87.2462   3
 -10  -3   0 67.3419 145.310   6
 -10   3  -1 806.057 253.716   6
  10   3   1 1575.43 402.206   1
  10   3   1 1159.09 275.805   3
 -10  -3  -1 1018.17 364.727   6
 -10   3  -2-201.744 217.283   6
 -10  -3  -2-46.8241 113.336   5
  10   3   2-95.3049 121.649   1
 -10  -3  -2 302.170 228.168   6
 -10   3  -3 2236.19 448.702   6
 -10  -3  -3 1591.80 375.940   5
  10   3   3 2256.10 485.358   1
 -10  -3  -3 2607.93 531.101   6
 -10   3  -4-110.747 196.466   6
 -10  -3  -4-23.9435 159.884   5
  10   3   4 73.9998 91.5400   1
 -10  -3  -4 98.2299 151.575   6
 -10   3  -5 305.078 81.7087   6
 -10  -3  -5-36.0208 151.366   5
  10   3   5 426.202 236.672   1
 -10  -3  -5 237.583 162.232   6
 -10   3  -6 141.091 74.4831   6
 -10  -3  -6-86.9255 151.037   5
  10   3   6-67.3272 146.188   1
 -10   3  -7 328.210 228.073   6
 -10  -3  -7 318.382 136.461   5
  10   3   7 531.189 294.865   1
 -10   3  -8 443.408 193.065   6
 -10  -3  -8 228.073 71.5878   5
  10   3   8 121.922 108.102   1
 -10   3  -9 1053.89 317.790   6
 -10  -3  -9 1295.09 376.452   5
 -10  -3  -9 1395.35 464.689   4
  10   3   9 1603.09 447.173   1
 -10   3 -10-21.7239 71.6398   6
 -10  -3 -10 4.22509 147.020   5
 -10  -3 -10-180.669 280.531   4
 -10   3 -11 912.166 286.022   6
 -10  -3 -11 1076.33 339.163   5
 -10  -3 -11 1298.30 451.329   4
 -10   3 -12 215.835 109.690   6
 -10  -3 -12 532.979 216.901   5
 -10  -3 -12 112.267 168.262   4
 -10   3 -13 503.663 222.546   6
 -10  -3 -13 301.342 241.174   4
 -10  -3 -14 6310.61 1040.51   4
 -10  -3 -15-712.611 361.196   4
 -10  -3 -16 214.492 184.567   4
 -10  -3 -16-43.2081 121.804   6
 -10  -3 -17 1218.39 419.694   6
  10  -4 -25 146.913 166.944   2
  10  -4 -24 1306.51 445.893   2
  10  -4 -23 15.7478 129.050   2
  10  -4 -22-88.3330 126.181   2
  10  -4 -21-483.241 253.341   2
  10  -4 -20 197.522 219.036   2
  10  -4 -19-42.9195 67.7018   2
 -10  -4  18 1934.62 477.607   6
  10  -4 -18 2614.13 526.257   2
 -10  -4  17 748.512 278.925   6
  10  -4 -17 796.471 294.312   2
 -10  -4  16 306.346 233.869   6
  10  -4 -16 670.482 249.474   2
 -10   4  16 524.194 240.207   5
 -10  -4  15 536.809 227.284   6
  10  -4 -15 495.511 242.151   2
 -10   4  15 745.779 261.329   5
 -10  -4  14 581.012 271.877   6
  10  -4 -14 401.751 200.316   2
 -10   4  14 471.725 207.001   5
 -10  -4  13 281.473 181.135   6
  10  -4 -13 363.948 182.940   2
 -10   4  13 266.110 144.299   5
 -10   4  12 4725.20 664.724   5
 -10  -4  12 4685.32 754.777   6
  10  -4 -12 4551.69 586.440   2
 -10  -4  11 2550.07 540.515   6
 -10   4  11 2184.96 449.613   5
  10  -4 -11 1751.00 351.468   2
 -10  -4  10 3649.42 655.878   6
 -10   4  10 2966.35 531.314   5
  10  -4 -10 2971.51 437.937   2
 -10   4   9 1419.18 396.466   5
  10  -4  -9 1551.96 301.560   2
 -10  -4   9 1255.07 385.386   6
 -10   4   8 530.757 221.268   5
  10  -4  -8 524.269 170.947   2
 -10  -4   8 368.793 226.578   6
  10  -4  -7-35.4352 64.6732   2
  10   4  -7 2.10145 66.7132   1
 -10  -4   7-89.4985 124.452   6
  10  -4  -6 36.7994 39.2678   2
  10   4  -6 29.8967 81.6733   1
 -10  -4   6 181.003 158.796   6
  10  -4  -5 1372.64 231.320   2
  10   4  -5 1506.71 322.292   1
 -10  -4   5 1584.39 416.342   6
  10  -4  -4 421.078 124.259   2
  10   4  -4 508.610 189.102   1
 -10  -4   4 466.904 111.812   2
 -10  -4   4 739.983 308.374   6
  10  -4  -3 1632.61 220.571   2
  10   4  -3 1993.13 391.919   1
  10   4  -3 2339.52 428.259   3
 -10  -4   3 1664.36 196.734   2
 -10  -4   3 2043.23 482.842   6
  10  -4  -2 1599.73 204.530   2
 -10  -4   2 1411.64 157.132   2
  10   4  -2 1833.28 384.762   1
  10   4  -2 1993.10 385.664   3
 -10  -4   2 1422.52 407.054   6
 -10  -4   1 1063.79 108.260   2
  10   4  -1 1082.97 316.622   1
  10   4  -1 1722.25 358.706   3
 -10  -4   1 1645.30 446.303   6
  10   4   0 297.185 181.901   3
  10   4   0 208.887 127.787   1
 -10  -4   0 197.178 112.883   6
  10   4   1 498.103 172.554   3
  10   4   1 359.727 206.043   1
  10   4   2 2253.41 395.161   3
  10   4   2 2217.76 461.416   1
  10   4   3 1140.88 349.791   1
 -10  -4  -4 6714.23 868.308   5
  10   4   4 7630.48 896.561   1
 -10  -4  -5 1000.46 354.590   5
 -10  -4  -5 1458.19 441.247   4
  10   4   5 1353.78 430.492   1
 -10  -4  -6 4966.84 728.700   5
 -10  -4  -6 4871.19 788.775   4
  10   4   6 6541.78 856.279   1
 -10  -4  -7-37.8775 164.751   5
 -10  -4  -7 244.356 203.931   4
  10   4   7 84.4138 123.063   1
 -10  -4  -8-17.1536 74.1987   5
 -10  -4  -8-154.139 171.435   4
  10   4   8 48.9497 81.5868   1
 -10  -4  -9 61.6163 110.206   5
 -10  -4  -9 505.026 268.924   4
  10   4   9 427.146 242.750   1
 -10  -4 -10 1725.55 436.554   5
 -10  -4 -10 993.163 372.785   4
  10   4  10 1759.18 499.023   1
 -10  -4 -11 555.896 244.224   5
 -10  -4 -11 646.586 299.212   4
  10   4  11 1051.52 363.583   1
 -10  -4 -12 932.073 304.596   5
 -10  -4 -12 1226.17 445.106   4
  10   4  12 1252.12 435.657   1
 -10  -4 -13-191.612 156.582   5
 -10  -4 -13 999.936 505.471   4
  10   4  13 442.948 233.977   1
 -10  -4 -14-65.7607 106.521   4
  10   4  14-153.432 151.541   1
 -10  -4 -15 379.419 303.889   4
  10  -5 -24 1147.21 423.460   2
  10  -5 -23 235.830 211.090   2
  10  -5 -22-402.715 243.596   2
  10  -5 -21-171.927 228.141   2
  10  -5 -20 825.208 332.198   2
 -10  -5  19 181.299 89.3907   6
  10  -5 -19 11.8413 74.9312   2
 -10  -5  18 2861.52 592.286   6
  10  -5 -18 3295.60 613.394   2
 -10  -5  17-10.6243 109.289   6
  10  -5 -17 354.939 243.032   2
 -10  -5  16 1027.17 364.520   6
  10  -5 -16 1434.71 390.359   2
 -10  -5  15 223.393 168.979   6
  10  -5 -15-0.83611 84.2928   2
 -10  -5  14 360.063 247.868   6
  10  -5 -14 90.0629 84.5679   2
 -10  -5  13 805.487 296.919   6
  10  -5 -13 436.369 184.546   2
  10  -5 -12 3817.53 566.403   2
 -10  -5  12 4656.07 750.144   6
 -10  -5  11 341.742 290.540   6
  10  -5 -11 144.072 106.502   2
  10  -5 -10 5530.98 632.453   2
 -10  -5  10 5351.76 507.521   4
  10   5 -10 5417.33 538.191   1
 -10  -5  10 5350.20 801.588   6
 -10  -5   9 21.0358 107.346   4
  10  -5  -9 8.78666 81.4956   2
  10   5  -9-63.3251 105.090   1
 -10  -5   9 81.9136 170.433   6
 -10  -5   8 929.630 244.782   4
  10  -5  -8 596.414 186.423   2
  10   5  -8 890.891 241.735   1
 -10  -5   8 738.414 289.783   6
 -10  -5   7 147.988 86.6049   4
  10  -5  -7 129.212 101.228   2
  10   5  -7 41.1897 62.1577   1
 -10  -5   7 120.268 142.687   6
 -10  -5   6 339.220 161.924   4
  10  -5  -6 680.151 207.033   2
  10   5  -6 558.705 220.043   1
 -10  -5   6 413.198 218.614   6
 -10  -5   5 239.373 171.563   4
  10  -5  -5 329.280 134.657   2
  10   5  -5 607.978 214.872   1
 -10  -5   5 688.606 319.481   6
  10   5  -4 7527.15 761.410   1
  10  -5  -4 8026.17 612.382   2
 -10  -5   4 7809.60 804.077   4
 -10  -5   4 8192.20 984.451   6
 -10  -5   3 1416.97 364.741   4
 -10  -5   3 1488.55 234.508   2
  10  -5  -3 1462.12 254.720   2
  10   5  -3 1812.42 410.850   3
 -10  -5   3 1121.81 421.980   6
  10   5  -3 1793.23 394.716   1
  10   5  -2 5427.99 695.541   1
 -10  -5   2 5006.26 669.220   4
  10  -5  -2 5791.40 484.690   2
  10   5  -2 5650.74 697.193   3
 -10  -5   2 5533.88 435.338   2
 -10  -5   1 1.23738 33.6001   2
 -10  -5   1 47.6450 118.525   4
  10   5  -1 90.0407 103.936   3
  10  -5  -1 16.0660 53.9935   2
  10   5  -1 55.0428 91.8269   1
 -10  -5   0 16.6899 67.4853   4
  10   5   0 94.9812 101.750   3
  10   5   0-98.3230 140.101   1
 -10  -5  -1-0.44862 69.9143   4
  10   5   1 141.642 166.876   3
  10   5   1-136.537 131.274   1
 -10  -5  -2 2351.49 497.007   4
  10   5   2 3690.34 550.102   3
  10   5   2 2613.64 525.203   1
 -10  -5  -3 359.389 239.413   4
  10   5   3 381.434 284.136   1
  10   5   4 7374.99 905.805   1
 -10  -5  -4 6428.85 874.684   4
 -10  -5  -5 702.390 293.559   4
  10   5   5 1028.44 380.180   1
 -10  -5  -6 2932.62 571.191   5
 -10  -5  -6 3314.12 663.649   4
  10   5   6 3985.70 693.590   1
 -10  -5  -7 321.529 213.073   5
 -10  -5  -7 146.434 135.462   4
  10   5   7 76.5092 123.608   1
 -10  -5  -8-148.371 179.045   5
 -10  -5  -8 366.663 258.211   4
  10   5   8 185.658 176.998   1
 -10  -5  -9 55.9154 107.932   5
 -10  -5  -9 154.722 216.442   4
  10   5   9 288.688 223.694   1
 -10  -5 -10 1616.43 427.886   5
 -10  -5 -10 2079.54 586.199   4
  10   5  10 2514.24 595.259   1
 -10  -5 -11 227.521 159.865   5
 -10  -5 -11 455.491 286.019   4
  10   5  11-224.932 108.202   1
 -10  -5 -12 1094.44 362.697   5
 -10  -5 -12 899.657 389.636   4
  10   5  12 1496.45 486.989   1
 -10  -5 -13-164.914 187.862   5
 -10  -5 -13 162.199 234.150   4
  10   5  13-289.989 225.877   1
 -10  -5 -14-78.7021 136.994   5
 -10  -5 -14-212.695 188.128   4
  10   5  14-257.059 210.714   1
  10  -6 -23 97.9417 118.477   2
  10  -6 -22 398.824 240.432   2
  10  -6 -21 137.516 223.808   2
  10  -6 -20 337.439 206.829   2
 -10  -6  19-100.190 78.6409   6
  10  -6 -19-80.2973 120.810   2
 -10  -6  18 448.988 234.641   6
  10  -6 -18 501.143 285.372   2
 -10  -6  17 519.269 263.374   6
  10  -6 -17 934.088 341.258   2
 -10  -6  16 681.302 298.811   6
  10  -6 -16 270.956 158.416   2
 -10  -6  15 403.791 256.030   6
  10  -6 -15 420.136 228.379   2
 -10  -6  14 97.0150 185.267   6
  10  -6 -14-20.5016 61.7316   2
 -10  -6  13 345.335 364.390   6
  10  -6 -13 388.430 193.261   2
  10  -6 -12 1466.43 377.388   2
 -10  -6  12 1226.93 410.174   6
  10  -6 -11 2192.43 442.008   2
 -10  -6  11 2221.83 540.220   6
  10   6 -10 3647.53 470.491   1
  10  -6 -10 4133.98 581.855   2
 -10  -6  10 4031.65 734.861   6
  10  -6  -9 550.697 194.633   2
  10   6  -9 993.959 262.759   1
 -10  -6   9 655.799 294.945   6
  10   6  -8 785.161 227.118   1
 -10  -6   8 713.132 197.154   4
  10  -6  -8 695.932 218.206   2
 -10  -6   8 566.399 235.786   6
  10   6  -7 119.643 93.7645   1
 -10  -6   7 81.3233 92.2834   4
  10  -6  -7 108.645 105.871   2
 -10  -6   7-171.649 162.400   6
  10   6  -6 1137.77 284.362   1
 -10  -6   6 1427.01 322.676   4
 -10  -6   6 1608.08 456.646   6
  10  -6  -6 1236.24 286.924   2
  10   6  -5 903.544 294.772   1
 -10  -6   5 994.194 272.004   4
  10  -6  -5 1243.87 286.650   2
 -10  -6   5 740.782 354.755   6
  10   6  -4 7220.43 783.001   1
 -10  -6   4 8060.28 816.474   4
  10  -6  -4 7739.19 679.453   2
  10   6  -4 8242.59 919.678   3
 -10  -6   3 2613.37 364.939   2
  10   6  -3 3299.81 549.657   1
  10  -6  -3 2437.69 376.602   2
 -10  -6   3 2516.71 472.298   4
  10   6  -3 2953.80 540.761   3
  10   6  -2 2061.67 431.361   1
 -10  -6   2 2644.34 493.079   4
  10  -6  -2 2458.99 368.980   2
  10   6  -2 2750.73 528.084   3
 -10  -6   2 2261.63 329.585   2
  10  -6  -1 436.545 156.539   2
  10   6  -1 139.558 75.4679   1
 -10  -6   1 237.597 115.661   2
 -10  -6   1 584.965 256.062   4
  10   6  -1 399.211 193.264   3
  10   6   0 257.908 182.777   1
 -10  -6   0 239.387 186.944   4
  10   6   0 129.420 74.1011   3
  10   6   1 331.415 151.995   1
 -10  -6  -1 414.094 233.335   4
  10   6   1 139.533 151.702   3
  10   6   2 2049.25 472.336   1
 -10  -6  -2 2439.04 517.122   4
  10   6   2 2603.58 502.517   3
  10   6   3 1123.70 375.189   1
 -10  -6  -3 835.837 356.225   4
  10   6   4 3025.51 585.246   1
 -10  -6  -4 2280.41 532.276   4
  10   6   5 656.594 231.138   1
 -10  -6  -5 586.663 273.121   4
  10   6   6 196.883 174.363   1
 -10  -6  -6-70.3267 245.185   4
  10   6   7 416.079 240.962   1
 -10  -6  -7-98.2896 109.609   5
 -10  -6  -7 212.693 167.616   4
 -10  -6  -8 54.1213 108.144   5
 -10  -6  -8 3.13484 95.7125   4
  10   6   8-17.2319 154.768   1
 -10  -6  -9 191.284 153.752   5
 -10  -6  -9 217.408 248.256   4
  10   6   9 105.544 168.729   1
 -10  -6 -10 745.420 324.709   5
 -10  -6 -10 770.767 352.911   4
  10   6  10 696.219 324.432   1
 -10  -6 -11 207.001 135.287   5
 -10  -6 -11 409.186 244.530   4
 -10  -6 -12 381.691 247.454   5
 -10  -6 -12 357.893 297.426   4
  10   6  12 811.309 384.049   1
 -10  -6 -13 143.659 109.147   5
 -10  -6 -13 432.528 290.511   4
  10   6  13 395.400 283.938   1
  10  -7 -22 140.532 159.688   2
  10  -7 -21 55.5299 115.530   2
  10  -7 -20-365.927 234.963   2
  10  -7 -19 317.349 209.341   2
 -10  -7  18 98.1135 166.582   6
  10  -7 -18 37.2250 71.2540   2
 -10  -7  17 902.877 349.723   6
  10  -7 -17 1395.94 421.300   2
 -10  -7  16 123.709 253.150   6
  10  -7 -16-4.10625 73.1943   2
 -10  -7  15-12.2349 202.586   6
  10  -7 -15 40.1749 87.1559   2
 -10  -7  14 126.778 218.654   6
  10  -7 -14 97.1574 136.366   2
  10  -7 -13 2129.84 459.955   2
 -10  -7  13 1909.64 503.656   6
  10  -7 -12 476.157 242.480   2
 -10  -7  12 510.277 255.100   6
  10  -7 -11 4954.78 687.469   2
 -10  -7  11 3911.72 702.249   6
  10  -7 -10 937.242 300.461   2
 -10  -7  10 1531.29 447.981   6
  10   7  -9 2088.61 372.139   1
  10  -7  -9 2609.88 489.496   2
 -10  -7   9 2668.96 589.109   6
  10   7  -8-37.1304 70.8847   1
  10  -7  -8 118.119 150.325   2
 -10  -7   8 205.465 169.167   6
  10   7  -7 466.848 201.293   1
  10  -7  -7 342.992 157.212   2
 -10  -7   7 101.413 114.252   6
 -10  -7   6 110.315 108.709   4
  10   7  -6 306.204 174.155   1
  10  -7  -6 124.185 74.0350   2
 -10  -7   6-74.0653 134.093   6
 -10  -7   5 436.683 206.933   4
  10   7  -5 169.472 119.227   1
  10   7  -5 114.545 175.698   3
  10  -7  -5 215.733 143.364   2
 -10  -7   4 930.412 267.254   4
  10   7  -4 821.168 289.839   1
  10   7  -4 647.785 298.208   3
  10  -7  -4 659.967 226.559   2
 -10  -7   3 586.582 232.887   4
 -10  -7   3 853.380 241.331   2
  10   7  -3 1074.67 321.927   1
  10   7  -3 971.814 344.231   3
  10  -7  -3 1556.83 322.714   2
  10  -7  -2 138.959 116.048   2
 -10  -7   2 188.821 131.750   4
 -10  -7   2 234.310 149.567   2
  10   7  -2 184.511 146.547   1
  10   7  -2 35.1119 94.5340   3
 -10  -7   1 353.742 181.843   4
  10   7  -1 399.495 225.645   3
  10   7  -1 959.128 333.136   1
 -10  -7   0-36.3726 71.8151   4
  10   7   0-38.0162 127.063   3
  10   7   0 196.045 179.110   1
 -10  -7  -1 666.979 284.259   4
  10   7   1 750.976 305.813   1
  10   7   1 1047.22 345.634   3
 -10  -7  -2 540.120 256.618   4
  10   7   2 451.013 274.681   1
  10   7   2 579.261 245.284   3
 -10  -7  -3 4324.53 715.921   4
  10   7   3 4125.10 712.278   1
 -10  -7  -4 734.983 301.877   4
  10   7   4 389.152 229.281   1
  10   7   5 5803.63 867.716   1
 -10  -7  -5 4630.21 797.154   4
  10   7   6 280.246 278.173   1
 -10  -7  -6-22.1324 153.288   4
  10   7   7 447.627 240.293   1
 -10  -7  -7 767.371 297.546   4
 -10  -7  -8-31.5526 155.857   5
  10   7   8-80.4609 192.479   1
 -10  -7  -8-239.707 132.647   4
  10   7   9 832.321 346.911   1
 -10  -7  -9 735.597 285.408   5
 -10  -7  -9 484.259 321.275   4
  10   7  10-50.5445 155.374   1
 -10  -7 -10 1.03822 64.0195   5
 -10  -7 -10 142.597 184.326   4
  10   7  11 1054.87 455.510   1
 -10  -7 -11 879.497 348.087   5
 -10  -7 -11 535.659 297.529   4
 -10  -7 -12 46.7048 67.2899   5
  10   7  12-156.747 133.608   1
  10  -8 -20 135.593 170.062   2
  10  -8 -19 279.408 233.870   2
  10  -8 -18 126.476 164.903   2
  10  -8 -17 888.566 358.965   2
 -10  -8  16-67.5499 115.713   6
  10  -8 -16 285.235 205.381   2
 -10  -8  15 9.73870 76.7601   6
  10  -8 -15 216.012 179.993   2
  10  -8 -14-164.317 172.252   2
 -10  -8  14 243.990 144.842   6
  10  -8 -13 398.764 217.066   2
 -10  -8  13 163.546 140.911   6
  10  -8 -12-1.90694 132.707   2
 -10  -8  12 37.5906 129.494   6
  10  -8 -11 737.751 276.833   2
 -10  -8  11 504.969 216.355   6
  10  -8 -10 66.4021 86.7281   2
 -10  -8  10-321.031 220.750   6
  10  -8  -9 567.605 217.539   2
 -10  -8   9 637.857 287.329   6
  10  -8  -8 146.657 142.872   2
  10   8  -8 126.785 138.313   1
 -10  -8   8-106.921 215.729   6
  10  -8  -7 1.97991 74.7211   2
  10   8  -7 77.5763 113.256   1
  10   8  -6 218.495 169.518   1
  10   8  -6-48.7146 92.4167   3
  10  -8  -6-15.3886 128.325   2
  10   8  -5 495.797 208.115   1
  10   8  -5 885.248 366.001   3
  10  -8  -5 857.585 283.903   2
  10   8  -4 1285.65 359.917   1
  10   8  -4 863.032 335.704   3
 -10  -8   4 1149.28 299.977   2
  10  -8  -4 1147.97 315.090   2
  10  -8  -3 1797.20 392.662   2
  10   8  -3 1400.39 378.393   1
  10   8  -3 1794.83 462.614   3
  10   8  -2 974.250 308.614   1
  10   8  -2-373.629 223.040   3
  10   8  -1 325.426 157.677   1
  10   8  -1 418.921 269.586   3
  10   8   0-21.6624 77.8310   1
 -10  -8   0-191.185 170.260   4
  10   8   0 93.6987 170.209   3
 -10  -8  -1 388.260 179.353   4
  10   8   1 561.324 232.594   3
  10   8   1 520.776 249.492   1
 -10  -8  -2 53.6802 115.760   4
  10   8   2 26.4025 86.6496   3
  10   8   2 36.8728 121.197   1
 -10  -8  -3 1425.58 416.513   4
  10   8   3 1937.02 489.192   1
 -10  -8  -4 313.801 169.255   4
  10   8   4 128.729 165.525   1
 -10  -8  -5 1185.00 431.159   4
  10   8   5 1552.60 494.989   1
 -10  -8  -6 73.3347 152.191   4
  10   8   6 578.504 312.743   1
 -10  -8  -7 52.3144 152.368   4
  10   8   7 295.270 235.883   1
  10   8   8 181.070 208.564   1
 -10  -8  -8-3.32328 94.4365   4
 -10  -8  -9 1555.26 452.501   5
  10   8   9 2085.62 575.660   1
 -10  -8 -10 370.225 221.448   5
  10   8  10 128.887 92.2077   1
 -10  -8 -11 826.463 315.613   5
  10  -9 -18 410.347 273.553   2
  10  -9 -17 254.583 227.780   2
  10  -9 -16 390.155 260.810   2
  10  -9 -15-12.8699 151.810   2
 -10  -9  15 139.653 174.443   6
  10  -9 -14 121.080 179.785   2
 -10  -9  14-242.056 192.566   6
  10  -9 -13 330.946 212.394   2
 -10  -9  13 116.613 99.5211   6
  10  -9 -12 678.054 295.616   2
 -10  -9  12 690.000 313.520   6
  10  -9 -11 673.534 304.074   2
 -10  -9  11 1107.09 395.158   6
  10  -9 -10 1004.40 339.478   2
 -10  -9  10 1802.16 516.631   6
  10  -9  -9 1247.01 375.964   2
 -10  -9   9 2100.65 542.779   6
  10   9  -8 518.975 313.000   3
  10  -9  -8 239.332 143.231   2
  10   9  -7 68.1203 83.6590   1
  10   9  -7-231.044 245.185   3
  10  -9  -7-85.9047 97.6720   2
  10   9  -6 510.823 212.976   1
  10   9  -6-81.4063 215.587   3
  10  -9  -6 221.867 187.893   2
  10   9  -5 939.164 276.891   1
  10   9  -5 1190.93 421.543   3
  10  -9  -5 858.326 313.027   2
  10   9  -4 2771.24 549.253   1
  10   9  -4 1954.80 515.559   3
  10   9  -3 1475.02 438.583   1
  10   9  -3 1583.69 502.255   3
  10   9  -2 1812.17 458.245   1
  10   9  -2 1212.06 406.823   3
  10   9  -1 259.089 211.373   1
  10   9  -1-17.6678 139.394   3
  10   9   0-37.3407 175.348   1
  10   9   0 132.630 143.540   3
  10   9   1-54.4289 98.5168   1
  10   9   1-253.463 271.181   3
  10   9   2 411.471 220.761   1
  10   9   2 451.861 213.833   3
  10   9   3 630.672 272.560   1
  10   9   4 675.681 291.021   1
  10   9   5 85.2014 211.790   1
  10   9   6 241.112 178.077   1
  10   9   7-52.8348 182.005   1
  10   9   8 117.183 259.221   1
 -10  -9 -10 377.830 194.694   5
  10 -10 -16 715.095 348.692   2
  10 -10 -15-40.9117 105.507   2
  10 -10 -14-195.160 178.698   2
 -10 -10  14 220.661 197.525   6
  10 -10 -13 46.2169 104.678   2
 -10 -10  13-198.559 181.074   6
  10 -10 -12 1710.82 484.063   2
 -10 -10  12 1684.25 472.333   6
  10 -10 -11 86.3652 129.661   2
 -10 -10  11 517.320 255.629   6
  10 -10 -10 1960.88 495.231   2
 -10 -10  10 2075.66 573.933   6
  10 -10  -9 9.62122 82.7482   2
 -10 -10   9-299.382 225.530   6
  10  10  -8 517.311 279.417   3
  10 -10  -8 75.7315 94.7802   2
  10  10  -7-155.387 154.429   3
  10  10  -6 236.145 182.085   1
  10  10  -6 291.166 199.383   3
  10  10  -5-14.5475 142.883   1
  10  10  -5 98.7345 116.470   3
  10  10  -4 896.333 286.134   1
  10  10  -4 899.815 355.517   3
  10  10  -3-113.926 149.198   1
  10  10  -3 272.452 266.032   3
  10  10  -2 878.155 355.763   3
  10  10  -2 682.756 319.824   1
  10  10  -1-87.8976 202.887   3
  10  10  -1-144.631 198.650   1
  10  10   0 268.596 216.242   3
  10  10   0 8.09653 154.442   1
  10  10   1 3.81898 109.854   3
  10  10   1 104.565 185.898   1
  10  10   2 921.739 364.203   3
  10  10   2 986.121 361.132   1
  10  10   3 418.555 280.265   1
  10  10   4 2853.52 647.023   1
  10  10   5 0.66451 296.590   1
 -10 -11  12 893.635 371.022   6
 -10 -11  11 60.6497 124.555   6
 -10 -11  10 774.784 357.341   6
  10  11  -7-148.159 174.687   3
  10  11  -6 293.198 240.557   3
  10  11  -5 383.502 259.490   3
  10  11  -5 732.942 301.056   1
  10  11  -4 1825.61 517.125   3
  10  11  -4 56.2608 121.751   1
  10  11  -3 906.407 380.077   3
  10  11  -3 834.009 351.249   1
  10  11  -2 403.433 233.488   1
  10  11  -2 309.377 175.946   3
  10  11  -1 60.0088 89.9042   1
  10  11  -1 4.17919 101.076   3
  10  11   0-116.670 181.226   1
  10  11   0 309.808 266.492   3
  10  11   1 30.8549 92.3274   1
  10  11   1 25.1263 197.921   3
  10  11   2 655.433 334.708   1
  10  12  -4 26.8021 192.023   1
  10  12  -3 1194.86 437.465   1
  10  12  -2 76.6861 133.059   1
  11   0 -24 156.454 252.866   2
  11   0 -23-45.1735 84.2502   2
  11   0 -22-104.402 125.894   2
 -11   0  21 789.836 319.212   5
  11   0 -21 545.750 258.675   2
 -11   0  20 306.640 243.620   5
  11   0 -20 130.228 167.603   2
 -11   0  19 8564.83 1007.01   5
  11   0 -19 7632.63 894.316   2
 -11   0  18 252.872 253.787   5
  11   0 -18 188.902 163.590   2
 -11   0  17 5231.38 784.290   5
  11   0 -17 4817.58 647.393   2
 -11   0  16 325.680 213.006   5
 -11   0  15-75.0553 88.7004   5
 -11   0  14-93.6159 104.614   5
 -11   0  13 3489.94 648.671   5
 -11   0  12 390.207 228.653   5
 -11   0  11 6249.87 873.872   5
 -11   0  11 6381.06 895.184   6
 -11   0  10 298.289 230.438   6
 -11   0  10 149.584 172.492   5
 -11   0   9 395.401 173.902   6
 -11   0   9 841.376 319.638   5
 -11   0   8-215.690 207.061   6
 -11   0   8-17.3139 124.345   5
 -11   0   7 1740.29 437.431   6
 -11   0   7 1012.59 303.433   5
 -11   0   6-25.2486 205.739   6
 -11   0   6-231.407 225.325   5
 -11   0   5 6389.59 851.087   5
 -11   0   5 8467.00 992.534   6
 -11   0   4 43.2289 112.281   6
 -11   0   4 51.9347 87.6518   5
 -11   0   3 25885.6 1713.44   5
  11   0  -3 22628.4 912.322   3
 -11   0   3 24642.8 1708.77   6
 -11   0   2 8.88663 134.565   6
 -11   0   2 163.705 166.487   5
 -11   0   1 1759.09 438.453   6
 -11   0   1 1714.08 428.721   5
 -11   0   0 15.7753 125.128   6
 -11   0   0 10.0016 166.594   5
 -11   0  -1 229.950 202.203   6
 -11   0  -1 614.550 263.689   5
 -11   0  -2 22.6191 168.574   6
 -11   0  -2 253.686 205.124   5
 -11   0  -3 12745.7 1209.82   5
 -11   0  -3 12517.7 1207.02   6
 -11   0  -4 49.4243 195.548   6
 -11   0  -4-44.4944 144.354   5
 -11   0  -5 16281.3 1382.33   5
 -11   0  -5 16584.1 1384.30   6
 -11   0  -6 153.855 126.886   6
 -11   0  -6-237.416 195.639   5
 -11   0  -7 1359.93 398.782   6
 -11   0  -7 1525.38 413.511   5
 -11   0  -8 110.956 131.294   6
 -11   0  -9 1544.69 432.700   6
 -11   0 -10 118.693 158.204   6
 -11   0 -11 2860.60 575.556   6
 -11   0 -12 345.812 252.381   6
 -11   0 -13 460.758 276.786   6
 -11   0 -14 277.946 212.753   6
  11  -1 -24 241.039 167.303   2
  11  -1 -23 81.6918 108.994   2
  11  -1 -22 45.5126 103.081   2
  11  -1 -21 90.0823 92.2815   2
 -11   1  20-189.609 188.898   5
  11  -1 -20-195.595 131.168   2
 -11   1  19 1556.52 429.182   5
  11  -1 -19 1601.47 412.397   2
 -11   1  18 145.720 191.314   5
  11  -1 -18 165.012 125.698   2
 -11   1  17 923.319 323.018   5
  11  -1 -17 715.253 278.078   2
 -11   1  16 123.617 133.220   5
  11  -1 -16 37.2082 62.5867   2
 -11   1  15 116.314 114.456   5
  11  -1 -15-3.26106 63.0634   2
 -11   1  14 114.281 124.882   5
  11  -1 -14 3.56809 63.0151   2
 -11  -1  13 2388.29 550.298   6
 -11   1  13 2162.59 478.956   5
  11  -1 -13 2359.14 378.711   2
 -11   1  12 5230.97 784.468   5
  11  -1 -12 4452.26 499.144   2
 -11  -1  12 5123.75 818.713   6
 -11   1  11 5777.80 806.109   5
 -11  -1  11 5365.32 826.089   6
 -11   1  10 4434.72 709.953   5
 -11  -1  10 5239.88 816.679   6
 -11  -1   9 1693.88 479.453   6
 -11   1   9 954.263 348.959   6
 -11   1   9 984.536 330.854   5
 -11  -1   8 219.738 159.401   6
 -11   1   8 131.382 156.306   6
 -11   1   8 210.534 119.464   5
 -11  -1   7 384.769 212.140   6
 -11   1   7 436.426 266.925   6
 -11  -1   7 448.490 176.872   5
 -11   1   7 690.846 263.022   5
 -11  -1   6 3121.16 618.154   6
 -11   1   6 2239.25 504.484   6
 -11  -1   6 1873.43 453.811   5
 -11   1   6 2527.31 513.096   5
 -11  -1   5 4477.03 739.230   5
 -11   1   5 5311.20 761.606   5
 -11  -1   5 4794.08 778.158   6
 -11   1   5 5295.83 800.922   6
 -11  -1   4 6097.78 841.890   5
 -11   1   4 6321.18 856.313   5
 -11  -1   4 6290.38 862.352   6
 -11   1   4 6162.24 843.541   6
 -11  -1   3 12680.5 1201.47   5
 -11   1   3 10714.0 1117.86   5
  11   1  -3 10841.9 730.179   3
 -11  -1   3 11894.1 1178.51   6
 -11   1   3 10977.4 1134.19   6
 -11  -1   2 2355.62 517.403   6
 -11   1   2 2336.96 526.190   6
 -11  -1   2 2274.47 529.559   5
 -11   1   2 1439.24 410.806   5
  11   1  -2 2121.91 300.961   3
 -11  -1   1 207.987 109.144   6
 -11   1   1 160.701 173.361   6
 -11  -1   1 50.6628 218.268   5
 -11   1   1 50.3582 137.175   5
  11   1  -1-3.62407 67.3499   3
 -11  -1   0 188.001 139.078   6
 -11   1   0-134.907 177.641   6
 -11  -1   0 26.6535 109.257   5
 -11   1   0-13.2006 114.068   5
 -11  -1  -1 1188.81 381.032   6
 -11   1  -1 1777.34 462.456   6
 -11  -1  -1 1331.32 399.057   5
 -11   1  -1 1026.19 335.899   5
 -11   1  -2 817.792 300.435   6
 -11  -1  -2 460.035 209.902   5
 -11   1  -2 817.389 329.471   5
 -11  -1  -2 685.889 299.120   6
 -11  -1  -3 5774.69 814.726   5
 -11   1  -3 6388.85 851.262   5
 -11  -1  -3 7008.14 905.836   6
 -11   1  -3 7419.43 923.335   6
 -11   1  -4 130.585 126.213   6
 -11  -1  -4 369.669 276.765   5
 -11   1  -4 306.931 235.608   5
 -11  -1  -4 145.873 98.5121   6
 -11  -1  -5 4656.72 741.627   5
 -11   1  -5 6121.44 841.051   5
 -11  -1  -5 5194.21 780.443   6
 -11   1  -5 4564.69 740.311   6
 -11   1  -6-69.0385 170.059   6
 -11  -1  -6-207.655 242.388   5
 -11  -1  -6-25.8343 125.531   6
 -11   1  -7 378.471 246.319   6
 -11  -1  -7 131.347 153.590   5
 -11  -1  -7 100.758 162.974   6
 -11   1  -8 696.008 288.197   6
 -11  -1  -8 722.988 299.889   5
 -11  -1  -8 658.235 292.973   6
 -11   1  -9 1067.80 366.174   6
 -11  -1  -9 1066.66 331.232   5
 -11  -1  -9 925.352 349.999   6
 -11   1 -10 1152.47 380.067   6
 -11  -1 -10 2011.97 625.311   6
 -11   1 -11 1494.77 421.601   6
 -11  -1 -11 2267.93 532.007   6
 -11   1 -12 2089.55 493.936   6
 -11  -1 -12 1671.60 460.356   6
 -11   1 -13 136.779 116.806   6
 -11  -1 -13 604.808 288.750   6
 -11   1 -14 1864.06 464.513   6
 -11  -1 -14 1720.03 474.361   6
 -11  -1 -15 100.416 91.6181   6
  11  -2 -23 199.674 181.857   2
  11  -2 -22-219.961 171.488   2
  11  -2 -21-222.282 170.326   2
  11  -2 -20 556.290 241.355   2
 -11   2  19 350.124 215.026   5
  11  -2 -19 263.877 203.580   2
 -11   2  18 2547.84 543.798   5
  11  -2 -18 2076.73 448.774   2
 -11   2  17 2.30826 112.384   5
  11  -2 -17 146.350 127.784   2
 -11   2  16 597.960 258.896   5
  11  -2 -16 594.498 225.284   2
 -11  -2  15-253.410 245.962   6
 -11   2  15 44.1137 126.649   5
  11  -2 -15 142.372 112.812   2
 -11  -2  14 288.562 150.682   6
 -11   2  14 664.404 288.699   5
  11  -2 -14 572.013 209.920   2
 -11  -2  13 206.764 127.410   6
 -11   2  13 184.563 178.025   5
  11  -2 -13 415.098 165.907   2
 -11   2  12 10034.8 1042.33   5
  11  -2 -12 9142.64 725.539   2
 -11  -2  12 9144.69 1084.89   6
 -11  -2  11 2273.51 550.109   6
 -11   2  11 2972.52 579.675   5
 -11   2  10 5535.13 771.926   5
 -11  -2  10 7701.59 989.160   6
 -11  -2   9 1880.51 489.880   6
 -11   2   9 1654.79 425.358   5
 -11  -2   8 328.377 202.583   6
 -11   2   8 2665.58 578.726   5
 -11  -2   7 49.2392 131.602   6
 -11   2   7 14.4037 136.842   5
 -11  -2   6 1463.40 418.505   6
 -11   2   6 1799.77 453.060   5
 -11  -2   5 3352.42 653.008   6
 -11   2   5 2164.22 506.629   6
 -11   2   5 2895.72 567.860   5
 -11   2   4 6839.44 900.860   5
 -11  -2   4 8222.53 1000.62   6
 -11   2   4 6738.73 916.129   6
 -11  -2   3 1252.96 398.628   6
 -11   2   3 1273.44 392.672   6
 -11  -2   3 1130.72 393.460   5
 -11   2   3 1488.73 419.886   5
  11   2  -3 1358.97 296.421   3
 -11  -2   2 4074.48 692.803   5
 -11   2   2 3649.72 637.331   5
  11   2  -2 4596.26 517.078   3
 -11   2   2 4409.95 723.198   6
 -11  -2   2 3929.11 680.630   6
 -11   2   1 136.936 123.159   6
 -11  -2   1 214.764 132.053   5
 -11   2   1 1.41155 123.417   5
  11   2  -1 87.2618 73.9163   3
 -11  -2   1 173.987 113.398   6
 -11   2   0-26.2703 217.191   6
 -11  -2   0 16.7561 81.6639   5
 -11   2   0 21.3562 116.263   5
  11   2   0 128.563 89.5845   3
 -11  -2   0 137.073 217.426   6
 -11   2  -1-57.5927 159.049   6
 -11  -2  -1 161.484 155.659   5
 -11   2  -1 241.689 191.225   5
 -11  -2  -1 76.7247 131.403   6
 -11   2  -2 2232.03 501.336   6
 -11  -2  -2 2694.91 551.917   5
 -11   2  -2 3123.19 602.321   5
 -11  -2  -2 3175.06 613.320   6
 -11   2  -3-39.5060 117.776   6
 -11  -2  -3-247.598 243.804   5
 -11  -2  -3-21.8141 111.529   6
 -11  -2  -4 5435.15 793.571   5
 -11  -2  -4 5100.32 790.010   6
 -11   2  -4 5317.08 772.794   6
 -11   2  -5 318.541 220.819   6
 -11  -2  -5 22.2788 101.735   5
 -11  -2  -5 318.828 233.144   6
 -11   2  -6 2088.95 495.254   6
 -11  -2  -6 2422.61 531.659   5
 -11  -2  -6 2867.63 596.422   6
 -11   2  -7 315.739 161.613   6
 -11  -2  -7 215.888 106.396   5
 -11  -2  -7 287.942 165.233   6
 -11   2  -8 230.105 211.698   6
 -11  -2  -8 114.545 137.026   5
 -11  -2  -8-128.360 161.903   6
 -11   2  -9 498.955 258.430   6
 -11  -2  -9 431.538 227.417   5
 -11  -2  -9 315.040 180.762   6
 -11   2 -10 1484.22 396.041   6
 -11  -2 -10 1819.53 476.041   5
 -11  -2 -10 1283.16 392.619   6
 -11   2 -11 445.982 241.613   6
 -11  -2 -11 636.856 289.732   6
 -11   2 -12 1650.87 426.764   6
 -11  -2 -12 1649.99 537.362   4
 -11  -2 -12 1158.45 377.929   6
 -11  -2 -13 1224.63 472.048   4
 -11  -2 -13 1199.54 411.755   6
 -11  -2 -14 764.764 395.864   4
 -11  -2 -14 537.318 239.045   6
 -11  -2 -15 727.085 300.349   6
 -11  -2 -16 237.771 173.485   6
  11  -3 -23-242.258 189.045   2
  11  -3 -22 92.3082 117.127   2
  11  -3 -21 64.2410 125.777   2
  11  -3 -20 1922.26 487.474   2
  11  -3 -19 482.698 232.678   2
 -11   3  18 4597.54 682.677   5
  11  -3 -18 4929.35 696.043   2
  11  -3 -17 188.420 142.600   2
 -11  -3  17 223.815 176.523   6
 -11   3  17 217.702 110.322   5
  11  -3 -16 760.975 263.513   2
 -11  -3  16 429.674 245.644   6
 -11   3  16 1167.37 341.691   5
  11  -3 -15-17.6650 87.3502   2
 -11  -3  15-161.900 249.048   6
 -11   3  15-26.0396 152.601   5
  11  -3 -14 549.465 201.709   2
 -11  -3  14 530.620 304.044   6
 -11   3  14 428.900 190.308   5
 -11  -3  13-220.913 202.312   6
  11  -3 -13-76.0463 82.2807   2
 -11   3  13 39.9292 79.5521   5
 -11  -3  12 4133.06 742.177   6
 -11   3  12 3900.10 645.335   5
  11  -3 -12 3792.23 491.523   2
 -11  -3  11 326.023 279.616   6
 -11   3  11 106.456 148.446   5
 -11  -3  10 941.587 317.539   6
 -11   3  10 1643.57 396.010   5
 -11  -3   9 125.430 111.412   6
 -11   3   9-109.426 155.178   5
 -11  -3   8-308.945 271.672   6
 -11   3   8 27.1950 176.612   5
 -11  -3   7-211.368 204.322   6
 -11   3   7 32.3490 101.852   5
 -11  -3   6 1154.17 425.983   6
 -11   3   6 1191.39 379.019   5
 -11   3   5 266.382 182.978   5
 -11  -3   5 615.204 322.193   6
 -11   3   4 6326.29 830.730   5
 -11  -3   4 5805.44 839.273   6
 -11   3   3 2819.88 585.862   5
  11   3  -3 2087.84 392.667   3
 -11  -3   3 2291.51 550.455   6
 -11   3   2 4096.29 690.534   5
  11   3  -2 4146.22 528.777   3
 -11  -3   2 4279.55 733.365   6
  11   3  -1-38.0259 90.3518   3
 -11  -3   1 67.3947 133.113   6
 -11   3   0-320.213 283.877   6
 -11  -3   0-377.089 280.765   5
  11   3   0 18.8214 45.9368   3
 -11  -3   0 48.8001 166.420   6
 -11   3  -1-97.0583 247.238   6
 -11  -3  -1-98.0612 167.823   5
  11   3   1 197.040 125.566   3
 -11  -3  -1 352.603 263.773   6
 -11   3  -2 3661.93 626.880   6
 -11  -3  -2 3227.67 626.538   5
 -11  -3  -2 4101.95 724.898   6
 -11   3  -3 621.645 266.829   6
 -11  -3  -3 909.961 311.287   5
 -11  -3  -3 561.296 276.650   6
 -11  -3  -4 10906.8 1142.64   5
 -11  -3  -4 9985.34 1113.93   6
 -11   3  -4 10831.6 1088.44   6
 -11   3  -5 631.604 264.047   6
 -11  -3  -5 639.229 268.800   5
 -11  -3  -5 973.768 390.001   6
 -11  -3  -6 4876.95 768.130   5
 -11  -3  -6 6091.63 872.931   6
 -11   3  -6 5229.90 751.723   6
 -11   3  -7-146.658 225.487   6
 -11  -3  -7 173.769 136.764   5
 -11  -3  -7 51.7628 88.4886   6
 -11   3  -8-225.289 165.199   6
 -11  -3  -8 57.0439 110.981   6
 -11   3  -9-101.155 163.306   6
 -11  -3  -9 147.553 146.338   5
 -11  -3  -9 168.677 160.225   4
 -11  -3  -9 446.034 302.506   6
 -11   3 -10 1368.09 376.898   6
 -11  -3 -10 2400.62 551.370   5
 -11  -3 -10 1907.09 519.601   4
 -11  -3 -10 2262.58 575.607   6
 -11   3 -11 207.420 183.908   6
 -11  -3 -11-106.112 157.033   5
 -11  -3 -11-56.5929 109.817   4
 -11  -3 -11 411.222 259.961   6
 -11   3 -12 430.830 185.708   6
 -11  -3 -12 875.521 331.143   5
 -11  -3 -12 880.765 409.675   4
 -11  -3 -12 756.310 360.052   6
 -11  -3 -13-81.9497 185.955   4
 -11  -3 -13 403.216 192.977   6
 -11  -3 -14 858.521 391.597   6
 -11  -3 -15-150.728 160.328   6
 -11  -3 -16 290.310 225.225   6
  11  -4 -21 188.793 161.572   2
  11  -4 -20 775.427 287.670   2
  11  -4 -19 438.869 270.181   2
 -11  -4  18 1549.08 472.455   6
  11  -4 -18 1269.71 349.890   2
 -11  -4  17 211.124 190.716   6
  11  -4 -17 228.756 130.015   2
 -11  -4  16-9.97598 150.661   6
  11  -4 -16 263.518 180.087   2
 -11   4  16 132.071 75.7481   5
 -11  -4  15-48.4607 177.544   6
  11  -4 -15-74.9990 142.667   2
 -11   4  15-48.1991 127.466   5
 -11  -4  14 654.576 286.905   6
  11  -4 -14 211.870 161.151   2
 -11   4  14 191.542 206.075   5
 -11  -4  13 2052.42 523.046   6
  11  -4 -13 1181.76 301.390   2
 -11   4  13 1555.98 433.557   5
 -11  -4  12 1176.87 404.009   6
 -11   4  12 1084.54 382.248   5
 -11   4  11 7914.01 944.163   5
 -11  -4  11 7506.86 995.068   6
 -11  -4  10 1482.06 446.014   6
 -11   4  10 1286.08 389.495   5
 -11  -4   9 3405.09 659.663   6
 -11   4   9 2539.58 532.352   5
 -11  -4   8-99.7132 221.549   6
 -11  -4   7 310.259 152.419   6
 -11  -4   6 462.440 259.858   6
 -11  -4   5 5229.45 832.428   6
  11   4  -4 4878.93 648.351   3
 -11  -4   4 4342.13 737.763   6
  11   4  -3 10142.9 913.354   3
  11   4  -3 8675.47 871.043   1
 -11  -4   3 10348.9 1136.15   6
  11   4  -2 2766.39 475.298   3
  11   4  -2 3452.44 562.154   1
 -11  -4   2 3365.67 651.202   6
  11   4  -1 197.567 150.021   1
  11   4  -1 35.9472 60.6513   3
 -11  -4   1 255.106 256.623   6
  11   4   0 147.910 186.864   1
  11   4   0 172.095 134.173   3
 -11  -4   0 118.903 102.514   6
  11   4   1 893.929 301.659   1
  11   4   1 830.189 257.713   3
 -11  -4  -1 578.171 306.189   6
 -11  -4  -2 1160.85 361.025   5
  11   4   2 1504.00 408.279   1
 -11  -4  -2 2229.25 567.287   6
 -11  -4  -3 1098.93 335.474   5
  11   4   3 1632.41 425.473   1
 -11  -4  -3 1075.57 395.565   6
 -11  -4  -4 4053.37 729.620   5
  11   4   4 3783.19 657.809   1
 -11  -4  -4 3702.26 720.042   6
 -11  -4  -5 755.298 319.234   5
 -11  -4  -5 442.049 275.991   4
  11   4   5 947.696 342.957   1
 -11  -4  -5 776.452 316.474   6
 -11  -4  -6 711.539 300.746   5
 -11  -4  -6 1144.28 412.159   4
  11   4   6 758.527 327.370   1
 -11  -4  -6 426.487 282.151   6
 -11  -4  -7 198.182 157.133   5
 -11  -4  -7 163.839 227.804   4
  11   4   7 336.008 199.447   1
 -11  -4  -8 19.8513 80.4212   5
 -11  -4  -8-164.846 231.921   4
  11   4   8-80.3436 245.220   1
 -11  -4  -9 855.819 304.507   5
 -11  -4  -9 1313.89 445.643   4
  11   4   9 1415.61 464.128   1
 -11  -4 -10 742.040 320.454   5
 -11  -4 -10 744.908 371.502   4
  11   4  10 468.741 270.020   1
 -11  -4 -11 1996.03 507.257   5
 -11  -4 -11 1536.22 537.445   4
 -11  -4 -12 45.9532 91.6388   5
 -11  -4 -12 460.607 379.023   4
 -11  -4 -13 1380.46 432.240   5
 -11  -4 -13 2033.52 621.274   4
 -11  -4 -15 244.543 207.348   6
 -11  -4 -16 426.382 159.123   6
 -11  -5  19 810.055 322.973   6
 -11  -5  18 196.573 124.000   6
  11  -5 -18 30.5503 76.5269   2
 -11  -5  17 1256.49 418.245   6
  11  -5 -17 1515.37 396.359   2
 -11  -5  16-372.178 234.476   6
  11  -5 -16 1545.41 363.997   2
 -11  -5  15 66.4696 201.958   6
  11  -5 -15 108.788 166.454   2
 -11  -5  14-37.2604 107.511   6
 -11  -5  13 2669.33 602.725   6
 -11  -5  12 355.948 324.208   6
 -11  -5  11 7969.55 1036.22   6
 -11  -5  10 927.779 402.751   6
 -11  -5   9 1220.02 273.208   4
 -11  -5   9 1486.42 421.810   6
 -11  -5   8-0.31344 45.4364   4
 -11  -5   8 110.167 158.986   6
 -11  -5   7 1023.22 285.800   4
  11   5  -7 1151.81 299.576   1
 -11  -5   7 1172.80 400.152   6
 -11  -5   6 244.298 143.700   4
  11   5  -6 68.2915 71.3910   1
 -11  -5   5 7962.56 844.236   4
 -11  -5   5 7828.16 1009.47   6
  11   5  -5 8945.31 862.993   1
 -11  -5   4 949.342 327.903   4
  11   5  -4 572.916 231.705   1
  11   5  -4 923.576 344.398   3
 -11  -5   4 1120.53 390.809   6
 -11  -5   3 9515.04 977.077   4
  11   5  -3 9682.79 958.895   3
 -11  -5   3 9568.30 1116.80   6
  11   5  -3 9713.51 934.717   1
 -11  -5   2 231.229 132.579   4
  11   5  -2 402.556 231.034   1
  11   5  -2 231.878 163.178   3
 -11  -5   2 467.737 313.161   6
 -11  -5   1 1358.73 375.998   4
  11   5  -1 1766.13 405.461   3
  11   5  -1 1865.06 424.981   1
 -11  -5   1 2346.56 535.861   6
 -11  -5   0 21.7791 78.2312   4
  11   5   0 145.912 58.4477   3
  11   5   0-55.4452 107.900   1
 -11  -5   0-38.2955 181.138   6
 -11  -5  -1 585.729 231.168   4
  11   5   1 596.336 228.353   3
  11   5   1 356.716 211.498   1
 -11  -5  -1 262.184 213.160   6
 -11  -5  -2-66.4393 116.606   4
  11   5   2 230.263 163.914   1
 -11  -5  -3 3220.14 646.025   4
  11   5   3 3415.35 630.821   1
 -11  -5  -4 317.171 204.545   5
 -11  -5  -4 554.704 343.346   4
  11   5   4 798.376 346.192   1
 -11  -5  -5 2159.05 535.671   5
 -11  -5  -5 2626.11 608.771   4
  11   5   5 2964.51 598.948   1
 -11  -5  -6 601.474 283.808   5
 -11  -5  -6 1120.58 402.826   4
  11   5   6 1092.10 375.224   1
 -11  -5  -7-130.730 223.537   5
 -11  -5  -7 101.296 183.424   4
  11   5   7 204.680 195.442   1
 -11  -5  -8-148.906 217.426   5
 -11  -5  -8 185.193 178.869   4
  11   5   8 272.516 179.526   1
 -11  -5  -9 1415.57 459.851   5
 -11  -5  -9 1735.18 523.267   4
  11   5   9 1025.16 402.717   1
 -11  -5 -10-159.469 161.800   5
 -11  -5 -10 50.5314 118.910   4
  11   5  10-160.593 142.442   1
 -11  -5 -11 2077.19 524.401   5
 -11  -5 -11 2377.40 643.715   4
  11   5  11 3195.76 727.393   1
 -11  -5 -12 244.743 184.786   5
 -11  -5 -12 725.092 387.525   4
  11   5  12 861.431 402.191   1
 -11  -5 -13 1355.75 411.598   5
 -11  -6  19 982.460 380.482   6
 -11  -6  18 403.858 215.480   6
 -11  -6  17 982.335 407.545   6
 -11  -6  16-44.3657 161.031   6
 -11  -6  15 144.658 187.517   6
 -11  -6  14 20.0512 171.300   6
 -11  -6  13 2367.66 589.027   6
 -11  -6  12 1013.29 397.774   6
 -11  -6  11 2832.33 628.994   6
 -11  -6  10 575.919 314.619   6
 -11  -6   9 423.887 193.638   6
  11   6  -8 163.072 112.203   1
 -11  -6   8 186.796 194.281   6
 -11  -6   7 355.227 149.836   4
  11   6  -7 226.436 160.118   1
 -11  -6   7 306.335 207.975   6
 -11  -6   6 155.768 127.241   4
  11   6  -6 269.740 188.632   1
 -11  -6   6 134.977 189.054   6
 -11  -6   5 2522.05 463.191   4
  11   6  -5 2319.16 504.715   3
  11   6  -5 2248.97 452.498   1
 -11  -6   5 2652.69 611.215   6
 -11  -6   4 2801.91 523.613   4
  11   6  -4 2247.14 501.036   3
  11   6  -4 1757.80 405.253   1
 -11  -6   4 2113.22 559.047   6
 -11  -6   3 2404.15 489.316   4
  11   6  -3 3544.10 620.167   3
  11   6  -3 2099.40 462.514   1
 -11  -6   3 2750.52 617.217   6
 -11  -6   2 1120.59 347.783   4
  11   6  -2 1262.16 371.608   3
 -11  -6   2 1946.47 518.844   6
  11   6  -2 1275.19 364.403   1
 -11  -6   1 823.084 308.989   4
  11   6  -1 620.808 277.567   3
  11   6  -1 731.120 287.771   1
 -11  -6   0 230.393 174.736   4
  11   6   0 63.1000 87.4567   3
  11   6   0 352.201 251.170   1
 -11  -6  -1 565.328 252.317   4
  11   6   1 975.429 342.909   3
  11   6   1 782.903 312.276   1
 -11  -6  -2 1366.66 435.093   4
  11   6   2 1304.36 371.618   3
  11   6   2 1982.66 489.556   1
  11   6   3 5022.58 789.715   1
 -11  -6  -3 5814.63 895.089   4
 -11  -6  -4 2101.06 535.200   4
  11   6   4 3138.01 638.206   1
  11   6   5 5210.10 832.841   1
 -11  -6  -5 6733.72 930.513   5
 -11  -6  -5 5198.02 870.289   4
 -11  -6  -6 624.796 308.048   5
 -11  -6  -6 1021.91 396.113   4
  11   6   6 1471.79 474.816   1
 -11  -6  -7 618.341 284.391   5
 -11  -6  -7 941.951 362.131   4
  11   6   7 1045.98 428.888   1
 -11  -6  -8-41.0975 161.728   5
 -11  -6  -8 256.859 277.597   4
  11   6   8 91.1929 99.3114   1
 -11  -6  -9 82.9805 114.772   5
 -11  -6  -9 646.109 352.605   4
  11   6   9 589.870 338.263   1
 -11  -6 -10 558.531 281.715   5
 -11  -6 -10-5.21124 163.979   4
  11   6  10 667.208 342.891   1
 -11  -6 -11 565.422 279.994   5
 -11  -6 -11 966.237 403.817   4
  11   6  11 662.523 319.943   1
 -11  -6 -12-92.5154 122.307   5
 -11  -7  18 463.092 299.075   6
 -11  -7  17 174.695 193.260   6
 -11  -7  16 251.964 178.509   6
 -11  -7  15 178.280 184.874   6
 -11  -7  14 39.7742 145.800   6
 -11  -7  13 1052.21 419.340   6
 -11  -7  12 2991.93 661.911   6
 -11  -7  11 393.866 265.428   6
 -11  -7  10 5346.25 880.903   6
 -11  -7   9 357.852 231.041   6
 -11  -7   8 1028.23 383.925   6
 -11  -7   7-261.086 254.782   6
  11   7  -7-117.176 160.468   1
  11   7  -6 447.157 208.293   1
 -11  -7   6 762.413 343.001   6
  11   7  -5 444.381 231.260   1
 -11  -7   5 324.116 156.516   4
  11   7  -5 1272.24 387.145   3
 -11  -7   5 889.795 405.996   6
  11   7  -4 5367.71 723.252   1
 -11  -7   4 5510.58 717.307   4
  11   7  -4 6879.72 903.529   3
 -11  -7   4 5495.46 902.772   6
  11   7  -3 494.595 224.971   1
 -11  -7   3 1141.78 346.818   4
  11   7  -3 827.868 336.437   3
  11   7  -2 2383.36 489.997   1
 -11  -7   2 2105.20 465.372   4
  11   7  -2 1916.87 464.317   3
  11   7  -1 235.021 194.383   1
 -11  -7   1 372.318 221.429   4
  11   7  -1 89.4431 116.461   3
  11   7   0-35.5076 89.7383   1
  11   7   0 210.211 138.198   3
  11   7   1 171.956 120.381   1
 -11  -7  -1 303.150 208.174   4
  11   7   1 522.616 272.476   3
  11   7   2 1971.36 494.419   1
 -11  -7  -2 1307.13 384.224   4
  11   7   2 1438.08 390.947   3
  11   7   3 1467.90 455.139   1
 -11  -7  -3 1809.28 503.490   4
  11   7   4 2926.69 646.096   1
 -11  -7  -4 2134.69 540.192   4
  11   7   5 1226.37 429.688   1
 -11  -7  -5 1105.73 408.543   4
 -11  -7  -6-32.2210 105.392   4
  11   7   6 315.415 272.974   1
 -11  -7  -7-28.3042 85.1546   5
 -11  -7  -7 341.564 272.816   4
  11   7   7 37.9856 129.128   1
 -11  -7  -8 306.075 226.988   5
 -11  -7  -8 195.802 184.612   4
  11   7   8 439.174 274.973   1
 -11  -7  -9-156.544 209.455   5
 -11  -7  -9-54.6931 213.657   4
  11   7   9 304.014 224.913   1
 -11  -7 -10 779.000 327.818   5
 -11  -7 -10 631.351 329.521   4
 -11  -7 -11-197.510 242.642   5
 -11  -8  16 389.951 316.420   6
 -11  -8  15-119.797 149.827   6
 -11  -8  14 375.795 278.787   6
 -11  -8  13 530.935 302.795   6
 -11  -8  12 1699.89 505.890   6
 -11  -8  11 91.0911 108.080   6
 -11  -8  10 1324.42 416.982   6
 -11  -8   9 250.312 139.372   6
 -11  -8   8-189.466 236.911   6
  11   8  -7 13.2273 123.719   3
 -11  -8   7-169.826 280.275   6
  11   8  -6 1610.06 382.808   1
  11   8  -6 1571.39 475.257   3
 -11  -8   6 2209.44 591.890   6
  11   8  -5 50.5884 130.045   1
  11   8  -5 379.808 283.828   3
 -11  -8   5 215.219 207.839   6
  11   8  -4 3232.89 585.850   1
  11   8  -4 3384.16 666.141   3
  11   8  -3 130.053 105.184   1
  11   8  -3 319.168 266.881   3
  11   8  -2 1441.32 410.538   1
 -11  -8   2 1677.24 413.663   4
  11   8  -2 1667.14 448.798   3
  11   8  -1 52.2791 187.847   1
 -11  -8   1 66.8004 164.795   4
  11   8  -1 306.304 225.872   3
  11   8   0-106.683 161.582   1
 -11  -8   0 402.136 261.409   4
  11   8   0 96.0709 295.975   3
  11   8   1 126.316 135.589   1
 -11  -8  -1 401.525 257.414   4
  11   8   1 195.821 206.665   3
  11   8   2 470.789 243.450   1
 -11  -8  -2 654.310 275.548   4
  11   8   2 320.863 144.726   3
  11   8   3 437.863 268.205   1
 -11  -8  -3 132.634 134.817   4
  11   8   4 1023.87 377.969   1
 -11  -8  -4 935.881 344.772   4
  11   8   5 234.798 192.562   1
 -11  -8  -5 613.249 325.810   4
  11   8   6 11.6232 89.4550   1
 -11  -8  -6 144.515 139.219   4
  11   8   7-143.166 233.084   1
 -11  -8  -7 510.832 291.609   4
 -11  -8  -8 214.511 131.157   5
 -11  -8  -8 79.6880 181.198   4
 -11  -8  -9 162.909 162.299   5
 -11  -8  -9-60.2323 128.252   4
 -11  -8 -10 541.347 267.448   5
 -11  -9  15 97.2624 141.030   6
 -11  -9  14-255.388 207.698   6
 -11  -9  13 821.234 357.813   6
 -11  -9  12 1125.38 439.901   6
 -11  -9  11 721.943 308.222   6
 -11  -9  10 272.447 241.225   6
  11   9  -9 844.172 359.879   3
 -11  -9   9-65.3189 133.190   6
  11   9  -8 219.923 212.703   3
 -11  -9   8 197.435 219.146   6
  11   9  -7-143.761 222.808   3
 -11  -9   7-147.770 146.311   6
  11   9  -6 499.782 256.477   1
  11   9  -6 5.66582 159.060   3
  11   9  -5 736.664 292.253   1
  11   9  -5 1021.09 364.119   3
  11   9  -4 699.996 298.724   3
  11   9  -4 531.315 276.706   1
  11   9  -3 1690.47 504.225   3
  11   9  -3 2139.06 509.959   1
  11   9  -2 455.777 268.760   3
  11   9  -2 1123.83 386.896   1
  11   9  -1 31.8257 97.4479   3
  11   9  -1 547.049 255.128   1
  11   9   0-183.526 176.677   3
  11   9   0 13.7161 207.199   1
  11   9   1 135.443 154.693   3
  11   9   1 1.76855 96.9832   1
  11   9   2 240.396 200.782   1
  11   9   3 2111.02 567.879   1
  11   9   4 1529.76 465.202   1
  11   9   5 1383.51 490.865   1
 -11  -9  -8-622.326 298.845   5
 -11  -9  -9 325.161 213.692   5
 -11 -10  13 424.381 314.897   6
 -11 -10  12-300.569 230.911   6
 -11 -10  11 1645.69 516.127   6
 -11 -10  10-327.129 243.159   6
  11  10  -9 1061.43 429.234   3
 -11 -10   9 1303.28 466.882   6
  11  10  -8-106.369 210.938   3
 -11 -10   8-3.65784 176.793   6
  11  10  -7-82.4420 132.315   3
  11  10  -6-215.210 233.997   3
  11  10  -5 1406.62 478.057   3
  11  10  -4 6.69008 138.108   3
  11  10  -4-109.007 130.808   1
  11  10  -3 1862.19 531.645   3
  11  10  -3 1807.00 485.591   1
  11  10  -2 433.324 305.167   3
  11  10  -2-54.1698 82.4149   1
  11  10  -1 64.1281 135.989   3
  11  10  -1 75.6233 171.282   1
  11  10   0 92.7069 230.964   3
  11  10   0-65.4549 124.325   1
  11  10   1 953.348 411.239   3
  11  10   1 1026.18 405.374   1
  11  10   2 66.5018 134.001   1
  11  10   3 2106.51 589.501   1
  11  11  -3 588.757 279.450   1
  11  11  -2 376.202 197.130   1
  11  11  -1-239.684 201.459   1
 -12   0  20 726.350 315.879   5
 -12   0  19 671.392 359.887   5
 -12   0  18 2374.08 557.005   5
 -12   0  17 132.543 177.824   5
 -12   0  16 790.828 351.851   5
 -12   0  15 294.641 256.756   5
 -12   0  14 856.602 368.198   5
 -12   0  13 129.564 129.216   5
 -12   0  12 12092.7 1262.45   5
 -12   0  11 133.863 220.527   6
 -12   0  11 23.7876 181.536   5
 -12   0  10 9258.02 1090.93   5
 -12   0  10 9505.83 1149.09   6
 -12   0   9 39.8436 179.521   6
 -12   0   9 372.077 274.716   5
 -12   0   8 386.130 171.944   6
 -12   0   8 651.988 302.210   5
 -12   0   7-221.040 241.373   6
 -12   0   7-447.780 250.276   5
 -12   0   6 4003.82 724.757   6
 -12   0   6 3880.71 713.383   5
 -12   0   5 44.0164 125.672   6
 -12   0   5-68.8128 117.802   5
 -12   0   4 10429.4 1153.63   5
 -12   0   4 7569.96 1000.84   6
 -12   0   3 149.389 166.012   6
 -12   0   3 378.904 227.150   5
 -12   0   2 594.290 256.580   6
 -12   0   2 739.333 294.980   5
 -12   0   1-46.3529 104.879   6
 -12   0   1 60.7583 160.607   5
 -12   0   0 1241.86 419.848   6
 -12   0   0 971.085 391.822   5
 -12   0  -1-157.415 142.512   6
 -12   0  -1 110.294 191.886   5
 -12   0  -2 3630.72 688.292   6
 -12   0  -2 2640.92 583.274   5
 -12   0  -3-48.2826 169.428   6
 -12   0  -3-224.669 216.487   5
 -12   0  -4 1471.41 449.653   6
 -12   0  -4 1080.51 381.166   5
 -12   0  -5-114.188 204.931   6
 -12   0  -5-346.764 224.798   5
 -12   0  -6-36.3782 181.461   6
 -12   0  -6-1000.43 366.827   5
 -12   0  -7 106.854 159.913   6
 -12   0  -8 378.055 237.453   6
 -12   0  -9 566.549 305.351   6
 -12   0 -10 2216.71 550.979   6
 -12   0 -11 202.805 168.851   6
 -12   0 -12 1592.67 456.357   6
 -12   0 -13-160.801 160.206   6
 -12   1  19 1711.45 451.965   5
 -12   1  18 640.975 241.059   5
 -12   1  17 437.194 226.208   5
 -12   1  16 4.89607 82.5948   5
 -12   1  15-531.990 267.215   5
 -12   1  14 169.110 133.046   5
 -12  -1  13 282.657 111.059   6
 -12   1  13 148.920 116.147   5
 -12  -1  12 4956.15 844.560   6
 -12   1  12 5402.93 818.664   5
 -12  -1  11 302.376 251.778   6
 -12  -1  11 41.3780 217.390   5
 -12   1  11-106.048 186.697   5
 -12  -1  10 3059.29 660.557   6
 -12  -1  10 3317.39 677.462   5
 -12   1  10 2417.56 549.264   5
 -12  -1   9 490.902 248.537   6
 -12  -1   9 474.079 260.753   5
 -12   1   9 521.083 306.082   5
 -12  -1   8 147.491 182.095   6
 -12   1   8-73.1380 155.532   6
 -12  -1   8-67.4957 119.247   5
 -12   1   8-127.188 155.336   5
 -12  -1   7 142.959 106.514   6
 -12   1   7 58.1573 159.062   6
 -12   1   7 358.679 173.823   5
 -12  -1   6 1549.01 464.884   6
 -12   1   6 1319.82 395.367   6
 -12  -1   6 1883.27 499.986   5
 -12   1   6 2116.77 526.306   5
 -12  -1   5 1243.98 427.072   6
 -12   1   5 607.947 210.117   6
 -12  -1   5 496.186 161.801   5
 -12   1   5 696.887 358.371   5
 -12  -1   4 3703.22 695.527   6
 -12   1   4 4057.70 726.693   6
 -12  -1   4 3335.89 668.228   5
 -12   1   4 3459.39 653.142   5
 -12  -1   3 3844.07 711.530   6
 -12  -1   3 3807.78 715.983   5
 -12   1   3 4361.05 730.587   5
 -12   1   3 4898.52 808.792   6
 -12  -1   2 444.411 275.655   6
 -12   1   2 609.861 313.759   6
 -12  -1   2 486.551 266.327   5
 -12   1   2 282.048 224.273   5
 -12  -1   1 728.027 330.342   6
 -12   1   1 491.710 278.317   6
 -12  -1   1 1010.99 375.194   5
 -12   1   1 1031.37 319.828   5
 -12  -1   0 563.140 277.904   6
 -12   1   0 883.424 347.392   6
 -12  -1   0 437.131 226.962   5
 -12   1   0 795.890 328.532   5
 -12  -1  -1-20.8855 98.2759   6
 -12   1  -1-128.916 147.838   6
 -12  -1  -1-68.2115 170.654   5
 -12   1  -1 32.6658 104.044   5
 -12  -1  -2 3409.47 691.917   6
 -12   1  -2 2782.57 606.757   6
 -12  -1  -2 2465.96 583.903   5
 -12   1  -2 2898.87 606.686   5
 -12  -1  -3 2818.24 616.836   6
 -12   1  -3 1889.21 480.200   6
 -12  -1  -3 2313.50 562.456   5
 -12   1  -3 2142.79 529.392   5
 -12  -1  -4 1768.61 492.884   6
 -12   1  -4 2445.06 554.557   6
 -12   1  -4 3886.16 750.579   5
 -12  -1  -4 3114.54 644.594   5
 -12  -1  -5 2649.47 604.782   6
 -12   1  -5 2302.84 540.944   6
 -12  -1  -5 2730.80 591.544   5
 -12  -1  -6 453.369 251.277   6
 -12   1  -6 181.364 100.987   6
 -12  -1  -6 361.394 212.349   5
 -12  -1  -7 88.8919 145.813   6
 -12   1  -7-21.6656 120.794   6
 -12  -1  -7-75.9092 141.327   5
 -12  -1  -8 102.320 138.774   5
 -12  -1  -8 462.699 252.142   6
 -12   1  -9 344.133 186.568   6
 -12  -1  -9 844.610 349.042   6
 -12   1 -10 833.162 311.245   6
 -12  -1 -10 1157.76 394.170   6
 -12   1 -11 329.922 247.288   6
 -12  -1 -11 340.082 266.965   6
 -12  -1 -12 431.256 251.781   6
 -12   1 -12 540.487 264.360   6
 -12  -1 -13 253.543 212.024   6
 -12  -1 -14-83.2962 124.115   6
 -12   2  19 831.605 324.230   5
 -12   2  18 705.931 280.639   5
 -12   2  17 772.394 307.958   5
 -12   2  16 9.42645 97.2180   5
 -12  -2  15 139.599 149.186   6
 -12   2  15 58.2866 165.297   5
 -12  -2  14-8.17754 243.595   6
 -12   2  14 98.9337 82.7054   5
 -12  -2  13 2194.45 544.251   6
 -12   2  13 2561.20 565.291   5
 -12  -2  12 51.2210 157.582   6
 -12   2  12-21.1239 96.6773   5
 -12  -2  11 4550.68 813.649   6
 -12   2  11 4382.70 741.171   5
 -12  -2  10 518.260 235.686   6
 -12   2  10 31.6689 165.836   5
 -12  -2   9 1104.86 385.224   6
 -12   2   9 974.513 324.000   5
 -12  -2   8 331.436 201.729   6
 -12   2   8-131.521 190.303   5
 -12  -2   7-17.0594 163.771   6
 -12   2   7-79.3856 187.373   5
 -12  -2   6 137.917 143.778   6
 -12   2   6-91.8686 185.294   5
 -12  -2   5 2554.99 589.068   6
 -12   2   5 1935.58 511.141   6
 -12  -2   5 2210.07 544.632   5
 -12   2   5 3111.90 614.858   5
 -12  -2   4 927.411 325.553   6
 -12   2   4 585.998 245.701   6
 -12  -2   4 1185.19 387.996   5
 -12   2   4 792.546 307.148   5
 -12  -2   3 4931.41 809.839   6
 -12  -2   3 5765.17 873.119   5
 -12   2   3 4520.45 754.842   5
 -12   2   3 5489.00 851.826   6
 -12  -2   2 1405.11 436.366   6
 -12   2   2 1194.69 375.989   6
 -12  -2   2 2348.47 563.380   5
 -12   2   2 1434.11 416.138   5
 -12  -2   1-14.1815 140.472   6
 -12   2   1-83.7018 203.713   6
 -12  -2   1-295.316 208.620   5
 -12   2   1 45.2294 102.225   5
 -12   2   0-36.8246 123.698   6
 -12  -2   0 258.651 155.455   5
 -12   2   0 323.873 218.367   5
 -12  -2   0 428.125 248.347   6
 -12   2  -1 678.738 313.307   6
 -12  -2  -1 1349.76 403.425   5
 -12   2  -1 1831.00 512.027   5
 -12  -2  -1 982.637 361.759   6
 -12   2  -2-26.2429 148.940   6
 -12  -2  -2 426.801 243.177   5
 -12  -2  -2 231.707 100.783   6
 -12   2  -3 3238.39 637.930   6
 -12  -2  -3 4118.81 736.401   5
 -12  -2  -3 3336.68 677.434   6
 -12   2  -4 1868.49 479.974   6
 -12  -2  -4 1118.87 388.212   5
 -12  -2  -4 1708.88 487.962   6
 -12   2  -5 2918.25 605.841   6
 -12  -2  -5 2960.83 626.681   5
 -12  -2  -5 3328.77 679.272   6
 -12   2  -6 695.691 270.173   6
 -12  -2  -6 435.744 209.244   5
 -12  -2  -6 335.334 203.126   6
 -12   2  -7 67.2142 177.230   6
 -12  -2  -7 85.5898 140.895   5
 -12  -2  -7 139.996 173.203   6
 -12   2  -8 73.5417 172.934   6
 -12  -2  -8 267.668 201.465   5
 -12  -2  -8 106.627 123.613   6
 -12   2  -9 757.276 297.487   6
 -12  -2  -9 707.897 357.052   5
 -12  -2  -9 1139.92 425.310   6
 -12   2 -10 174.391 130.630   6
 -12  -2 -10 228.488 191.532   5
 -12  -2 -10 481.721 299.528   6
 -12   2 -11 335.321 218.229   6
 -12  -2 -11 649.395 325.766   6
 -12   2 -12 19.6259 89.2973   6
 -12  -2 -12-21.2970 112.261   6
 -12  -2 -13-87.1201 135.226   6
 -12  -2 -14 949.232 384.407   6
 -12  -2 -15 383.335 263.838   6
 -12   3  18 236.227 223.267   5
 -12   3  17 426.552 208.654   5
 -12  -3  16 139.410 157.512   6
 -12   3  16-171.845 240.723   5
 -12  -3  15-52.7573 99.5771   6
 -12   3  15-48.3040 129.503   5
 -12  -3  14-5.11975 186.171   6
 -12   3  14 71.5538 80.9905   5
 -12  -3  13 2599.38 634.884   6
 -12   3  13 2997.68 629.283   5
 -12  -3  12 1210.65 420.898   6
 -12   3  12 1869.26 625.421   5
 -12   3  11 9320.19 1068.39   5
 -12  -3  11 9422.80 1175.71   6
 -12  -3  10 555.588 300.018   6
 -12   3  10 373.198 190.210   5
 -12  -3   9 3840.82 756.011   6
 -12   3   9 3313.86 645.951   5
 -12  -3   8-155.251 150.460   6
 -12   3   8-144.092 178.964   5
 -12  -3   7 138.766 217.011   6
 -12   3   7 110.592 132.118   5
 -12  -3   6 325.497 225.437   6
 -12   3   6 589.476 245.660   5
 -12  -3   5 3004.03 642.910   6
 -12   3   5 3748.13 678.927   5
 -12  -3   4 726.725 311.689   6
 -12   3   4 320.587 210.448   5
  12   3  -4 208.392 135.211   3
 -12   3   3 1511.32 432.807   5
 -12  -3   3 1679.97 507.932   6
 -12  -3   2-336.875 315.227   5
 -12  -3   2 132.758 189.205   6
 -12  -3   1 505.188 267.307   5
 -12  -3   1 574.764 283.008   6
 -12  -3   0 134.938 110.155   5
 -12  -3   0 404.204 260.323   6
 -12  -3  -1 2166.38 531.319   5
 -12  -3  -1 3063.07 642.268   6
 -12   3  -2 59.5420 96.5724   6
 -12  -3  -2-114.089 222.501   5
 -12  -3  -2 248.970 284.115   6
 -12   3  -3 2393.76 559.432   6
 -12  -3  -3 1645.77 473.040   5
 -12  -3  -3 2789.29 623.354   6
 -12   3  -4-110.135 233.700   6
 -12  -3  -4-61.8441 121.474   5
 -12  -3  -4 97.4084 100.228   6
 -12   3  -5 440.604 216.645   6
 -12  -3  -5 470.415 244.935   5
 -12  -3  -5 586.153 289.933   6
 -12   3  -6 185.666 103.763   6
 -12  -3  -6 150.205 188.508   5
 -12  -3  -6-45.2946 117.489   6
 -12   3  -7 364.984 233.030   6
 -12  -3  -7 138.982 93.1590   5
 -12  -3  -7 193.992 175.369   6
 -12   3  -8-17.3403 146.219   6
 -12  -3  -8 177.733 171.179   5
 -12  -3  -8-60.9009 223.703   6
 -12   3  -9 1216.80 364.935   6
 -12  -3  -9 820.628 388.229   5
 -12  -3  -9 361.402 284.581   4
 -12  -3  -9 1179.23 360.166   6
 -12   3 -10 147.162 93.6541   6
 -12  -3 -10-45.7216 185.778   5
 -12  -3 -10 129.713 162.518   4
 -12  -3 -10 123.590 199.465   6
 -12  -3 -11 862.974 341.856   5
 -12  -3 -11 1301.36 479.856   4
 -12  -3 -11 1065.29 411.587   6
 -12  -3 -12 157.992 169.721   6
 -12  -3 -13 291.224 230.177   6
 -12  -3 -14 170.358 200.406   6
 -12  -4  18 1705.69 528.950   6
 -12  -4  17 452.764 301.765   6
 -12  -4  16-13.7849 185.111   6
 -12  -4  15-37.2035 194.178   6
 -12  -4  14 249.770 239.293   6
 -12   4  14 945.590 346.832   5
 -12  -4  13 1878.68 525.954   6
 -12   4  13 2498.90 553.817   5
 -12  -4  12 994.306 391.188   6
 -12   4  12 1740.78 485.942   5
 -12  -4  11 3458.75 729.174   6
 -12  -4  10 128.147 167.424   6
 -12  -4   9 889.948 378.943   6
 -12  -4   8 189.759 215.637   6
 -12  -4   7 757.700 352.518   6
 -12  -4   6 893.110 364.373   6
  12   4  -5 1784.47 413.256   3
 -12  -4   5 1854.58 520.049   6
  12   4  -4 3140.06 518.254   3
 -12  -4   4 3146.44 650.065   6
  12   4  -3 365.751 205.589   3
 -12  -4   3 428.085 287.655   6
 -12  -4   2 2739.48 614.452   6
 -12  -4   1 73.1747 119.958   6
 -12  -4   0 405.690 243.825   5
 -12  -4   0-142.572 158.471   6
 -12  -4  -1 407.635 218.339   5
 -12  -4  -1 409.253 190.039   6
 -12  -4  -2 1490.29 449.579   5
 -12  -4  -2 737.425 309.244   6
 -12  -4  -3 937.586 379.967   5
 -12  -4  -3 694.763 288.651   6
 -12  -4  -4 2843.95 614.784   5
 -12  -4  -4 2135.05 544.883   6
 -12  -4  -5-40.9289 122.606   5
 -12  -4  -5 150.947 180.091   4
 -12  -4  -5-32.9083 197.631   6
 -12  -4  -6 267.910 205.357   5
 -12  -4  -6 803.608 379.792   4
 -12  -4  -6 935.013 401.880   6
 -12  -4  -7-226.709 187.295   5
 -12  -4  -7-76.8571 204.522   4
 -12  -4  -7-24.0559 197.745   6
 -12  -4  -8 176.347 113.718   5
 -12  -4  -8 302.419 235.616   4
 -12  -4  -8 348.803 244.583   6
 -12  -4  -9-8.98273 161.815   5
 -12  -4  -9 367.275 223.863   4
 -12  -4  -9 323.499 236.412   6
 -12  -4 -10 1023.82 389.177   5
 -12  -4 -10 700.624 348.436   4
 -12  -4 -10 1690.03 531.418   6
 -12  -4 -11 249.789 211.558   5
 -12  -4 -11 423.573 281.085   6
 -12  -4 -12 268.691 168.683   5
 -12  -4 -12 74.3445 201.500   6
 -12  -4 -13 337.943 305.941   6
 -12  -5  19-139.540 216.995   6
 -12  -5  18 959.038 386.035   6
 -12  -5  17-150.796 170.630   6
 -12  -5  16 25.2991 137.434   6
 -12  -5  15 194.832 167.151   6
 -12  -5  14 706.318 358.937   6
 -12  -5  13-59.2509 127.069   6
 -12  -5  12 2228.27 613.389   6
 -12  -5  11 340.938 245.223   6
 -12  -5  10 1079.00 407.145   6
 -12  -5   9 674.342 347.489   6
 -12  -5   8 175.094 221.127   6
 -12  -5   7 77.0532 104.336   4
 -12  -5   7-104.812 221.173   6
 -12  -5   6 1451.61 364.370   4
 -12  -5   6 1636.29 513.340   6
 -12  -5   5-78.5393 126.479   4
  12   5  -5 83.4940 74.4577   3
 -12  -5   5 156.274 228.170   6
 -12  -5   4 5749.60 787.652   4
  12   5  -4 7455.80 869.805   3
 -12  -5   4 5983.92 939.013   6
 -12  -5   3 308.080 202.926   4
  12   5  -3-69.7775 90.1735   3
  12   5  -3 370.417 199.724   1
 -12  -5   3 531.880 319.166   6
 -12  -5   2 3852.50 669.301   4
  12   5  -2 4032.86 615.321   3
  12   5  -2 4254.60 664.704   1
 -12  -5   2 3851.26 749.622   6
 -12  -5   1 339.546 191.245   4
  12   5  -1 866.057 308.067   1
 -12  -5   1 637.422 319.645   6
  12   5   0-89.6750 75.6687   1
 -12  -5   0-122.261 176.894   6
 -12  -5  -1 241.265 288.976   4
  12   5   1 109.885 138.183   1
 -12  -5  -1 25.9917 133.581   6
 -12  -5  -2 3042.94 633.600   5
 -12  -5  -2 1936.01 523.586   4
  12   5   2 2500.65 559.225   1
 -12  -5  -2 3308.79 723.397   6
 -12  -5  -3 491.615 281.899   5
 -12  -5  -3 92.5380 188.892   4
  12   5   3-150.243 168.588   1
 -12  -5  -3 131.905 175.344   6
 -12  -5  -4 2792.24 657.773   5
 -12  -5  -4 3653.27 727.161   4
  12   5   4 3375.80 663.398   1
 -12  -5  -4 2208.44 588.107   6
 -12  -5  -5 237.168 228.934   5
 -12  -5  -5 57.0824 161.188   4
  12   5   5 180.287 246.907   1
 -12  -5  -5 76.6858 116.353   6
 -12  -5  -6 305.337 173.223   5
 -12  -5  -6 604.747 336.758   4
  12   5   6 261.967 194.811   1
 -12  -5  -6 384.542 285.644   6
 -12  -5  -7 161.216 182.027   5
 -12  -5  -7 96.9547 218.821   4
  12   5   7 167.406 208.380   1
 -12  -5  -7 71.3049 144.910   6
 -12  -5  -8 620.631 302.732   5
 -12  -5  -8 481.644 315.502   4
 -12  -5  -8 1594.39 484.743   6
  12   5   8 689.564 365.364   1
 -12  -5  -9 455.428 332.352   4
  12   5   9 438.217 320.159   1
 -12  -5  -9 131.272 159.480   6
 -12  -5 -10 1506.30 494.784   5
 -12  -5 -10 1878.06 575.348   4
 -12  -5 -10 3230.55 771.865   6
 -12  -5 -11 207.509 165.233   5
 -12  -5 -11-280.702 302.612   6
 -12  -5 -12 388.026 253.957   5
 -12  -6  19 151.767 139.237   6
 -12  -6  18 324.098 238.624   6
 -12  -6  17 162.938 168.777   6
 -12  -6  16 172.858 234.408   6
 -12  -6  15 86.0622 103.422   6
 -12  -6  14 916.440 373.225   6
 -12  -6  13 984.385 400.774   6
 -12  -6  12 3216.01 717.882   6
 -12  -6  11 1983.86 577.628   6
 -12  -6  10 4124.69 812.521   6
 -12  -6   9 499.191 327.642   6
 -12  -6   8 481.641 293.310   6
 -12  -6   7 206.092 227.314   6
  12   6  -6 543.022 234.316   1
  12   6  -6 671.426 268.355   3
 -12  -6   6 373.846 191.319   6
 -12  -6   5 660.915 256.269   4
  12   6  -5 573.756 230.936   1
  12   6  -5 833.973 292.923   3
 -12  -6   5 1082.30 395.642   6
 -12  -6   4 2565.42 516.881   4
  12   6  -4 1692.90 416.047   1
  12   6  -4 3154.68 597.072   3
 -12  -6   4 1519.90 485.340   6
 -12  -6   3 36.0506 129.027   4
  12   6  -3 436.425 250.420   1
  12   6  -3-88.9083 103.877   3
 -12  -6   3 130.691 212.423   6
 -12  -6   2 563.800 266.507   4
  12   6  -2 281.376 181.289   1
  12   6  -2 433.273 217.123   3
 -12  -6   2 391.874 258.703   6
 -12  -6   1 123.385 170.217   4
  12   6  -1-2.24957 163.189   3
  12   6  -1 315.152 229.959   1
 -12  -6   1 37.5853 123.137   6
 -12  -6   0 1655.76 454.112   4
  12   6   0 1175.39 384.454   1
 -12  -6   0 1526.57 487.981   6
 -12  -6  -1 793.557 335.436   4
  12   6   1 1007.91 362.628   1
 -12  -6  -1 630.956 344.035   6
 -12  -6  -2 2658.13 610.704   4
  12   6   2 2307.93 547.965   1
 -12  -6  -2 2745.03 663.205   6
 -12  -6  -3 505.294 286.907   4
  12   6   3 661.004 309.766   1
 -12  -6  -3 452.688 292.112   6
 -12  -6  -4 1109.20 410.870   5
 -12  -6  -4 1647.61 496.836   4
  12   6   4 1299.40 414.280   1
 -12  -6  -5 31.0948 122.068   5
 -12  -6  -5 228.245 180.327   4
  12   6   5 258.804 166.463   1
 -12  -6  -6 38.0159 141.201   5
 -12  -6  -6 353.983 213.843   4
  12   6   6-66.3034 221.025   1
 -12  -6  -7 304.610 225.034   4
  12   6   7-264.314 258.422   1
 -12  -6  -8 279.223 124.514   5
 -12  -6  -8 193.375 240.361   4
  12   6   8 252.883 141.189   1
 -12  -6  -9 15.0165 212.214   5
 -12  -6  -9 724.905 355.607   4
 -12  -6 -10 565.089 259.452   5
 -12  -6 -11 150.812 156.755   5
 -12  -7  17 630.017 335.800   6
 -12  -7  16-155.411 179.615   6
 -12  -7  15 189.643 188.606   6
 -12  -7  14 29.1674 225.358   6
 -12  -7  13 1259.68 468.872   6
 -12  -7  12 1072.02 428.150   6
 -12  -7  11 1273.55 470.107   6
 -12  -7  10 1661.40 520.200   6
 -12  -7   9 92.1608 210.456   6
 -12  -7   8-153.426 135.584   6
  12   7  -7 310.294 258.986   3
 -12  -7   7-142.863 131.995   6
  12   7  -6 101.120 122.881   3
 -12  -7   6-10.1744 108.465   6
  12   7  -5 1705.87 471.035   3
  12   7  -5 1180.32 346.443   1
 -12  -7   5 1374.53 471.586   6
  12   7  -4-77.0822 110.526   3
  12   7  -4 145.070 148.690   1
 -12  -7   3 1399.75 396.641   4
  12   7  -3 1197.46 375.806   3
  12   7  -3 1942.96 458.925   1
 -12  -7   3 1467.84 500.357   6
 -12  -7   2-61.6063 103.328   4
  12   7  -2-201.240 166.053   3
  12   7  -2 115.638 133.807   1
 -12  -7   2 134.251 106.218   6
 -12  -7   1 186.171 159.294   4
  12   7  -1 324.687 205.086   3
  12   7  -1 140.868 186.110   1
 -12  -7   1 330.086 221.719   6
 -12  -7   0 49.1544 81.7809   4
  12   7   0 135.706 170.906   3
  12   7   0 46.6216 104.748   1
 -12  -7   0 265.189 189.727   6
 -12  -7  -1 438.231 277.664   4
  12   7   1 354.174 225.719   1
 -12  -7  -2 46.4800 115.057   4
  12   7   2 205.784 227.073   1
 -12  -7  -3 1724.30 494.754   4
  12   7   3 2474.28 600.257   1
 -12  -7  -4 678.178 325.099   4
  12   7   4 770.948 371.520   1
 -12  -7  -5 950.498 390.540   5
 -12  -7  -5 959.202 359.439   4
  12   7   5 1740.42 530.178   1
 -12  -7  -6-137.709 153.624   5
 -12  -7  -6 36.0644 103.923   4
 -12  -7  -7-109.652 184.814   5
 -12  -7  -7-280.852 149.256   4
 -12  -7  -8-167.145 185.989   5
 -12  -7  -8-160.852 185.855   4
 -12  -7  -9 512.770 251.324   5
 -12  -7 -10 29.4169 125.901   5
 -12  -8  16-356.021 250.481   6
 -12  -8  15 486.216 304.016   6
 -12  -8  14 94.7977 120.688   6
 -12  -8  13 268.054 244.866   6
 -12  -8  12 219.488 264.814   6
 -12  -8  11 617.095 317.692   6
 -12  -8  10 46.0164 119.631   6
 -12  -8   9-151.097 170.846   6
  12   8  -8 286.243 243.213   3
 -12  -8   8 104.842 116.653   6
  12   8  -7 324.778 201.333   3
 -12  -8   7 10.0107 83.4184   6
  12   8  -6 41.2667 159.138   3
 -12  -8   6 53.2710 112.170   6
  12   8  -5 1407.50 443.589   3
 -12  -8   5 1892.50 580.923   6
  12   8  -4 154.848 219.354   3
 -12  -8   4 676.287 339.500   6
  12   8  -4 353.066 176.872   1
  12   8  -3 2231.05 554.764   3
 -12  -8   3 2624.65 650.836   6
  12   8  -3 2113.59 507.910   1
  12   8  -2 52.6604 177.405   3
 -12  -8   2 81.7554 94.7554   6
  12   8  -2 41.9699 161.715   1
  12   8  -1 322.057 204.382   3
  12   8  -1 244.087 197.677   1
 -12  -8   0 258.769 191.423   4
  12   8   0-27.3383 104.722   3
  12   8   0 266.566 232.306   1
 -12  -8  -1 181.953 162.949   4
  12   8   1 281.807 249.373   1
 -12  -8  -2 342.629 226.228   4
  12   8   2 280.462 247.458   1
 -12  -8  -3 871.757 388.197   4
  12   8   3 1196.45 450.541   1
 -12  -8  -4 456.362 286.118   4
  12   8   4 56.1299 96.3089   1
 -12  -8  -5 4552.93 910.116   4
 -12  -8  -6-425.241 257.916   5
 -12  -8  -6 56.9580 122.194   4
 -12  -8  -7 103.665 207.387   5
 -12  -8  -8-284.384 215.180   5
 -12  -9  14-80.4976 129.942   6
 -12  -9  13 519.042 292.712   6
 -12  -9  12 1167.19 457.403   6
 -12  -9  11 1076.60 450.259   6
  12   9 -10 640.255 327.351   3
 -12  -9  10 695.622 338.898   6
  12   9  -9 688.998 303.104   3
 -12  -9   9 353.701 236.822   6
  12   9  -8-2.69325 123.620   3
 -12  -9   8-189.793 199.511   6
  12   9  -7-569.406 301.259   3
 -12  -9   7-342.795 261.280   6
  12   9  -6 283.133 215.528   3
  12   9  -5 421.655 279.291   3
  12   9  -4 891.544 392.941   3
  12   9  -3 909.326 350.862   1
  12   9  -3 871.148 346.984   3
  12   9  -2-259.550 194.120   1
  12   9  -2 22.7500 133.341   3
  12   9  -1-162.589 212.765   1
  12   9  -1 533.669 303.877   3
  12   9   0 117.878 101.755   1
  12   9   0 254.016 257.463   3
  12   9   1 502.433 258.974   1
  12   9   2 409.017 186.798   1
  12  10  -5 98.8863 118.729   3
  12  10  -4 451.847 284.066   3
  12  10  -3-125.976 162.408   3
  12  10  -2-49.5263 117.882   1
  12  10  -2 477.051 279.184   3
  12  10  -1-1.91482 171.839   1
 -13   0  20 83.2333 196.925   5
 -13   0  19 2350.28 576.163   5
 -13   0  18-75.8012 196.909   5
 -13   0  17 2162.07 564.610   5
 -13   0  16-40.3793 158.587   5
 -13   0  15-217.411 195.446   5
 -13   0  14 95.6501 172.531   5
 -13   0  13 332.902 187.113   5
 -13   0  12 177.339 130.069   5
 -13   0  11 22.4638 99.4305   5
 -13   0  10 126.052 182.244   6
 -13   0  10 170.911 180.366   5
 -13   0   9 321.492 238.352   6
 -13   0   9 842.761 315.572   5
 -13   0   8-112.161 218.649   6
 -13   0   8-393.463 275.574   5
 -13   0   7 544.971 265.246   6
 -13   0   7 748.750 312.544   5
 -13   0   6-753.001 341.390   6
 -13   0   6 45.2720 102.072   5
 -13   0   5 4252.42 779.810   6
 -13   0   5 3714.65 718.965   5
 -13   0   4-413.060 262.491   6
 -13   0   4-26.1065 154.308   5
 -13   0   3 9370.56 1146.79   5
 -13   0   3 8669.06 1128.13   6
 -13   0   2-151.341 224.535   6
 -13   0   2 178.360 206.216   5
 -13   0   1 4030.23 770.384   6
 -13   0   1 4018.47 751.072   5
 -13   0   0-224.598 127.559   6
 -13   0   0 22.3844 213.836   5
 -13   0  -1-267.151 226.036   6
 -13   0  -1 115.955 126.974   5
 -13   0  -2-101.478 189.960   6
 -13   0  -2-228.574 263.292   5
 -13   0  -3-33.4472 153.547   6
 -13   0  -3 171.914 207.101   5
 -13   0  -4-189.461 198.700   6
 -13   0  -4 76.1681 92.2733   5
 -13   0  -5 206.875 250.795   6
 -13   0  -5 3.75685 150.530   5
 -13   0  -6-86.8726 151.837   6
 -13   0  -7 2800.24 648.077   6
 -13   0  -8-200.806 188.698   6
 -13   0  -9 4488.86 812.201   6
 -13   0 -10 464.113 269.759   6
 -13   0 -11 1504.99 491.216   6
 -13   0 -12-142.047 158.433   6
 -13  -1  20 212.937 205.751   5
 -13  -1  19 414.851 273.849   5
 -13   1  19 314.465 199.127   5
 -13  -1  18 296.806 277.299   5
 -13   1  18 776.886 347.260   5
 -13  -1  17 973.373 420.901   5
 -13   1  17 986.755 383.732   5
 -13  -1  16 989.103 346.433   5
 -13   1  16 919.680 367.572   5
 -13  -1  15 142.384 259.907   5
 -13   1  15 29.9080 124.491   5
 -13  -1  14 248.913 265.931   5
 -13   1  14-48.8479 244.752   5
 -13  -1  13 228.652 210.623   6
 -13  -1  13 128.538 212.771   5
 -13   1  13 247.341 176.455   5
 -13  -1  12 710.512 315.245   6
 -13  -1  12 1637.79 505.637   5
 -13   1  12 1599.50 480.265   5
 -13  -1  11 394.297 214.492   6
 -13   1  11 203.955 228.637   5
 -13  -1  10 1900.27 550.270   6
 -13  -1  10 2004.12 567.238   5
 -13   1  10 1489.20 462.717   5
 -13  -1   9-349.624 266.628   6
 -13  -1   9 73.2301 195.524   5
 -13   1   9 271.530 276.156   5
 -13  -1   8 231.813 230.377   6
 -13   1   8 308.087 240.866   6
 -13  -1   8 406.331 287.689   5
 -13   1   8 80.7523 207.816   5
 -13  -1   7 251.730 206.782   6
 -13   1   7-8.91809 124.107   6
 -13  -1   7 0.62593 143.438   5
 -13   1   7 241.291 210.161   5
 -13  -1   6 778.639 327.844   6
 -13   1   6 257.100 153.780   6
 -13  -1   6 526.066 273.400   5
 -13   1   6 544.600 294.909   5
 -13  -1   5 1441.55 466.047   6
 -13   1   5 909.307 368.480   6
 -13  -1   5 1239.89 393.280   5
 -13   1   5 1007.68 383.710   5
 -13  -1   4 35.0584 124.174   6
 -13   1   4 74.7689 179.662   6
 -13  -1   4 386.991 243.978   5
 -13   1   4 338.208 221.232   5
 -13  -1   3 1448.01 480.649   6
 -13   1   3 2076.51 571.227   6
 -13  -1   3 904.332 373.531   5
 -13   1   3 1337.88 432.191   5
 -13  -1   2 218.748 232.054   6
 -13   1   2 318.589 183.363   6
 -13  -1   2 463.668 258.206   5
 -13   1   2 73.3619 121.253   5
 -13  -1   1 173.059 194.152   6
 -13   1   1 153.101 202.265   6
 -13  -1   1-102.670 149.811   5
 -13   1   1 169.732 216.140   5
 -13  -1   0 1867.72 539.401   6
 -13   1   0 2007.80 546.396   6
 -13  -1   0 1770.95 514.829   5
 -13   1   0 1802.19 504.116   5
 -13  -1  -1 516.742 307.840   6
 -13   1  -1 400.819 301.312   6
 -13  -1  -1 309.929 288.990   5
 -13   1  -1 631.674 319.826   5
 -13  -1  -2 1510.20 474.346   6
 -13   1  -2 710.124 351.468   6
 -13  -1  -2 1372.39 456.765   5
 -13   1  -2 1027.45 363.493   5
 -13  -1  -3 306.042 326.024   6
 -13   1  -3 152.167 116.796   6
 -13  -1  -3 215.006 194.970   5
 -13   1  -3 436.485 240.960   5
 -13  -1  -4 383.396 242.702   6
 -13   1  -4 152.731 169.787   6
 -13  -1  -4-36.1120 202.869   5
 -13  -1  -5-19.4353 146.255   6
 -13   1  -5-100.120 198.347   6
 -13  -1  -5-249.539 173.681   5
 -13  -1  -6 153.975 206.699   6
 -13   1  -6 127.005 131.125   6
 -13  -1  -6 46.8690 127.867   5
 -13  -1  -7 1199.43 434.446   6
 -13   1  -7 772.099 340.961   6
 -13  -1  -7 416.850 220.315   5
 -13  -1  -8 267.082 219.465   6
 -13   1  -8 61.7234 144.396   6
 -13  -1  -9 1657.62 525.188   6
 -13   1  -9 1633.11 514.434   6
 -13  -1 -10 674.283 356.125   6
 -13   1 -10-204.807 184.220   6
 -13  -1 -11 321.282 202.971   6
 -13   1 -11 149.607 123.869   6
 -13  -1 -12 50.5916 143.269   6
 -13   2  18 1574.99 467.109   5
 -13   2  17 781.371 324.754   5
 -13   2  16 1714.93 495.125   5
 -13  -2  15 246.540 264.680   6
 -13   2  15 686.841 317.801   5
 -13  -2  14-20.9762 212.945   6
 -13   2  14 136.897 230.238   5
 -13  -2  13-285.918 282.796   6
 -13   2  13-66.2365 123.388   5
 -13  -2  12 907.857 372.789   6
 -13   2  12 1678.98 489.076   5
 -13  -2  11 1251.06 448.449   6
 -13   2  11 715.932 361.472   5
 -13  -2  10 524.519 313.895   6
 -13  -2  10 1360.23 438.410   5
 -13   2  10 666.214 276.374   5
 -13  -2   9 1033.63 434.163   6
 -13  -2   9 1305.45 417.315   5
 -13   2   9 1323.27 426.101   5
 -13  -2   8 475.886 284.708   6
 -13  -2   8 1087.78 415.537   5
 -13  -2   7 27.6537 139.158   6
 -13  -2   7-122.621 163.454   5
 -13  -2   6 1125.91 420.403   6
 -13  -2   6 1183.90 393.633   5
 -13   2   6 1572.75 470.102   5
 -13  -2   5 323.001 310.558   6
 -13  -2   5 307.736 200.540   5
 -13   2   5 324.788 193.265   5
 -13  -2   4 1633.60 497.439   6
 -13  -2   4 2142.96 577.015   5
 -13   2   4 1746.90 501.823   5
 -13  -2   3 89.0694 178.224   6
 -13   2   3 251.770 263.670   6
 -13  -2   3-291.314 289.560   5
 -13   2   3 218.383 174.088   5
 -13  -2   2 1.28760 107.184   6
 -13   2   2 125.627 151.599   6
 -13  -2   2 43.2551 146.584   5
 -13   2   2-162.179 103.914   5
 -13  -2   1 1703.31 509.306   6
 -13   2   1 793.383 316.756   6
 -13  -2   1 897.737 348.514   5
 -13   2   1 1270.96 442.556   5
 -13  -2   0 317.750 253.551   6
 -13   2   0 109.610 120.213   6
 -13  -2   0 278.067 174.451   5
 -13   2   0 341.418 289.042   5
 -13  -2  -1 645.632 312.908   6
 -13   2  -1 1105.52 382.909   6
 -13  -2  -1 1002.53 386.806   5
 -13  -2  -2 338.088 244.586   6
 -13   2  -2 740.361 302.824   6
 -13  -2  -2 554.941 274.879   5
 -13  -2  -3 544.454 315.165   6
 -13   2  -3 442.306 261.779   6
 -13  -2  -3-7.57650 85.0424   5
 -13  -2  -4 261.883 228.063   6
 -13   2  -4 16.5527 126.490   6
 -13  -2  -4 392.482 287.343   5
 -13   2  -5-300.518 224.020   6
 -13  -2  -5 61.4958 104.332   5
 -13  -2  -5 187.523 180.664   6
 -13   2  -6-216.255 185.314   6
 -13  -2  -6 390.576 271.479   5
 -13  -2  -6 275.497 215.214   6
 -13   2  -7-266.934 260.759   6
 -13  -2  -7 119.319 247.459   5
 -13  -2  -7-160.826 179.476   6
 -13   2  -8 249.089 117.179   6
 -13  -2  -8 1161.51 422.144   5
 -13  -2  -8 1110.68 456.297   6
 -13   2  -9-408.354 245.561   6
 -13  -2  -9-72.3754 124.166   5
 -13  -2  -9-212.705 194.636   6
 -13   2 -10 673.738 312.841   6
 -13  -2 -10 942.275 424.886   6
 -13  -2 -11-93.4711 138.843   6
 -13  -2 -12-300.318 249.019   6
 -13   3  17 236.662 180.109   5
 -13  -3  16 470.414 237.605   6
 -13   3  16 787.347 333.334   5
 -13  -3  15-77.1590 167.492   6
 -13   3  15 74.4503 173.306   5
 -13  -3  14 60.5210 121.262   6
 -13   3  14 377.069 253.496   5
 -13  -3  13-164.853 193.632   6
 -13   3  13-17.9288 97.3408   5
 -13  -3  12 332.572 226.009   6
 -13   3  12 48.2063 157.345   5
 -13  -3  11-11.0616 150.578   6
 -13   3  11-239.464 194.758   5
 -13  -3  10-26.0434 102.498   6
 -13   3  10-55.7071 130.446   5
 -13  -3   9 26.5624 202.754   6
 -13   3   9 151.175 160.884   5
 -13  -3   8 222.119 200.202   6
 -13   3   8 170.033 153.059   5
 -13  -3   7 153.713 250.303   6
 -13   3   7 39.5027 133.378   5
 -13  -3   6 1010.82 385.425   6
 -13   3   6 921.269 350.400   5
 -13  -3   5 273.783 316.619   6
 -13  -3   5 351.333 273.076   5
 -13   3   5-32.6211 187.479   5
 -13  -3   4 3655.14 748.312   6
 -13  -3   4 3094.94 676.527   5
 -13   3   4 2721.85 626.391   5
 -13  -3   3 760.128 370.261   6
 -13  -3   3 270.622 148.829   5
 -13  -3   2 3387.31 716.118   6
 -13  -3   2 3055.95 691.852   5
 -13  -3   1 15.9758 170.915   5
 -13  -3   1 287.877 244.817   6
 -13  -3   0 379.703 230.892   5
 -13  -3   0 608.548 319.567   6
 -13  -3  -1-17.9663 171.859   5
 -13  -3  -1 120.714 122.545   6
 -13  -3  -2 35.9585 160.469   5
 -13  -3  -2-49.4173 149.809   6
 -13  -3  -3 14.1736 91.2961   5
 -13  -3  -3 17.2747 67.8204   6
 -13  -3  -4-110.848 140.563   5
 -13  -3  -4 214.674 249.015   6
 -13  -3  -5 108.052 75.0191   5
 -13  -3  -5-29.7215 119.543   6
 -13  -3  -6 505.919 263.276   5
 -13  -3  -6 363.865 259.240   6
 -13  -3  -7-37.0307 99.4026   5
 -13  -3  -7 511.763 342.330   6
 -13  -3  -8 2310.78 600.777   5
 -13  -3  -8 2736.63 700.731   4
 -13  -3  -8 3812.16 789.450   6
 -13  -3  -9 684.601 349.329   5
 -13  -3  -9 329.667 264.003   6
 -13  -3 -10 2674.88 644.418   5
 -13  -3 -10 1891.53 557.877   6
 -13  -4  17 966.146 391.182   6
 -13  -4  16 226.888 102.144   6
 -13  -4  15-230.048 278.153   6
 -13  -4  14 220.104 170.351   6
 -13  -4  13 282.002 263.200   6
 -13  -4  12 247.329 192.830   6
 -13  -4  11 1858.28 547.284   6
 -13  -4  10-105.040 163.921   6
 -13  -4   9 731.654 381.189   6
 -13  -4   8 116.313 164.024   6
 -13  -4   7 185.815 214.404   6
 -13  -4   6 178.995 170.578   6
 -13  -4   5 1564.26 514.357   6
 -13  -4   4 1393.16 476.417   6
 -13  -4   3 193.149 227.817   6
 -13  -4   2 1055.81 405.716   5
 -13  -4   2 1540.28 510.496   6
 -13  -4   1 696.055 357.517   5
 -13  -4   1 525.682 320.911   6
 -13  -4   0 78.3839 208.013   5
 -13  -4   0 83.7990 148.649   6
 -13  -4  -1 1176.79 431.385   5
 -13  -4  -1 3711.39 789.355   6
 -13  -4  -2-93.1036 139.162   5
 -13  -4  -2 272.483 285.546   6
 -13  -4  -3-67.0767 120.120   5
 -13  -4  -3 537.916 279.968   6
 -13  -4  -4 221.271 148.204   5
 -13  -4  -4 87.1803 194.898   4
 -13  -4  -4 213.666 209.945   6
 -13  -4  -5 125.954 151.356   5
 -13  -4  -5-182.342 193.406   4
 -13  -4  -5 96.8106 139.181   6
 -13  -4  -6 377.015 235.160   5
 -13  -4  -6 418.469 334.185   4
 -13  -4  -6 209.389 103.033   6
 -13  -4  -7 362.156 254.222   5
 -13  -4  -7 438.098 272.636   4
 -13  -4  -8 1185.98 419.331   5
 -13  -4  -8 1014.34 408.056   6
 -13  -4  -9 520.556 315.548   5
 -13  -4 -10 915.853 397.543   5
 -13  -5  18-139.450 186.385   6
 -13  -5  17 1434.78 514.019   6
 -13  -5  16-81.1699 150.706   6
 -13  -5  15 234.574 174.067   6
 -13  -5  14 190.410 203.195   6
 -13  -5  13 451.792 268.981   6
 -13  -5  12 52.3955 135.270   6
 -13  -5  11 851.664 409.416   6
 -13  -5  10 354.908 340.522   6
 -13  -5   9 190.395 261.632   6
 -13  -5   8 141.711 236.954   6
 -13  -5   7 424.189 288.106   6
 -13  -5   6 171.351 218.725   6
 -13  -5   5 3660.61 643.144   4
 -13  -5   5 2953.57 674.536   6
 -13  -5   4 95.0580 116.546   4
 -13  -5   4-29.6458 202.855   6
 -13  -5   3 780.725 253.956   4
 -13  -5   3 1869.57 581.260   6
 -13  -5   2 226.485 198.754   4
 -13  -5   2 105.567 199.207   6
 -13  -5   1 197.962 139.541   4
 -13  -5   1-76.0462 165.107   6
 -13  -5   0 82.2123 84.2018   5
 -13  -5   0-24.4286 119.934   4
 -13  -5   0 316.403 318.141   6
 -13  -5  -1 97.0451 144.505   5
 -13  -5  -1 171.005 141.281   4
 -13  -5  -1 2.11138 166.786   6
 -13  -5  -2 150.662 192.754   5
 -13  -5  -2 11.8195 100.361   4
 -13  -5  -2-228.891 264.457   6
 -13  -5  -3 157.635 169.544   5
 -13  -5  -3 751.110 355.804   4
 -13  -5  -3 1031.10 408.000   6
 -13  -5  -4-657.836 321.731   5
 -13  -5  -4 180.578 189.778   4
 -13  -5  -4-234.433 356.721   6
 -13  -5  -5-47.9420 69.4372   5
 -13  -5  -5 82.0837 114.859   4
 -13  -5  -5-94.1745 244.837   6
 -13  -5  -6 3.37954 100.179   5
 -13  -5  -6-69.6443 81.4492   4
 -13  -5  -7 158.657 109.788   5
 -13  -5  -7-199.044 229.317   4
 -13  -5  -8 92.4400 245.512   5
 -13  -6  17 74.3481 175.530   6
 -13  -6  16-103.588 156.093   6
 -13  -6  15 42.7185 150.096   6
 -13  -6  14 661.428 298.505   6
 -13  -6  13 141.372 171.633   6
 -13  -6  12 252.752 246.618   6
 -13  -6  11 63.0787 73.0843   6
 -13  -6  10 161.657 175.772   6
 -13  -6   9 246.358 235.030   6
  13   6  -8-24.8884 129.649   3
 -13  -6   8 31.8317 166.914   6
 -13  -6   7 820.313 340.543   6
 -13  -6   6 35.9315 205.473   6
 -13  -6   5 1963.78 576.636   6
 -13  -6   4 1087.68 466.806   6
 -13  -6   3 1371.95 420.258   4
 -13  -6   3 1887.39 529.757   6
 -13  -6   2 597.544 286.011   4
  13   6  -2 395.682 228.204   1
 -13  -6   2 796.845 399.670   6
 -13  -6   1 362.740 201.867   4
  13   6  -1 400.642 221.863   1
 -13  -6   1-38.5201 226.775   6
 -13  -6   0 162.284 110.451   4
  13   6   0 225.321 174.371   1
 -13  -6   0-38.7778 174.512   6
  13   6   1-52.7696 105.884   1
 -13  -6  -1-131.758 132.953   6
 -13  -6  -2 224.298 206.070   5
 -13  -6  -2-104.057 144.640   4
  13   6   2 182.160 206.864   1
 -13  -6  -3 334.061 307.105   5
  13   6   3 935.381 397.442   1
 -13  -6  -3 786.781 356.503   4
 -13  -6  -4 239.470 273.594   5
  13   6   4 167.268 191.323   1
 -13  -6  -4 563.000 352.760   4
 -13  -6  -5 166.180 181.556   4
  13   6   5 72.7587 142.393   1
 -13  -6  -6-284.948 222.377   5
 -13  -6  -6 208.101 202.046   4
 -13  -7  13 119.795 172.431   6
 -13  -7  12 492.782 299.556   6
 -13  -7  11 128.812 207.465   6
 -13  -7  10 1455.85 540.361   6
  13   7  -9 231.299 219.225   3
 -13  -7   9 240.085 246.606   6
  13   7  -8 284.353 183.169   3
 -13  -7   8 32.2947 111.435   6
  13   7  -7 39.2196 98.2299   3
 -13  -7   7 122.235 213.567   6
 -13  -7   6 439.207 307.410   6
 -13  -7   5-14.2945 105.797   6
  13   7  -3 11.8729 111.748   1
  13   7  -2-433.061 238.377   1
  13   7  -1-198.246 209.404   1
 -13  -7   0 629.153 285.249   4
  13   7   0-45.2154 106.893   1
 -13  -7  -1-450.043 262.383   4
  13   7   1-98.0462 168.513   1
 -13  -7  -2 1276.65 509.994   4
  13   7   2 1009.91 394.846   1
 -13  -7  -3 7.02655 86.0626   4
  13   7   3 163.884 183.707   1
 -13  -7  -4 313.769 188.888   4
 -13  -7  -5 201.646 175.901   4
  13   8 -10 749.828 344.827   3
  13   8  -9-36.0957 98.4234   3
  13   8  -8-399.693 250.171   3
  13   8  -7-80.4396 131.883   3
  13   8  -2 39.9136 83.9132   1
  13   8  -1 360.830 222.520   1
  13   8   0 148.933 162.669   1
  13   8   1 28.5466 200.282   1
 -13  -8  -2-25.7432 151.872   4
 -13  -8  -3 218.457 260.938   4
 -14   0  18 1990.38 565.267   5
 -14   0  17-65.9685 112.595   5
 -14   0  16 1497.62 481.985   5
 -14   0  15 4.21268 222.713   5
 -14   0  14-367.793 256.265   5
 -14   0  13-94.7085 133.774   5
 -14   0  12 1335.87 490.878   5
 -14   0  11 15.3459 152.273   5
 -14   0  10 1280.04 458.765   6
 -14   0  10 439.093 250.675   5
 -14   0   9-241.368 262.292   6
 -14   0   9-71.3356 138.736   5
 -14   0   8-202.929 295.902   6
 -14   0   8 0.68888 118.263   5
 -14   0   7-200.876 234.783   6
 -14   0   7-58.2788 145.292   5
 -14   0   6 3293.00 746.296   6
 -14   0   6 5569.58 956.751   5
 -14   0   5 93.5674 101.523   6
 -14   0   5 275.409 141.331   5
 -14   0   4 3675.16 770.833   6
 -14   0   4 3782.71 777.548   5
 -14   0   3 368.136 256.684   6
 -14   0   3-43.3278 111.694   5
 -14   0   2 432.797 272.446   6
 -14   0   2 355.005 253.787   5
 -14   0   1 11.2321 117.062   6
 -14   0   1 152.562 266.888   5
 -14   0   0 639.575 320.561   6
 -14   0   0 1291.47 439.919   5
 -14   0  -1-132.103 163.417   6
 -14   0  -1 297.715 230.833   5
 -14   0  -2 1419.37 480.303   6
 -14   0  -2 1995.23 600.771   5
 -14   0  -3-57.1486 151.368   6
 -14   0  -3-90.6080 210.394   5
 -14   0  -4 1050.80 406.255   6
 -14   0  -4 1396.49 523.383   5
 -14   0  -5-178.198 225.351   6
 -14   0  -6 30.6192 121.927   6
 -14   0  -7-103.536 218.664   6
 -14   0  -8-158.883 202.678   6
 -14  -1  18 1135.92 471.495   5
 -14   1  18 622.385 331.589   5
 -14  -1  17 283.956 239.049   5
 -14   1  17 50.7005 140.705   5
 -14  -1  16 703.255 338.534   5
 -14   1  16 28.4600 134.725   5
 -14  -1  15 907.399 387.731   5
 -14   1  15 411.348 235.223   5
 -14  -1  14 356.982 278.134   5
 -14   1  14 212.408 175.639   5
 -14  -1  13 613.261 335.990   5
 -14   1  13 1101.86 446.616   5
 -14  -1  12 1498.30 538.703   6
 -14  -1  12 525.883 305.052   5
 -14   1  12 1231.92 435.667   5
 -14  -1  11 688.388 363.186   6
 -14  -1  11 98.5544 153.230   5
 -14   1  11 197.296 212.117   5
 -14  -1  10 702.231 378.212   6
 -14  -1  10 165.585 194.075   5
 -14   1  10 342.795 239.719   5
 -14  -1   9 83.8692 134.620   6
 -14  -1   9-210.132 238.152   5
 -14  -1   8-73.6946 161.786   6
 -14  -1   8-424.816 270.727   5
 -14   1   8 204.072 225.066   5
 -14  -1   7 68.0085 232.407   6
 -14  -1   7 108.705 162.431   5
 -14   1   7-24.2172 115.384   5
 -14  -1   6 1717.01 519.109   6
 -14   1   6 837.919 398.278   6
 -14  -1   6 1670.81 536.013   5
 -14   1   6 814.978 330.011   5
 -14  -1   5 2.14296 112.200   6
 -14   1   5-78.6312 116.034   6
 -14  -1   5 423.522 264.041   5
 -14   1   5 136.556 203.026   5
 -14  -1   4 1680.26 541.469   6
 -14   1   4 664.788 260.248   6
 -14  -1   4 1250.46 446.758   5
 -14   1   4 986.514 388.890   5
 -14  -1   3 525.164 277.718   6
 -14   1   3 590.528 292.023   6
 -14  -1   3 518.289 294.282   5
 -14   1   3 797.682 327.776   5
 -14  -1   2 400.124 291.266   6
 -14   1   2-254.453 256.044   6
 -14  -1   2-277.181 245.048   5
 -14   1   2 165.840 220.786   5
 -14  -1   1 115.308 224.892   6
 -14   1   1-110.119 216.754   6
 -14  -1   1-227.657 241.713   5
 -14   1   1 167.106 180.791   5
 -14  -1   0 1195.41 457.261   6
 -14   1   0 314.282 179.659   6
 -14  -1   0 1099.52 445.569   5
 -14   1   0 1102.18 456.588   5
 -14  -1  -1 402.894 259.251   6
 -14   1  -1 299.117 291.577   6
 -14  -1  -1 389.860 264.775   5
 -14   1  -1 442.563 298.747   5
 -14  -1  -2 1370.43 482.042   6
 -14   1  -2 781.759 340.498   6
 -14  -1  -2 1593.47 523.200   5
 -14   1  -2 1237.42 460.048   5
 -14  -1  -3 471.715 230.259   6
 -14   1  -3 524.842 298.374   6
 -14  -1  -3 238.222 174.754   5
 -14  -1  -4 207.798 203.584   6
 -14   1  -4 856.585 397.960   6
 -14  -1  -4 1463.46 495.203   5
 -14  -1  -5 117.186 174.915   6
 -14   1  -5 293.366 198.585   6
 -14  -1  -6-111.237 153.117   6
 -14   1  -6-102.922 227.020   6
 -14  -1  -7 97.8328 147.397   6
 -14   1  -7 686.352 349.923   6
 -14   1  -8 357.154 241.767   6
 -14   1  -9 1444.27 488.223   6
 -14   2  17 1279.24 447.657   5
 -14  -2  16 221.894 254.184   5
 -14   2  16 286.822 247.581   5
 -14  -2  15 325.544 278.422   5
 -14   2  15-43.2880 179.334   5
 -14  -2  14 191.751 226.899   6
 -14   2  14-28.9533 103.508   5
 -14  -2  13 1152.24 457.780   6
 -14  -2  13 1309.73 486.134   5
 -14   2  13 1212.93 453.513   5
 -14  -2  12 359.062 310.029   6
 -14  -2  12 465.372 351.027   5
 -14   2  12 792.594 377.169   5
 -14  -2  11 999.910 444.498   6
 -14  -2  11 1220.79 478.382   5
 -14   2  11 1002.39 384.105   5
 -14  -2  10 728.006 450.163   6
 -14  -2  10 387.916 262.402   5
 -14   2  10-50.3996 137.078   5
 -14  -2   9 535.861 363.307   6
 -14  -2   9 334.210 259.016   5
 -14   2   9 43.0750 156.558   5
 -14  -2   8-80.3831 110.430   5
 -14   2   8-21.2064 71.1998   5
 -14  -2   7 530.129 332.798   6
 -14  -2   7-253.477 325.871   5
 -14   2   7 294.883 233.608   5
 -14  -2   6 118.575 174.738   6
 -14  -2   6-7.82538 122.767   5
 -14   2   6-78.9064 144.980   5
 -14  -2   5 1350.12 481.995   6
 -14  -2   5 1155.18 433.686   5
 -14   2   5 958.025 398.001   5
 -14  -2   4-116.936 245.177   6
 -14  -2   4 86.7850 162.259   5
 -14   2   4 160.908 226.435   5
 -14  -2   3 648.833 333.267   6
 -14  -2   3 598.935 325.567   5
 -14   2   3 73.4304 188.848   5
 -14  -2   2-29.6235 260.413   6
 -14   2   2-166.208 177.101   6
 -14  -2   2 203.990 132.148   5
 -14   2   2 466.050 316.522   5
 -14  -2   1 68.8179 126.485   6
 -14   2   1 240.175 205.122   6
 -14  -2   1-382.130 327.974   5
 -14   2   1 346.634 254.251   5
 -14  -2   0 234.224 190.832   6
 -14   2   0 107.867 187.698   6
 -14  -2  -1 2101.54 587.869   6
 -14   2  -1 1024.09 428.682   6
 -14  -2  -1 725.042 370.737   5
 -14  -2  -2 284.570 274.317   6
 -14   2  -2-87.5863 219.788   6
 -14  -2  -2 109.277 183.444   5
 -14  -2  -3 1345.55 484.882   6
 -14   2  -3 1173.70 424.175   6
 -14  -2  -3 652.299 347.564   5
 -14  -2  -4 440.047 297.583   6
 -14   2  -4-423.238 266.160   6
 -14  -2  -5 449.267 188.739   6
 -14   2  -5 219.000 140.281   6
 -14   2  -6-426.023 291.184   6
 -14   2  -7-175.806 176.448   6
 -14   2  -8 452.442 238.532   6
 -14   3  16 345.035 238.073   5
 -14   3  15 301.735 235.127   5
 -14   3  14 85.6764 175.608   5
 -14  -3  13 159.459 157.090   6
 -14   3  13 502.352 326.002   5
 -14  -3  12 110.637 104.777   6
 -14   3  12 174.280 210.801   5
 -14  -3  11 1711.22 567.050   6
 -14   3  11 807.827 344.226   5
 -14  -3  10 156.580 228.955   6
 -14   3  10-490.675 279.487   5
 -14  -3   9 304.157 296.475   6
 -14  -3   9 410.400 328.615   5
 -14   3   9-373.296 245.995   5
 -14  -3   8-112.930 170.076   5
 -14   3   8 151.961 162.891   5
 -14  -3   7 514.378 294.720   6
 -14  -3   7 960.635 469.234   5
 -14   3   7 673.774 333.877   5
 -14  -3   6 575.080 306.020   6
 -14  -3   6 683.658 417.498   5
 -14   3   6 442.328 314.950   5
 -14  -3   5 2473.51 655.681   6
 -14  -3   5 2661.01 687.304   5
 -14  -3   4 131.756 189.843   6
 -14  -3   4 1321.57 574.426   5
 -14  -3   3 676.837 360.611   6
 -14  -3   3-123.130 256.843   5
 -14  -3   2 258.759 196.797   6
 -14  -3   2-141.591 262.760   5
 -14  -3   1 663.199 372.610   6
 -14  -3   1 252.406 234.302   5
 -14  -3   0 68.4721 198.431   6
 -14  -3   0 183.443 117.654   5
 -14  -3  -1 1526.69 521.195   6
 -14  -3  -1 1755.88 555.670   5
 -14  -3  -2 648.732 409.080   6
 -14  -3  -2-266.399 206.902   5
 -14  -4  11 695.536 668.567   6
 -14  -4  10 201.093 173.579   6
 -14  -4   9 240.585 217.182   6
 -14  -4   8-83.6384 159.240   6
 -14  -4   7 384.181 278.674   6
 -14  -4   6 548.974 327.401   6
 -14  -4   6 381.442 332.587   5
 -14  -4   5 796.439 386.178   6
 -14  -4   5 1249.82 475.946   5
 -14  -4   4 309.659 309.991   6
 -14  -4   4 1008.96 424.304   5
 -14  -4   3 518.324 288.571   6
 -14  -4   3 249.902 231.746   5
 -14  -4   2 981.219 434.598   6
 -14  -4   2 685.272 372.613   5
 -14  -4   1-252.632 236.580   5
 -14  -4  -3 222.969 228.938   4
 -14  -4  -4 885.355 383.419   4
 -14  -5   3 316.058 263.855   4
 -14  -5   2 186.315 177.991   4
 -14  -5   1 187.409 178.798   4
 -14  -5   0 457.393 295.961   4
 -14  -5  -1-136.284 151.080   4
 -14  -5  -2 1285.52 468.385   4
 -14  -5  -3-166.832 200.455   4
 -14  -6   0 1391.94 446.012   4
 -14  -6  -1 420.536 320.287   4
 -14  -6  -2 1242.13 463.866   4
 -14  -6  -3 286.656 224.894   4
   0   0   0    0.00    0.00   0
TITL g170718c in P2/n
REM P2/n (#13 in standard setting)
CELL 0.71073  10.951006  10.930890  21.238311  90.0000  99.7759  90.0000
ZERR   28.00   0.000573   0.000853   0.001332   0.0000   0.0054   0.0000
LATT  1
SYMM -x+1/2, y,-z+1/2
SFAC C N O S Zn
UNIT 28.00 28.00 28.00 28.00 28.00
TREF
HKLF 4
END
;
_shelx_hkl_checksum              55653
_shelx_fab_file
;
    0    0    4     21.90      0.00
    0    0    6      7.48      0.00
    0    0    8      1.34      0.00
    0    0   10     -0.28      0.00
    0    0   12     -0.80      0.00
    0    0   14     -1.63      0.00
    0    0   16     -1.69      0.00
    0    0   18     -0.41      0.00
    0    0   20     -0.68      0.00
    0    0   22     -2.33      0.00
    0    0   24     -0.18      0.00
    0    0   26     -1.29      0.00
    0    0   28     -1.81      0.00
    0    1    3     -7.76      0.00
    0    1    4      0.03      0.00
    0    1    5      1.26      0.00
    0    1    6      0.26      0.00
    0    1    7      0.27      0.00
    0    1    8     -1.45      0.00
    0    1    9     -0.79      0.00
    0    1   10     -1.39      0.00
    0    1   11      0.44      0.00
    0    1   12     -0.28      0.00
    0    1   13      1.12      0.00
    0    1   14     -0.22      0.00
    0    1   15     -0.04      0.00
    0    1   16      0.42      0.00
    0    1   17     -0.17      0.00
    0    1   18      1.07      0.00
    0    1   19      0.82      0.00
    0    1   20      0.52      0.00
    0    1   21      0.83      0.00
    0    1   22     -1.09      0.00
    0    1   23      1.01      0.00
    0    1   24      0.00      0.00
    0    1   25      1.74      0.00
    0    1   26     -1.85      0.00
    0    1   27      1.56      0.00
    0    1   28     -2.16      0.00
    0    2    0     41.20      0.00
    0    2    1    -46.80      0.00
    0    2    2     -7.15      0.00
    0    2    3    -17.83      0.00
    0    2    4     -5.57      0.00
    0    2    5      0.09      0.00
    0    2    6     -2.18      0.00
    0    2    7      2.95      0.00
    0    2    8     -1.02      0.00
    0    2    9      1.93      0.00
    0    2   10     -0.47      0.00
    0    2   11      3.65      0.00
    0    2   12      0.67      0.00
    0    2   13      1.45      0.00
    0    2   14     -0.71      0.00
    0    2   15     -0.26      0.00
    0    2   16      0.03      0.00
    0    2   17     -0.49      0.00
    0    2   18     -0.27      0.00
    0    2   19      0.00      0.00
    0    2   20     -1.59      0.00
    0    2   21      0.50      0.00
    0    2   22     -2.54      0.00
    0    2   23      1.26      0.00
    0    2   24      0.48      0.00
    0    2   25      2.25      0.00
    0    2   26      0.29      0.00
    0    2   27      2.81      0.00
    0    3    0     19.20      0.00
    0    3    1    -31.85      0.00
    0    3    2     12.35      0.00
    0    3    3     -7.86      0.00
    0    3    4      8.57      0.00
    0    3    5      2.44      0.00
    0    3    6      2.96      0.00
    0    3    7      1.60      0.00
    0    3    8      0.17      0.00
    0    3    9     -0.99      0.00
    0    3   10     -0.56      0.00
    0    3   11      1.00      0.00
    0    3   12      0.15      0.00
    0    3   13     -0.20      0.00
    0    3   14     -1.29      0.00
    0    3   15      1.25      0.00
    0    3   16      0.18      0.00
    0    3   17     -0.40      0.00
    0    3   18     -0.24      0.00
    0    3   19     -1.04      0.00
    0    3   20     -0.71      0.00
    0    3   21     -0.79      0.00
    0    3   22     -1.15      0.00
    0    3   23     -0.02      0.00
    0    3   24      1.26      0.00
    0    3   25      1.23      0.00
    0    3   26      1.49      0.00
    0    3   27      3.40      0.00
    0    4    0    -14.35      0.00
    0    4    1    -16.54      0.00
    0    4    2      2.94      0.00
    0    4    3     -2.04      0.00
    0    4    4      6.55      0.00
    0    4    5      3.57      0.00
    0    4    6      3.03      0.00
    0    4    7      1.05      0.00
    0    4    8      0.24      0.00
    0    4    9     -1.30      0.00
    0    4   10     -0.91      0.00
    0    4   11      0.16      0.00
    0    4   12     -1.00      0.00
    0    4   13     -0.44      0.00
    0    4   14     -0.99      0.00
    0    4   15      2.04      0.00
    0    4   16      1.00      0.00
    0    4   17     -1.41      0.00
    0    4   18      0.86      0.00
    0    4   19     -1.20      0.00
    0    4   20      0.50      0.00
    0    4   21     -0.39      0.00
    0    4   22     -0.19      0.00
    0    4   23      1.30      0.00
    0    4   24      1.00      0.00
    0    4   25      0.70      0.00
    0    4   26      1.45      0.00
    0    4   27      1.36      0.00
    0    5    0    -13.14      0.00
    0    5    1     -8.18      0.00
    0    5    2      6.83      0.00
    0    5    3     -2.44      0.00
    0    5    4      5.34      0.00
    0    5    5     -1.67      0.00
    0    5    6      0.13      0.00
    0    5    7     -1.83      0.00
    0    5    8     -1.03      0.00
    0    5    9      0.57      0.00
    0    5   10      0.12      0.00
    0    5   11      0.59      0.00
    0    5   12      0.99      0.00
    0    5   13     -1.51      0.00
    0    5   14     -0.34      0.00
    0    5   15      1.05      0.00
    0    5   16     -0.73      0.00
    0    5   17     -1.30      0.00
    0    5   18      0.19      0.00
    0    5   19     -0.11      0.00
    0    5   20     -0.51      0.00
    0    5   21      0.36      0.00
    0    5   22     -1.20      0.00
    0    5   23      1.80      0.00
    0    5   24      0.27      0.00
    0    5   25      0.26      0.00
    0    5   26      3.46      0.00
    0    6    0     -7.18      0.00
    0    6    1     -1.42      0.00
    0    6    2     10.00      0.00
    0    6    3      1.12      0.00
    0    6    4      2.78      0.00
    0    6    5     -1.40      0.00
    0    6    6     -2.01      0.00
    0    6    7     -1.11      0.00
    0    6    8     -2.19      0.00
    0    6    9      0.60      0.00
    0    6   10     -0.40      0.00
    0    6   11     -1.26      0.00
    0    6   12      1.59      0.00
    0    6   13     -2.30      0.00
    0    6   14     -0.58      0.00
    0    6   15      1.22      0.00
    0    6   16     -1.94      0.00
    0    6   17      0.89      0.00
    0    6   18     -0.48      0.00
    0    6   19      0.20      0.00
    0    6   20     -0.04      0.00
    0    6   21     -0.13      0.00
    0    6   22      0.89      0.00
    0    6   23      0.88      0.00
    0    6   24     -0.10      0.00
    0    6   25     -0.73      0.00
    0    7    0     -7.28      0.00
    0    7    1      1.31      0.00
    0    7    2      5.69      0.00
    0    7    3      0.89      0.00
    0    7    4     -0.56      0.00
    0    7    5     -0.76      0.00
    0    7    6      0.32      0.00
    0    7    7      0.07      0.00
    0    7    8     -0.42      0.00
    0    7    9      0.73      0.00
    0    7   10     -0.85      0.00
    0    7   11     -1.02      0.00
    0    7   12      0.95      0.00
    0    7   13     -2.86      0.00
    0    7   14     -0.91      0.00
    0    7   15     -1.52      0.00
    0    7   16     -0.36      0.00
    0    7   17     -0.07      0.00
    0    7   18     -0.06      0.00
    0    7   19     -0.65      0.00
    0    7   20      0.56      0.00
    0    7   21     -0.69      0.00
    0    7   22      1.33      0.00
    0    7   23     -0.22      0.00
    0    7   24     -1.93      0.00
    0    7   25     -1.15      0.00
    0    8    0     -3.73      0.00
    0    8    1      1.10      0.00
    0    8    2      3.52      0.00
    0    8    3     -1.84      0.00
    0    8    4     -0.70      0.00
    0    8    5     -1.73      0.00
    0    8    6      2.31      0.00
    0    8    7     -0.16      0.00
    0    8    8      1.01      0.00
    0    8    9      0.54      0.00
    0    8   10      0.27      0.00
    0    8   11     -0.31      0.00
    0    8   12      1.05      0.00
    0    8   13     -2.57      0.00
    0    8   14     -1.44      0.00
    0    8   15     -0.62      0.00
    0    8   16      0.84      0.00
    0    8   17      2.81      0.00
    0    8   18     -0.25      0.00
    0    8   19      2.81      0.00
    0    8   20      0.84      0.00
    0    8   21      0.62      0.00
    0    8   22      1.55      0.00
    0    8   23     -1.41      0.00
    0    8   24     -1.64      0.00
    0    9    0     -0.90      0.00
    0    9    1      1.66      0.00
    0    9    2      2.49      0.00
    0    9    3     -0.78      0.00
    0    9    4      0.27      0.00
    0    9    5     -1.39      0.00
    0    9    6      1.41      0.00
    0    9    7     -0.10      0.00
    0    9    8      0.51      0.00
    0    9    9      0.97      0.00
    0    9   10      0.62      0.00
    0    9   11      1.00      0.00
    0    9   12      0.19      0.00
    0    9   13     -0.93      0.00
    0    9   14     -1.35      0.00
    0    9   15      1.16      0.00
    0    9   16      1.00      0.00
    0    9   17      2.01      0.00
    0    9   18     -2.15      0.00
    0    9   19      2.37      0.00
    0    9   20     -1.41      0.00
    0    9   21      0.22      0.00
    0    9   22      1.01      0.00
    0    9   23     -2.98      0.00
    0    9   24     -0.37      0.00
    0   10    0     -2.08      0.00
    0   10    1      1.59      0.00
    0   10    2     -0.93      0.00
    0   10    3      0.53      0.00
    0   10    4      0.08      0.00
    0   10    5      0.67      0.00
    0   10    6      0.87      0.00
    0   10    7      2.10      0.00
    0   10    8      0.35      0.00
    0   10    9      0.98      0.00
    0   10   10      0.97      0.00
    0   10   11     -0.10      0.00
    0   10   12     -0.49      0.00
    0   10   13     -0.04      0.00
    0   10   14     -1.08      0.00
    0   10   15      1.41      0.00
    0   10   16      0.85      0.00
    0   10   17     -1.26      0.00
    0   10   18     -0.84      0.00
    0   10   19     -0.66      0.00
    0   10   20     -0.77      0.00
    0   10   23     -2.86      0.00
    0   11    0      0.03      0.00
    0   11    1      0.99      0.00
    0   11    2     -1.82      0.00
    0   11    3      0.08      0.00
    0   11    4      0.41      0.00
    0   11    5     -0.43      0.00
    0   11    6      0.71      0.00
    0   11    7      0.61      0.00
    0   11    8     -0.51      0.00
    0   11    9     -1.23      0.00
    0   11   10      0.49      0.00
    0   11   11     -2.50      0.00
    0   11   12      1.53      0.00
    0   11   13      1.03      0.00
    0   11   14      1.80      0.00
    0   11   15      1.99      0.00
    0   11   16      1.79      0.00
    0   11   17     -1.68      0.00
    0   11   18      1.35      0.00
    0   12    0      4.35      0.00
    0   12    1     -0.06      0.00
    0   12    2      0.01      0.00
    0   12    3     -0.14      0.00
    0   12    4      1.26      0.00
    0   12    5     -2.04      0.00
    0   12    6      0.13      0.00
    0   12    7     -1.36      0.00
    0   12    8     -0.64      0.00
    0   12    9     -0.83      0.00
    0   12   10      0.17      0.00
    0   12   11     -2.85      0.00
    0   12   12      2.55      0.00
    0   12   13     -1.53      0.00
    0   12   14      0.63      0.00
    0   12   15     -0.20      0.00
    0   12   16     -0.56      0.00
    0   13    0      2.77      0.00
    0   13    1     -0.27      0.00
    0   13    2     -1.67      0.00
    0   13    3      2.15      0.00
    0   13    4     -0.72      0.00
    0   13    5      0.00      0.00
    0   13    6     -0.80      0.00
    0   13    7     -0.53      0.00
    0   13    8      0.06      0.00
    0   13    9     -0.18      0.00
    0   13   10     -0.22      0.00
    0   13   11     -0.80      0.00
    0   13   12      1.97      0.00
    0   13   13     -1.91      0.00
    0   13   14     -1.01      0.00
    0   13   15     -1.22      0.00
    0   13   16     -1.29      0.00
    0   14    0     -0.58      0.00
    0   14    1     -0.67      0.00
    0   14    2     -2.14      0.00
    0   14    3      1.41      0.00
    0   14    4     -0.93      0.00
    0   14    5     -0.94      0.00
    0   14    6     -1.16      0.00
    0   14    7     -1.07      0.00
    0   14    8     -1.44      0.00
    0   14    9     -0.75      0.00
    0   14   10     -3.45      0.00
    0   14   11      1.44      0.00
    0   14   12     -1.54      0.00
   -1    0   27      1.18      0.00
   -1    0   25      0.78      0.00
   -1    0   23     -0.41      0.00
   -1    0   21     -0.54      0.00
   -1    0   19     -3.37      0.00
   -1    0   17     -0.55      0.00
   -1    0   15     -1.26      0.00
   -1    0   13     -1.03      0.00
   -1    0   11     -0.88      0.00
   -1    0    9     -0.66      0.00
   -1    0    7     -2.20      0.00
   -1    0    5      1.17      0.00
   -1    0    3     14.51      0.00
    1    0    3      7.50      0.00
    1    0    5      6.58      0.00
    1    0    7     -1.67      0.00
    1    0    9      0.08      0.00
    1    0   11      1.45      0.00
    1    0   13      0.89      0.00
    1    0   15      0.42      0.00
    1    0   17      0.70      0.00
    1    0   19     -1.33      0.00
    1    0   21     -0.49      0.00
    1    0   23      1.62      0.00
    1    0   25      1.87      0.00
    1    0   27      0.73      0.00
   -1    1   28     -0.11      0.00
   -1    1   27      0.69      0.00
   -1    1   26     -0.10      0.00
   -1    1   25      0.56      0.00
   -1    1   24     -0.26      0.00
   -1    1   23      0.35      0.00
   -1    1   22     -0.38      0.00
   -1    1   21      1.29      0.00
   -1    1   20      0.43      0.00
   -1    1   19     -0.39      0.00
   -1    1   18      0.11      0.00
   -1    1   17      1.91      0.00
   -1    1   16     -0.61      0.00
   -1    1   15      0.23      0.00
   -1    1   14     -0.89      0.00
   -1    1   13     -0.31      0.00
   -1    1   12     -1.84      0.00
   -1    1   11     -1.52      0.00
   -1    1   10     -0.59      0.00
   -1    1    9     -0.97      0.00
   -1    1    8      1.66      0.00
   -1    1    7     -3.24      0.00
   -1    1    6      3.87      0.00
   -1    1    5     -2.86      0.00
   -1    1    4     13.51      0.00
   -1    1    3      0.50      0.00
   -1    1    2     26.51      0.00
    1    1    1    -46.52      0.00
    1    1    2    -23.80      0.00
    1    1    3     -9.16      0.00
    1    1    4    -10.60      0.00
    1    1    5      2.58      0.00
    1    1    6     -5.50      0.00
    1    1    7     -0.59      0.00
    1    1    8     -2.39      0.00
    1    1    9      1.80      0.00
    1    1   10     -0.96      0.00
    1    1   11      2.02      0.00
    1    1   12     -0.64      0.00
    1    1   13      1.03      0.00
    1    1   14      0.77      0.00
    1    1   15      1.16      0.00
    1    1   16      0.71      0.00
    1    1   17      1.08      0.00
    1    1   18     -0.82      0.00
    1    1   19     -1.13      0.00
    1    1   20     -1.73      0.00
    1    1   21     -0.38      0.00
    1    1   22     -1.40      0.00
    1    1   23      0.95      0.00
    1    1   24     -0.26      0.00
    1    1   25     -0.08      0.00
    1    1   26     -1.05      0.00
    1    1   27     -0.06      0.00
   -1    2   28     -0.03      0.00
   -1    2   27      0.32      0.00
   -1    2   26     -0.38      0.00
   -1    2   25     -0.21      0.00
   -1    2   24      0.43      0.00
   -1    2   23     -1.09      0.00
   -1    2   22      1.32      0.00
   -1    2   21      0.00      0.00
   -1    2   20      1.05      0.00
   -1    2   19     -0.52      0.00
   -1    2   18      0.21      0.00
   -1    2   17      0.66      0.00
   -1    2   16     -0.61      0.00
   -1    2   15     -1.23      0.00
   -1    2   14     -1.09      0.00
   -1    2   13      1.04      0.00
   -1    2   12     -0.01      0.00
   -1    2   11      0.45      0.00
   -1    2   10      0.47      0.00
   -1    2    9      2.50      0.00
   -1    2    8      0.79      0.00
   -1    2    7      0.43      0.00
   -1    2    6     -0.94      0.00
   -1    2    5     -2.32      0.00
   -1    2    4     -5.14      0.00
   -1    2    3     -2.13      0.00
   -1    2    2    -10.85      0.00
   -1    2    1      4.80      0.00
    1    2    0    -32.48      0.00
    1    2    1    -30.86      0.00
    1    2    2      2.68      0.00
    1    2    3     -4.42      0.00
    1    2    4      2.07      0.00
    1    2    5      1.99      0.00
    1    2    6      0.83      0.00
    1    2    7     -0.56      0.00
    1    2    8      2.27      0.00
    1    2    9      1.71      0.00
    1    2   10      3.03      0.00
    1    2   11      0.57      0.00
    1    2   12      0.99      0.00
    1    2   13     -0.32      0.00
    1    2   14     -0.40      0.00
    1    2   15      0.54      0.00
    1    2   16     -0.90      0.00
    1    2   17     -0.15      0.00
    1    2   18     -1.15      0.00
    1    2   19     -2.78      0.00
    1    2   20     -1.46      0.00
    1    2   21     -2.66      0.00
    1    2   22     -0.41      0.00
    1    2   23     -1.55      0.00
    1    2   24      0.45      0.00
    1    2   25     -2.50      0.00
    1    2   26      0.01      0.00
    1    2   27      0.05      0.00
   -1    3   27      0.92      0.00
   -1    3   26      0.53      0.00
   -1    3   25     -1.06      0.00
   -1    3   24     -0.14      0.00
   -1    3   23     -1.37      0.00
   -1    3   22      0.18      0.00
   -1    3   21      0.69      0.00
   -1    3   20     -0.99      0.00
   -1    3   19     -0.32      0.00
   -1    3   18     -1.20      0.00
   -1    3   17      0.13      0.00
   -1    3   16     -0.22      0.00
   -1    3   15     -2.01      0.00
   -1    3   14     -1.29      0.00
   -1    3   13      0.35      0.00
   -1    3   12      0.21      0.00
   -1    3   11     -0.04      0.00
   -1    3   10     -0.69      0.00
   -1    3    9      1.71      0.00
   -1    3    8     -0.16      0.00
   -1    3    7      0.36      0.00
   -1    3    6     -1.28      0.00
   -1    3    5     -1.44      0.00
   -1    3    4     -2.84      0.00
   -1    3    3      0.26      0.00
   -1    3    2     -4.81      0.00
   -1    3    1      0.26      0.00
    1    3    0    -26.09      0.00
    1    3    1     -1.72      0.00
    1    3    2     10.07      0.00
    1    3    3      7.86      0.00
    1    3    4      7.02      0.00
    1    3    5      3.63      0.00
    1    3    6      1.18      0.00
    1    3    7     -1.36      0.00
    1    3    8      0.40      0.00
    1    3    9     -0.63      0.00
    1    3   10     -0.30      0.00
    1    3   11     -1.34      0.00
    1    3   12     -0.76      0.00
    1    3   13     -1.19      0.00
    1    3   14      0.58      0.00
    1    3   15     -0.05      0.00
    1    3   16     -0.16      0.00
    1    3   17     -1.09      0.00
    1    3   18     -0.07      0.00
    1    3   19     -2.65      0.00
    1    3   20      0.20      0.00
    1    3   21     -1.29      0.00
    1    3   22      0.92      0.00
    1    3   23     -0.94      0.00
    1    3   24     -0.08      0.00
    1    3   25     -3.84      0.00
    1    3   26      1.35      0.00
    1    3   27     -0.51      0.00
   -1    4   27      1.00      0.00
   -1    4   26      0.35      0.00
   -1    4   25     -0.16      0.00
   -1    4   24      0.96      0.00
   -1    4   23     -1.56      0.00
   -1    4   22      1.96      0.00
   -1    4   21      0.24      0.00
   -1    4   20      0.79      0.00
   -1    4   19      0.10      0.00
   -1    4   18     -0.22      0.00
   -1    4   17      1.92      0.00
   -1    4   16      1.04      0.00
   -1    4   15      0.76      0.00
   -1    4   14     -0.52      0.00
   -1    4   13     -0.09      0.00
   -1    4   12      1.03      0.00
   -1    4   11     -1.01      0.00
   -1    4   10     -0.50      0.00
   -1    4    9      1.42      0.00
   -1    4    8      1.22      0.00
   -1    4    7      1.52      0.00
   -1    4    6      0.74      0.00
   -1    4    5     -0.01      0.00
   -1    4    4      1.14      0.00
   -1    4    3     -1.37      0.00
   -1    4    2      2.33      0.00
   -1    4    1    -10.75      0.00
    1    4    0    -20.45      0.00
    1    4    1     -0.33      0.00
    1    4    2      4.22      0.00
    1    4    3      0.39      0.00
    1    4    4      1.10      0.00
    1    4    5     -1.93      0.00
    1    4    6     -2.16      0.00
    1    4    7     -1.16      0.00
    1    4    8      0.48      0.00
    1    4    9      0.26      0.00
    1    4   10     -0.14      0.00
    1    4   11     -1.05      0.00
    1    4   12     -0.30      0.00
    1    4   13     -0.99      0.00
    1    4   14      1.91      0.00
    1    4   15      0.63      0.00
    1    4   16     -0.79      0.00
    1    4   17     -0.16      0.00
    1    4   18     -0.65      0.00
    1    4   19     -1.55      0.00
    1    4   20      0.59      0.00
    1    4   21      0.14      0.00
    1    4   22      1.59      0.00
    1    4   23      0.59      0.00
    1    4   24     -0.16      0.00
    1    4   25     -2.06      0.00
    1    4   26      3.17      0.00
    1    4   27     -1.25      0.00
   -1    5   26     -0.06      0.00
   -1    5   25      2.67      0.00
   -1    5   24     -0.39      0.00
   -1    5   23     -0.75      0.00
   -1    5   22      1.28      0.00
   -1    5   21     -0.06      0.00
   -1    5   20      1.73      0.00
   -1    5   19      0.16      0.00
   -1    5   18     -0.08      0.00
   -1    5   17      0.57      0.00
   -1    5   16      0.11      0.00
   -1    5   15      1.06      0.00
   -1    5   14     -0.75      0.00
   -1    5   13      0.49      0.00
   -1    5   12      2.05      0.00
   -1    5   11     -0.20      0.00
   -1    5   10      1.45      0.00
   -1    5    9      0.58      0.00
   -1    5    8      2.64      0.00
   -1    5    7      1.87      0.00
   -1    5    6     -0.24      0.00
   -1    5    5      1.32      0.00
   -1    5    4     -1.27      0.00
   -1    5    3      0.35      0.00
   -1    5    2     -2.43      0.00
   -1    5    1     -7.71      0.00
    1    5    0     -5.03      0.00
    1    5    1      7.50      0.00
    1    5    2      5.54      0.00
    1    5    3      0.52      0.00
    1    5    4     -1.49      0.00
    1    5    5     -2.68      0.00
    1    5    6     -3.85      0.00
    1    5    7     -0.57      0.00
    1    5    8      2.00      0.00
    1    5    9      0.05      0.00
    1    5   10      2.69      0.00
    1    5   11      0.08      0.00
    1    5   12      1.74      0.00
    1    5   13      0.18      0.00
    1    5   14      2.14      0.00
    1    5   15      0.10      0.00
    1    5   16     -1.64      0.00
    1    5   17     -0.12      0.00
    1    5   18     -0.64      0.00
    1    5   19     -0.74      0.00
    1    5   20      1.43      0.00
    1    5   21     -0.23      0.00
    1    5   22      2.43      0.00
    1    5   23     -0.64      0.00
    1    5   24     -1.24      0.00
    1    5   25      0.62      0.00
    1    5   26      2.65      0.00
   -1    6   25      2.76      0.00
   -1    6   24     -0.62      0.00
   -1    6   23      0.17      0.00
   -1    6   22     -0.26      0.00
   -1    6   21      1.34      0.00
   -1    6   20     -0.05      0.00
   -1    6   19      1.88      0.00
   -1    6   18      0.24      0.00
   -1    6   17      0.23      0.00
   -1    6   16      0.70      0.00
   -1    6   15     -0.14      0.00
   -1    6   14     -0.09      0.00
   -1    6   13     -0.65      0.00
   -1    6   12      1.14      0.00
   -1    6   11      0.51      0.00
   -1    6   10     -0.44      0.00
   -1    6    9     -0.65      0.00
   -1    6    8      0.90      0.00
   -1    6    7     -1.35      0.00
   -1    6    6     -0.43      0.00
   -1    6    5     -1.51      0.00
   -1    6    4      0.94      0.00
   -1    6    3      0.05      0.00
   -1    6    2      1.74      0.00
   -1    6    1     -5.95      0.00
    1    6    0     -3.38      0.00
    1    6    1      8.79      0.00
    1    6    2      1.92      0.00
    1    6    3     -0.03      0.00
    1    6    4     -0.88      0.00
    1    6    5     -1.83      0.00
    1    6    6     -1.21      0.00
    1    6    7     -0.81      0.00
    1    6    8      1.38      0.00
    1    6    9     -0.94      0.00
    1    6   10     -0.10      0.00
    1    6   11      0.77      0.00
    1    6   12      0.25      0.00
    1    6   13     -0.32      0.00
    1    6   14      2.02      0.00
    1    6   15     -2.40      0.00
    1    6   16      0.19      0.00
    1    6   17     -2.10      0.00
    1    6   18      0.64      0.00
    1    6   19     -1.02      0.00
    1    6   20      1.58      0.00
    1    6   21      0.00      0.00
    1    6   22      2.47      0.00
    1    6   23     -2.52      0.00
    1    6   24     -2.72      0.00
    1    6   25      0.41      0.00
   -1    7   24      0.83      0.00
   -1    7   23     -2.08      0.00
   -1    7   22      0.38      0.00
   -1    7   21      0.11      0.00
   -1    7   20     -0.94      0.00
   -1    7   19      2.58      0.00
   -1    7   18      0.02      0.00
   -1    7   17      2.43      0.00
   -1    7   16     -0.34      0.00
   -1    7   15      1.66      0.00
   -1    7   14     -0.63      0.00
   -1    7   13      0.17      0.00
   -1    7   12      0.37      0.00
   -1    7   11      1.65      0.00
   -1    7   10     -1.14      0.00
   -1    7    9      0.64      0.00
   -1    7    8     -0.37      0.00
   -1    7    7      0.12      0.00
   -1    7    6     -0.95      0.00
   -1    7    5      0.43      0.00
   -1    7    4      0.50      0.00
   -1    7    3      1.41      0.00
   -1    7    2      1.66      0.00
   -1    7    1     -5.04      0.00
    1    7    0     -0.35      0.00
    1    7    1      4.48      0.00
    1    7    2     -0.27      0.00
    1    7    3     -3.33      0.00
    1    7    4     -0.64      0.00
    1    7    5     -2.52      0.00
    1    7    6      0.64      0.00
    1    7    7     -1.45      0.00
    1    7    8      2.21      0.00
    1    7    9     -0.25      0.00
    1    7   10      0.65      0.00
    1    7   11      2.10      0.00
    1    7   12     -0.13      0.00
    1    7   13     -0.15      0.00
    1    7   14     -0.44      0.00
    1    7   15     -0.58      0.00
    1    7   16     -1.67      0.00
    1    7   17     -0.34      0.00
    1    7   18     -0.84      0.00
    1    7   19     -0.62      0.00
    1    7   20      0.11      0.00
    1    7   21     -0.86      0.00
    1    7   22     -0.04      0.00
    1    7   23     -5.20      0.00
    1    7   24     -3.70      0.00
    1    7   25     -0.67      0.00
   -1    8   24      0.66      0.00
   -1    8   23      0.16      0.00
   -1    8   22      1.33      0.00
   -1    8   21      1.70      0.00
   -1    8   20      1.32      0.00
   -1    8   19      3.20      0.00
   -1    8   18      2.86      0.00
   -1    8   17      2.29      0.00
   -1    8   16      0.72      0.00
   -1    8   15      0.03      0.00
   -1    8   14     -0.99      0.00
   -1    8   13     -0.57      0.00
   -1    8   12     -0.49      0.00
   -1    8   11      0.83      0.00
   -1    8   10     -0.59      0.00
   -1    8    9     -0.42      0.00
   -1    8    8      0.39      0.00
   -1    8    7     -0.04      0.00
   -1    8    6     -0.67      0.00
   -1    8    5      1.95      0.00
   -1    8    4     -0.66      0.00
   -1    8    3      2.21      0.00
   -1    8    2      0.21      0.00
   -1    8    1     -2.73      0.00
    1    8    0      2.24      0.00
    1    8    1      2.49      0.00
    1    8    2      0.03      0.00
    1    8    3     -1.96      0.00
    1    8    4     -0.08      0.00
    1    8    5     -1.21      0.00
    1    8    6      1.30      0.00
    1    8    7     -2.14      0.00
    1    8    8      2.20      0.00
    1    8    9      0.27      0.00
    1    8   10      1.15      0.00
    1    8   11      3.25      0.00
    1    8   12      0.10      0.00
    1    8   13      1.03      0.00
    1    8   14      0.25      0.00
    1    8   15      1.55      0.00
    1    8   16     -0.78      0.00
    1    8   17      0.66      0.00
    1    8   18      0.06      0.00
    1    8   19      0.95      0.00
    1    8   20      0.21      0.00
    1    8   21      0.78      0.00
    1    8   22     -1.83      0.00
    1    8   23     -4.50      0.00
    1    8   24     -2.91      0.00
    1    8   25     -0.10      0.00
   -1    9   22     -1.24      0.00
   -1    9   21      1.54      0.00
   -1    9   20     -2.70      0.00
   -1    9   19      3.11      0.00
   -1    9   18     -0.32      0.00
   -1    9   17      2.46      0.00
   -1    9   16      0.46      0.00
   -1    9   15     -1.26      0.00
   -1    9   14     -0.48      0.00
   -1    9   13     -1.01      0.00
   -1    9   12      0.12      0.00
   -1    9   11      0.72      0.00
   -1    9   10      1.43      0.00
   -1    9    9     -0.84      0.00
   -1    9    8      0.75      0.00
   -1    9    7     -1.90      0.00
   -1    9    6     -1.72      0.00
   -1    9    5      0.26      0.00
   -1    9    4     -0.37      0.00
   -1    9    3      1.99      0.00
   -1    9    2      2.10      0.00
   -1    9    1      0.44      0.00
    1    9    0      0.08      0.00
    1    9    1      1.87      0.00
    1    9    2     -0.56      0.00
    1    9    3      0.15      0.00
    1    9    4     -0.97      0.00
    1    9    5      0.80      0.00
    1    9    6     -0.29      0.00
    1    9    7     -1.94      0.00
    1    9    8      0.20      0.00
    1    9    9      0.36      0.00
    1    9   10      0.26      0.00
    1    9   11      2.30      0.00
    1    9   12     -0.64      0.00
    1    9   13      0.46      0.00
    1    9   14      0.14      0.00
    1    9   15      0.40      0.00
    1    9   16     -2.26      0.00
    1    9   17     -0.65      0.00
    1    9   18     -1.74      0.00
    1    9   19      0.30      0.00
    1    9   20     -1.80      0.00
    1    9   21      0.62      0.00
    1    9   22     -3.68      0.00
    1    9   23     -2.82      0.00
    1    9   24     -2.26      0.00
   -1   10   20     -6.75      0.00
   -1   10   19      2.71      0.00
   -1   10   18     -5.68      0.00
   -1   10   17      2.38      0.00
   -1   10   16     -1.73      0.00
   -1   10   15     -1.87      0.00
   -1   10   14     -1.99      0.00
   -1   10   13     -1.51      0.00
   -1   10   12     -1.25      0.00
   -1   10   11      0.93      0.00
   -1   10   10      3.11      0.00
   -1   10    9      1.35      0.00
   -1   10    8      1.46      0.00
   -1   10    7      0.12      0.00
   -1   10    6     -2.23      0.00
   -1   10    5      0.48      0.00
   -1   10    4      0.30      0.00
   -1   10    3      0.75      0.00
   -1   10    2      2.95      0.00
   -1   10    1      0.65      0.00
    1   10    0     -1.35      0.00
    1   10    1     -0.53      0.00
    1   10    2     -0.75      0.00
    1   10    3     -0.97      0.00
    1   10    4     -0.62      0.00
    1   10    5      1.96      0.00
    1   10    6      0.40      0.00
    1   10    7     -0.30      0.00
    1   10    8      0.83      0.00
    1   10    9      0.51      0.00
    1   10   10      0.93      0.00
    1   10   11     -0.11      0.00
    1   10   12     -0.25      0.00
    1   10   13     -0.97      0.00
    1   10   14     -0.49      0.00
    1   10   15     -0.40      0.00
    1   10   16     -4.00      0.00
    1   10   17      0.74      0.00
    1   10   18     -3.07      0.00
    1   10   19      0.05      0.00
    1   10   20     -3.31      0.00
    1   10   22     -5.02      0.00
   -1   11   18     -4.37      0.00
   -1   11   17      1.89      0.00
   -1   11   16     -0.53      0.00
   -1   11   15      0.70      0.00
   -1   11   14     -0.65      0.00
   -1   11   13      0.70      0.00
   -1   11   12     -2.59      0.00
   -1   11   11     -1.30      0.00
   -1   11   10      1.63      0.00
   -1   11    9      0.34      0.00
   -1   11    8      1.00      0.00
   -1   11    7      1.71      0.00
   -1   11    6     -1.89      0.00
   -1   11    5      1.15      0.00
   -1   11    4      0.23      0.00
   -1   11    3     -0.68      0.00
   -1   11    2      1.50      0.00
   -1   11    1      1.34      0.00
    1   11    0      0.12      0.00
    1   11    1     -0.16      0.00
    1   11    2      0.78      0.00
    1   11    3     -1.97      0.00
    1   11    4      0.43      0.00
    1   11    5      0.11      0.00
    1   11    6     -0.33      0.00
    1   11    7     -0.90      0.00
    1   11    8     -0.96      0.00
    1   11    9      0.31      0.00
    1   11   10     -1.53      0.00
    1   11   11     -0.25      0.00
    1   11   12     -0.38      0.00
    1   11   13     -0.50      0.00
    1   11   14      1.25      0.00
    1   11   15     -0.80      0.00
    1   11   16     -1.64      0.00
    1   11   17      1.52      0.00
    1   11   18     -2.13      0.00
   -1   12   16      1.86      0.00
   -1   12   15     -0.19      0.00
   -1   12   14      1.42      0.00
   -1   12   13      1.43      0.00
   -1   12   12     -2.22      0.00
   -1   12   11     -2.47      0.00
   -1   12   10      0.67      0.00
   -1   12    9     -0.82      0.00
   -1   12    8      1.45      0.00
   -1   12    7      1.05      0.00
   -1   12    6     -0.76      0.00
   -1   12    5      0.94      0.00
   -1   12    4      0.93      0.00
   -1   12    3     -0.59      0.00
   -1   12    2      1.08      0.00
   -1   12    1      2.98      0.00
    1   12    0     -0.02      0.00
    1   12    1      0.91      0.00
    1   12    2      0.24      0.00
    1   12    3     -0.83      0.00
    1   12    4      0.22      0.00
    1   12    5      1.00      0.00
    1   12    6     -0.50      0.00
    1   12    7      0.50      0.00
    1   12    8     -0.39      0.00
    1   12    9      0.24      0.00
    1   12   10     -1.56      0.00
    1   12   11      0.93      0.00
    1   12   12     -1.52      0.00
    1   12   13      0.02      0.00
    1   12   14      0.32      0.00
    1   12   15     -2.03      0.00
   -1   13   14      0.94      0.00
   -1   13   13     -0.06      0.00
   -1   13   12     -0.53      0.00
   -1   13   11     -2.40      0.00
   -1   13   10     -0.19      0.00
   -1   13    9     -1.27      0.00
   -1   13    8      0.56      0.00
   -1   13    7      1.11      0.00
   -1   13    6     -1.09      0.00
   -1   13    5      1.51      0.00
   -1   13    4      0.85      0.00
   -1   13    3     -1.31      0.00
   -1   13    2      1.09      0.00
   -1   13    1      1.60      0.00
    1   13    0     -0.78      0.00
    1   13    1     -0.02      0.00
    1   13    2      0.65      0.00
    1   13    3     -0.69      0.00
    1   13    4      1.12      0.00
    1   13    5      1.60      0.00
    1   13    6      0.58      0.00
    1   13    7      1.28      0.00
    1   13    8     -0.28      0.00
    1   13    9     -0.60      0.00
    1   13   10     -1.88      0.00
    1   13   11      3.46      0.00
    1   13   12     -2.51      0.00
    1   13   13      3.64      0.00
    1   13   14      0.26      0.00
    1   13   15     -0.58      0.00
    1   13   16      2.33      0.00
   -1   14   11     -2.06      0.00
   -1   14   10     -1.03      0.00
   -1   14    9     -2.40      0.00
   -1   14    8     -0.23      0.00
   -1   14    7      1.01      0.00
   -1   14    6     -2.18      0.00
   -1   14    5      2.27      0.00
   -1   14    4     -1.44      0.00
   -1   14    3     -0.32      0.00
   -1   14    2     -0.83      0.00
   -1   14    1      0.11      0.00
    1   14    0     -0.56      0.00
    1   14    1     -1.69      0.00
    1   14    2      1.07      0.00
    1   14    3     -2.27      0.00
    1   14    4      1.34      0.00
    1   14    5     -1.03      0.00
    1   14    6      1.27      0.00
    1   14    7     -1.61      0.00
    1   14    8     -0.23      0.00
    1   14    9     -3.46      0.00
    1   14   10     -1.13      0.00
    1   14   11      1.17      0.00
    1   14   12     -2.46      0.00
    1   14   13      3.31      0.00
    1   15    3      0.04      0.00
    1   15    4      1.24      0.00
    1   15    5      0.63      0.00
    1   15    6      2.95      0.00
   -2    0   28     -1.61      0.00
   -2    0   26     -3.11      0.00
   -2    0   24     -0.49      0.00
   -2    0   22      0.49      0.00
   -2    0   20     -0.62      0.00
   -2    0   18     -0.12      0.00
   -2    0   16     -1.00      0.00
   -2    0   14      0.67      0.00
   -2    0   12      1.61      0.00
   -2    0   10     -0.26      0.00
   -2    0    8     -2.99      0.00
   -2    0    6     -0.60      0.00
   -2    0    4     -7.98      0.00
   -2    0    2     -5.93      0.00
    2    0    0     17.18      0.00
    2    0    2     18.31      0.00
    2    0    4     -1.84      0.00
    2    0    6     -6.52      0.00
    2    0    8     -3.17      0.00
    2    0   10     -3.93      0.00
    2    0   12     -3.35      0.00
    2    0   14      0.74      0.00
    2    0   16      1.56      0.00
    2    0   18     -0.19      0.00
    2    0   20     -1.42      0.00
    2    0   22     -0.35      0.00
    2    0   24      1.16      0.00
    2    0   26     -0.30      0.00
   -2    1   28     -1.66      0.00
   -2    1   27     -0.62      0.00
   -2    1   26     -2.52      0.00
   -2    1   25      0.55      0.00
   -2    1   24     -0.38      0.00
   -2    1   23      0.58      0.00
   -2    1   22      0.14      0.00
   -2    1   21      0.20      0.00
   -2    1   20      0.15      0.00
   -2    1   19     -1.34      0.00
   -2    1   18      1.75      0.00
   -2    1   17     -1.12      0.00
   -2    1   16      0.74      0.00
   -2    1   15      0.11      0.00
   -2    1   14      0.89      0.00
   -2    1   13     -0.05      0.00
   -2    1   12     -0.20      0.00
   -2    1   11     -1.35      0.00
   -2    1   10     -0.96      0.00
   -2    1    9     -2.15      0.00
   -2    1    8     -1.16      0.00
   -2    1    7     -2.00      0.00
   -2    1    6      0.90      0.00
   -2    1    5      2.04      0.00
   -2    1    4     -2.09      0.00
   -2    1    3      4.32      0.00
   -2    1    2     -0.23      0.00
   -2    1    1      7.76      0.00
    2    1    0     10.87      0.00
    2    1    1    -10.07      0.00
    2    1    2     12.14      0.00
    2    1    3     -8.80      0.00
    2    1    4      0.42      0.00
    2    1    5     -2.80      0.00
    2    1    6     -2.15      0.00
    2    1    7     -0.28      0.00
    2    1    8      0.99      0.00
    2    1    9     -0.97      0.00
    2    1   10     -0.06      0.00
    2    1   11     -1.96      0.00
    2    1   12     -1.24      0.00
    2    1   13     -0.57      0.00
    2    1   14     -0.03      0.00
    2    1   15      0.40      0.00
    2    1   16      0.09      0.00
    2    1   17     -0.06      0.00
    2    1   18     -0.31      0.00
    2    1   19     -1.13      0.00
    2    1   20     -0.10      0.00
    2    1   21     -1.05      0.00
    2    1   22      0.83      0.00
    2    1   23     -1.10      0.00
    2    1   24      0.76      0.00
    2    1   25     -1.66      0.00
    2    1   26      0.81      0.00
    2    1   27      0.48      0.00
   -2    2   28     -1.12      0.00
   -2    2   27     -0.72      0.00
   -2    2   26     -1.07      0.00
   -2    2   25      0.94      0.00
   -2    2   24     -0.84      0.00
   -2    2   23      0.62      0.00
   -2    2   22     -1.27      0.00
   -2    2   21      0.45      0.00
   -2    2   20     -0.25      0.00
   -2    2   19     -0.68      0.00
   -2    2   18      0.71      0.00
   -2    2   17      0.51      0.00
   -2    2   16     -1.02      0.00
   -2    2   15      0.93      0.00
   -2    2   14      0.67      0.00
   -2    2   13      0.55      0.00
   -2    2   12      0.03      0.00
   -2    2   11      1.39      0.00
   -2    2   10      0.22      0.00
   -2    2    9      0.39      0.00
   -2    2    8      2.47      0.00
   -2    2    7     -0.75      0.00
   -2    2    6      2.52      0.00
   -2    2    5     -0.84      0.00
   -2    2    4      1.37      0.00
   -2    2    3    -10.78      0.00
   -2    2    2      4.62      0.00
   -2    2    1    -14.86      0.00
    2    2    0      9.07      0.00
    2    2    1     12.16      0.00
    2    2    2     12.49      0.00
    2    2    3      0.67      0.00
    2    2    4      4.75      0.00
    2    2    5     -0.18      0.00
    2    2    6     -0.47      0.00
    2    2    7      1.13      0.00
    2    2    8      0.83      0.00
    2    2    9     -0.36      0.00
    2    2   10     -0.08      0.00
    2    2   11     -0.77      0.00
    2    2   12     -0.36      0.00
    2    2   13     -0.62      0.00
    2    2   14     -0.20      0.00
    2    2   15     -0.83      0.00
    2    2   16     -0.83      0.00
    2    2   17     -0.57      0.00
    2    2   18     -0.58      0.00
    2    2   19     -1.18      0.00
    2    2   20      0.43      0.00
    2    2   21     -0.36      0.00
    2    2   22      0.75      0.00
    2    2   23     -1.12      0.00
    2    2   24      0.24      0.00
    2    2   25     -1.57      0.00
    2    2   26      3.56      0.00
    2    2   27      1.55      0.00
   -2    3   27     -1.32      0.00
   -2    3   26     -0.22      0.00
   -2    3   25     -0.52      0.00
   -2    3   24     -1.72      0.00
   -2    3   23     -1.93      0.00
   -2    3   22     -0.17      0.00
   -2    3   21     -2.03      0.00
   -2    3   20      0.88      0.00
   -2    3   19     -2.83      0.00
   -2    3   18     -0.91      0.00
   -2    3   17     -1.37      0.00
   -2    3   16     -3.37      0.00
   -2    3   15     -0.79      0.00
   -2    3   14     -0.21      0.00
   -2    3   13     -0.11      0.00
   -2    3   12     -0.42      0.00
   -2    3   11      0.94      0.00
   -2    3   10     -1.00      0.00
   -2    3    9      0.51      0.00
   -2    3    8     -0.66      0.00
   -2    3    7      1.76      0.00
   -2    3    6     -1.21      0.00
   -2    3    5      3.05      0.00
   -2    3    4     -2.62      0.00
   -2    3    3     -4.13      0.00
   -2    3    2     -3.47      0.00
   -2    3    1     -2.90      0.00
    2    3    0     -0.56      0.00
    2    3    1      6.48      0.00
    2    3    2      4.47      0.00
    2    3    3     -1.67      0.00
    2    3    4      1.36      0.00
    2    3    5     -1.38      0.00
    2    3    6     -1.86      0.00
    2    3    7      0.77      0.00
    2    3    8     -1.52      0.00
    2    3    9     -1.72      0.00
    2    3   10     -2.64      0.00
    2    3   11     -1.52      0.00
    2    3   12     -1.04      0.00
    2    3   13     -0.34      0.00
    2    3   14      0.53      0.00
    2    3   15     -0.35      0.00
    2    3   16     -0.57      0.00
    2    3   17      0.11      0.00
    2    3   18     -0.61      0.00
    2    3   19      0.14      0.00
    2    3   20      0.98      0.00
    2    3   21      1.19      0.00
    2    3   22      0.22      0.00
    2    3   23      0.59      0.00
    2    3   24     -0.53      0.00
    2    3   25      0.62      0.00
    2    3   26      3.68      0.00
    2    3   27      1.19      0.00
   -2    4   27     -1.58      0.00
   -2    4   26      0.51      0.00
   -2    4   25     -0.86      0.00
   -2    4   24     -1.64      0.00
   -2    4   23     -1.96      0.00
   -2    4   22     -0.55      0.00
   -2    4   21     -0.59      0.00
   -2    4   20     -0.04      0.00
   -2    4   19     -0.11      0.00
   -2    4   18     -0.67      0.00
   -2    4   17      0.12      0.00
   -2    4   16     -1.94      0.00
   -2    4   15     -1.66      0.00
   -2    4   14     -0.13      0.00
   -2    4   13     -0.43      0.00
   -2    4   12     -1.26      0.00
   -2    4   11     -0.39      0.00
   -2    4   10     -0.92      0.00
   -2    4    9     -0.96      0.00
   -2    4    8     -1.48      0.00
   -2    4    7     -0.28      0.00
   -2    4    6     -0.42      0.00
   -2    4    5      1.94      0.00
   -2    4    4      2.13      0.00
   -2    4    3     -3.63      0.00
   -2    4    2     -0.05      0.00
   -2    4    1     -2.17      0.00
    2    4    0     -0.37      0.00
    2    4    1      4.11      0.00
    2    4    2     -1.67      0.00
    2    4    3     -3.24      0.00
    2    4    4     -2.73      0.00
    2    4    5     -0.70      0.00
    2    4    6     -1.05      0.00
    2    4    7      2.29      0.00
    2    4    8      1.78      0.00
    2    4    9     -0.16      0.00
    2    4   10      0.68      0.00
    2    4   11     -0.22      0.00
    2    4   12      0.01      0.00
    2    4   13      0.78      0.00
    2    4   14      0.31      0.00
    2    4   15     -0.39      0.00
    2    4   16     -0.81      0.00
    2    4   17     -0.32      0.00
    2    4   18     -1.00      0.00
    2    4   19      0.18      0.00
    2    4   20      0.02      0.00
    2    4   21     -0.25      0.00
    2    4   22     -0.93      0.00
    2    4   23      0.97      0.00
    2    4   24     -1.04      0.00
    2    4   25      2.38      0.00
    2    4   26      2.51      0.00
   -2    5   26      2.46      0.00
   -2    5   25     -0.67      0.00
   -2    5   24      0.13      0.00
   -2    5   23     -3.90      0.00
   -2    5   22      0.53      0.00
   -2    5   21     -1.49      0.00
   -2    5   20      0.87      0.00
   -2    5   19      0.36      0.00
   -2    5   18      0.48      0.00
   -2    5   17      1.47      0.00
   -2    5   16     -0.90      0.00
   -2    5   15     -1.16      0.00
   -2    5   14     -0.35      0.00
   -2    5   13      0.71      0.00
   -2    5   12      0.08      0.00
   -2    5   11      0.80      0.00
   -2    5   10      0.25      0.00
   -2    5    9      2.72      0.00
   -2    5    8     -1.15      0.00
   -2    5    7      0.54      0.00
   -2    5    6      0.35      0.00
   -2    5    5      0.40      0.00
   -2    5    4      3.35      0.00
   -2    5    3     -3.22      0.00
   -2    5    2      1.63      0.00
   -2    5    1     -5.20      0.00
    2    5    0      1.79      0.00
    2    5    1      5.85      0.00
    2    5    2      0.00      0.00
    2    5    3     -0.41      0.00
    2    5    4      0.13      0.00
    2    5    5      0.97      0.00
    2    5    6      0.09      0.00
    2    5    7      2.43      0.00
    2    5    8      0.78      0.00
    2    5    9      0.85      0.00
    2    5   10      0.56      0.00
    2    5   11      1.14      0.00
    2    5   12      0.71      0.00
    2    5   13      0.53      0.00
    2    5   14      0.55      0.00
    2    5   15     -2.52      0.00
    2    5   16      0.73      0.00
    2    5   17     -1.55      0.00
    2    5   18      0.85      0.00
    2    5   19      0.37      0.00
    2    5   20     -0.24      0.00
    2    5   21     -1.19      0.00
    2    5   22     -0.96      0.00
    2    5   23     -0.32      0.00
    2    5   24     -1.42      0.00
    2    5   25      1.21      0.00
    2    5   26      2.05      0.00
   -2    6   25      1.75      0.00
   -2    6   24     -1.31      0.00
   -2    6   23     -0.71      0.00
   -2    6   22     -0.56      0.00
   -2    6   21     -0.43      0.00
   -2    6   20      0.30      0.00
   -2    6   19     -1.11      0.00
   -2    6   18     -0.57      0.00
   -2    6   17      0.43      0.00
   -2    6   16     -0.71      0.00
   -2    6   15     -2.00      0.00
   -2    6   14     -1.65      0.00
   -2    6   13     -0.19      0.00
   -2    6   12      1.06      0.00
   -2    6   11     -1.56      0.00
   -2    6   10      1.15      0.00
   -2    6    9      1.06      0.00
   -2    6    8     -0.39      0.00
   -2    6    7     -0.77      0.00
   -2    6    6      0.30      0.00
   -2    6    5     -0.29      0.00
   -2    6    4      1.34      0.00
   -2    6    3      0.82      0.00
   -2    6    2      1.46      0.00
   -2    6    1     -0.47      0.00
    2    6    0      1.11      0.00
    2    6    1      1.66      0.00
    2    6    2     -0.65      0.00
    2    6    3     -0.66      0.00
    2    6    4      0.15      0.00
    2    6    5      0.66      0.00
    2    6    6     -0.39      0.00
    2    6    7      2.05      0.00
    2    6    8     -1.11      0.00
    2    6    9     -0.23      0.00
    2    6   10     -1.09      0.00
    2    6   11     -0.42      0.00
    2    6   12     -0.62      0.00
    2    6   13      0.16      0.00
    2    6   14     -1.37      0.00
    2    6   15     -0.25      0.00
    2    6   16     -0.19      0.00
    2    6   17      0.86      0.00
    2    6   18      0.89      0.00
    2    6   19      0.37      0.00
    2    6   20     -0.02      0.00
    2    6   21     -1.46      0.00
    2    6   22     -0.23      0.00
    2    6   23     -1.19      0.00
    2    6   24     -1.88      0.00
    2    6   25      0.90      0.00
    2    6   26      1.29      0.00
   -2    7   24     -4.43      0.00
   -2    7   23     -0.28      0.00
   -2    7   22     -5.09      0.00
   -2    7   21     -1.06      0.00
   -2    7   20     -3.01      0.00
   -2    7   19     -1.27      0.00
   -2    7   18     -2.37      0.00
   -2    7   17      0.03      0.00
   -2    7   16      1.50      0.00
   -2    7   15     -2.12      0.00
   -2    7   14     -0.63      0.00
   -2    7   13     -0.04      0.00
   -2    7   12      1.75      0.00
   -2    7   11     -0.35      0.00
   -2    7   10      0.18      0.00
   -2    7    9      1.05      0.00
   -2    7    8     -0.35      0.00
   -2    7    7     -1.73      0.00
   -2    7    6      1.37      0.00
   -2    7    5     -1.08      0.00
   -2    7    4      0.44      0.00
   -2    7    3      1.22      0.00
   -2    7    2      1.85      0.00
   -2    7    1      1.12      0.00
    2    7    0      2.13      0.00
    2    7    1      0.10      0.00
    2    7    2     -0.18      0.00
    2    7    3     -0.48      0.00
    2    7    4     -0.38      0.00
    2    7    5     -0.50      0.00
    2    7    6      0.62      0.00
    2    7    7      1.21      0.00
    2    7    8      0.34      0.00
    2    7    9      0.38      0.00
    2    7   10      0.54      0.00
    2    7   11      0.23      0.00
    2    7   12      0.36      0.00
    2    7   13      0.07      0.00
    2    7   14     -0.74      0.00
    2    7   15      0.50      0.00
    2    7   16      0.29      0.00
    2    7   17      1.40      0.00
    2    7   18      0.88      0.00
    2    7   19      0.59      0.00
    2    7   20      0.55      0.00
    2    7   21     -0.58      0.00
    2    7   22     -0.46      0.00
    2    7   23     -2.01      0.00
    2    7   24     -0.52      0.00
    2    7   25      1.31      0.00
   -2    8   23     -0.80      0.00
   -2    8   22     -1.33      0.00
   -2    8   21     -0.47      0.00
   -2    8   20     -0.40      0.00
   -2    8   19      2.52      0.00
   -2    8   18     -2.07      0.00
   -2    8   17      2.56      0.00
   -2    8   16      0.94      0.00
   -2    8   15     -0.21      0.00
   -2    8   14     -1.66      0.00
   -2    8   13     -0.90      0.00
   -2    8   12      1.03      0.00
   -2    8   11     -0.04      0.00
   -2    8   10     -1.62      0.00
   -2    8    9      1.71      0.00
   -2    8    8     -1.31      0.00
   -2    8    7      0.48      0.00
   -2    8    6      1.44      0.00
   -2    8    5      0.62      0.00
   -2    8    4      0.49      0.00
   -2    8    3     -0.45      0.00
   -2    8    2      0.52      0.00
   -2    8    1     -0.59      0.00
    2    8    0      0.49      0.00
    2    8    1      0.70      0.00
    2    8    2      0.01      0.00
    2    8    3      0.11      0.00
    2    8    4     -0.21      0.00
    2    8    5     -0.75      0.00
    2    8    6      0.43      0.00
    2    8    7      0.00      0.00
    2    8    8     -0.48      0.00
    2    8    9      0.34      0.00
    2    8   10     -0.40      0.00
    2    8   11      1.20      0.00
    2    8   12      0.57      0.00
    2    8   13      0.35      0.00
    2    8   14      1.39      0.00
    2    8   15      0.39      0.00
    2    8   16      1.48      0.00
    2    8   17      3.32      0.00
    2    8   18      0.83      0.00
    2    8   19      4.49      0.00
    2    8   20      2.47      0.00
    2    8   21      1.31      0.00
    2    8   22      0.56      0.00
    2    8   23     -1.44      0.00
    2    8   24      1.53      0.00
    2    8   25      2.13      0.00
   -2    9   22      0.74      0.00
   -2    9   21     -0.57      0.00
   -2    9   20      1.86      0.00
   -2    9   19      2.73      0.00
   -2    9   18      0.75      0.00
   -2    9   17      1.62      0.00
   -2    9   16      1.91      0.00
   -2    9   15      0.54      0.00
   -2    9   14     -0.25      0.00
   -2    9   13     -1.62      0.00
   -2    9   12      0.40      0.00
   -2    9   11     -0.70      0.00
   -2    9   10     -3.00      0.00
   -2    9    9     -0.93      0.00
   -2    9    8     -1.59      0.00
   -2    9    7     -0.17      0.00
   -2    9    6      0.19      0.00
   -2    9    5      1.14      0.00
   -2    9    4      0.75      0.00
   -2    9    3     -0.06      0.00
   -2    9    2      0.75      0.00
   -2    9    1      0.94      0.00
    2    9    0     -0.17      0.00
    2    9    1     -0.06      0.00
    2    9    2      0.01      0.00
    2    9    3     -0.44      0.00
    2    9    4     -0.13      0.00
    2    9    5     -0.75      0.00
    2    9    6     -0.10      0.00
    2    9    7     -0.09      0.00
    2    9    8      1.09      0.00
    2    9    9     -0.47      0.00
    2    9   10      1.40      0.00
    2    9   11      0.14      0.00
    2    9   12      0.27      0.00
    2    9   13     -0.36      0.00
    2    9   14     -0.90      0.00
    2    9   15     -0.22      0.00
    2    9   16     -1.13      0.00
    2    9   17      2.61      0.00
    2    9   18     -1.34      0.00
    2    9   19      3.24      0.00
    2    9   20      0.91      0.00
    2    9   21     -1.50      0.00
    2    9   22     -0.90      0.00
    2    9   23     -1.94      0.00
   -2   10   20      0.31      0.00
   -2   10   19      1.31      0.00
   -2   10   18      1.24      0.00
   -2   10   17     -0.02      0.00
   -2   10   16      1.35      0.00
   -2   10   15     -0.92      0.00
   -2   10   14      0.36      0.00
   -2   10   13     -2.38      0.00
   -2   10   12      0.04      0.00
   -2   10   11      0.82      0.00
   -2   10   10     -1.24      0.00
   -2   10    9     -1.48      0.00
   -2   10    8     -0.02      0.00
   -2   10    7     -1.05      0.00
   -2   10    6     -0.04      0.00
   -2   10    5      0.51      0.00
   -2   10    4      0.74      0.00
   -2   10    3      0.76      0.00
   -2   10    2      0.21      0.00
   -2   10    1      2.26      0.00
    2   10    0     -0.13      0.00
    2   10    1      0.63      0.00
    2   10    2     -0.13      0.00
    2   10    3      0.00      0.00
    2   10    4      1.34      0.00
    2   10    5      0.02      0.00
    2   10    6      0.57      0.00
    2   10    7      1.85      0.00
    2   10    8      1.35      0.00
    2   10    9      0.62      0.00
    2   10   10      1.92      0.00
    2   10   11      0.73      0.00
    2   10   12      0.63      0.00
    2   10   13     -0.06      0.00
    2   10   14     -1.02      0.00
    2   10   15     -1.49      0.00
    2   10   16      0.15      0.00
    2   10   17     -1.30      0.00
    2   10   18     -0.29      0.00
    2   10   19     -0.52      0.00
    2   10   20      0.53      0.00
    2   10   21     -3.98      0.00
   -2   11   18      1.26      0.00
   -2   11   17      0.51      0.00
   -2   11   16      0.67      0.00
   -2   11   15     -0.96      0.00
   -2   11   14     -0.09      0.00
   -2   11   13     -1.86      0.00
   -2   11   12     -1.22      0.00
   -2   11   11      0.66      0.00
   -2   11   10     -0.59      0.00
   -2   11    9     -1.57      0.00
   -2   11    8     -0.36      0.00
   -2   11    7     -0.32      0.00
   -2   11    6     -0.04      0.00
   -2   11    5      0.99      0.00
   -2   11    4      0.42      0.00
   -2   11    3     -0.01      0.00
   -2   11    2     -0.84      0.00
   -2   11    1      0.69      0.00
    2   11    0      0.94      0.00
    2   11    1      1.08      0.00
    2   11    2      0.04      0.00
    2   11    3      0.12      0.00
    2   11    4      2.02      0.00
    2   11    5     -0.91      0.00
    2   11    6     -0.40      0.00
    2   11    7      0.43      0.00
    2   11    8     -0.97      0.00
    2   11    9     -0.35      0.00
    2   11   10      0.95      0.00
    2   11   11      0.49      0.00
    2   11   12      1.18      0.00
    2   11   13      0.48      0.00
    2   11   14     -0.28      0.00
    2   11   15      0.20      0.00
    2   11   16      0.33      0.00
    2   11   17     -1.22      0.00
    2   11   18     -0.54      0.00
   -2   12   15      1.89      0.00
   -2   12   14     -0.70      0.00
   -2   12   13      0.34      0.00
   -2   12   12     -0.48      0.00
   -2   12   11      0.12      0.00
   -2   12   10      1.91      0.00
   -2   12    9     -0.58      0.00
   -2   12    8      1.05      0.00
   -2   12    7     -1.28      0.00
   -2   12    6      0.74      0.00
   -2   12    5      0.31      0.00
   -2   12    4      0.97      0.00
   -2   12    3      0.04      0.00
   -2   12    2     -0.20      0.00
   -2   12    1     -0.20      0.00
    2   12    0      1.27      0.00
    2   12    1      0.15      0.00
    2   12    2     -0.89      0.00
    2   12    3      1.56      0.00
    2   12    4      1.77      0.00
    2   12    5      0.89      0.00
    2   12    6      0.16      0.00
    2   12    7      0.41      0.00
    2   12    8     -0.26      0.00
    2   12    9      0.21      0.00
    2   12   10      0.83      0.00
    2   12   11      1.28      0.00
    2   12   12      0.29      0.00
    2   12   13      0.18      0.00
    2   12   14     -0.40      0.00
    2   12   15      0.66      0.00
   -2   13   14     -0.43      0.00
   -2   13   13      0.07      0.00
   -2   13   12      1.14      0.00
   -2   13   11     -0.52      0.00
   -2   13   10      2.49      0.00
   -2   13    9     -0.32      0.00
   -2   13    8      1.46      0.00
   -2   13    7     -3.18      0.00
   -2   13    6      1.08      0.00
   -2   13    5     -0.52      0.00
   -2   13    4      1.06      0.00
   -2   13    3      0.19      0.00
   -2   13    2     -0.38      0.00
   -2   13    1     -1.07      0.00
    2   13    0      0.21      0.00
    2   13    1      0.03      0.00
    2   13    2     -0.31      0.00
    2   13    3      1.07      0.00
    2   13    4      2.32      0.00
    2   13    5     -0.48      0.00
    2   13    6      0.50      0.00
    2   13    7     -0.94      0.00
    2   13    8     -0.22      0.00
    2   13    9     -0.36      0.00
    2   13   10      0.15      0.00
    2   13   11      1.02      0.00
    2   13   12      0.46      0.00
    2   13   13      0.50      0.00
    2   13   14      1.25      0.00
    2   13   15      0.81      0.00
   -2   14    9      0.42      0.00
   -2   14    8     -0.67      0.00
   -2   14    7     -2.83      0.00
   -2   14    6     -0.91      0.00
   -2   14    5     -1.73      0.00
   -2   14    4     -0.52      0.00
   -2   14    3     -1.48      0.00
   -2   14    2     -0.93      0.00
   -2   14    1     -0.99      0.00
    2   14    0     -1.58      0.00
    2   14    1     -0.95      0.00
    2   14    2     -1.28      0.00
    2   14    3     -0.27      0.00
    2   14    4      1.00      0.00
    2   14    5     -0.46      0.00
    2   14    6     -0.39      0.00
    2   14    7      0.58      0.00
    2   14    8     -0.71      0.00
    2   14    9     -0.27      0.00
    2   14   10     -0.31      0.00
    2   14   11     -0.79      0.00
    2   15    5      2.09      0.00
    2   15    6      0.62      0.00
    2   15    7      3.15      0.00
   -3    0   27      2.25      0.00
   -3    0   25      0.88      0.00
   -3    0   23     -0.15      0.00
   -3    0   21      1.38      0.00
   -3    0   19     -0.48      0.00
   -3    0   17     -0.29      0.00
   -3    0   15     -1.50      0.00
   -3    0   13      1.20      0.00
   -3    0   11      3.49      0.00
   -3    0    9      3.73      0.00
   -3    0    7     -0.85      0.00
   -3    0    5     -1.13      0.00
   -3    0    3      4.45      0.00
   -3    0    1     21.43      0.00
    3    0    1      5.25      0.00
    3    0    3      0.39      0.00
    3    0    5      0.73      0.00
    3    0    7      0.10      0.00
    3    0    9     -0.67      0.00
    3    0   11     -2.09      0.00
    3    0   13     -1.32      0.00
    3    0   15     -0.48      0.00
    3    0   17      0.87      0.00
    3    0   19      0.18      0.00
    3    0   21     -1.08      0.00
    3    0   23     -3.35      0.00
    3    0   25     -0.88      0.00
    3    0   27     -0.21      0.00
   -3    1   28     -0.16      0.00
   -3    1   27      0.83      0.00
   -3    1   26      0.14      0.00
   -3    1   25      1.38      0.00
   -3    1   24      0.40      0.00
   -3    1   23      1.55      0.00
   -3    1   22      2.47      0.00
   -3    1   21      2.90      0.00
   -3    1   20      0.88      0.00
   -3    1   19      0.02      0.00
   -3    1   18     -0.13      0.00
   -3    1   17      0.41      0.00
   -3    1   16     -0.59      0.00
   -3    1   15     -0.40      0.00
   -3    1   14      0.91      0.00
   -3    1   13      0.80      0.00
   -3    1   12      0.24      0.00
   -3    1   11     -0.54      0.00
   -3    1   10     -1.78      0.00
   -3    1    9     -0.16      0.00
   -3    1    8     -2.41      0.00
   -3    1    7     -2.36      0.00
   -3    1    6     -2.33      0.00
   -3    1    5     -1.88      0.00
   -3    1    4     -1.64      0.00
   -3    1    3      4.37      0.00
   -3    1    2      3.24      0.00
   -3    1    1     16.06      0.00
    3    1    0    -14.83      0.00
    3    1    1     -0.58      0.00
    3    1    2     -9.75      0.00
    3    1    3     -1.75      0.00
    3    1    4     -3.11      0.00
    3    1    5      1.81      0.00
    3    1    6      0.02      0.00
    3    1    7      1.82      0.00
    3    1    8      1.44      0.00
    3    1    9      1.37      0.00
    3    1   10      1.57      0.00
    3    1   11      0.02      0.00
    3    1   12      1.13      0.00
    3    1   13     -0.62      0.00
    3    1   14      0.04      0.00
    3    1   15     -1.01      0.00
    3    1   16     -0.39      0.00
    3    1   17     -0.05      0.00
    3    1   18     -0.90      0.00
    3    1   19     -0.26      0.00
    3    1   20      0.12      0.00
    3    1   21     -0.67      0.00
    3    1   22     -0.12      0.00
    3    1   23     -3.66      0.00
    3    1   24     -0.09      0.00
    3    1   25     -0.95      0.00
    3    1   26      1.50      0.00
    3    1   27      0.18      0.00
   -3    2   28     -0.83      0.00
   -3    2   27      0.07      0.00
   -3    2   26      0.82      0.00
   -3    2   25      2.01      0.00
   -3    2   24      0.40      0.00
   -3    2   23      2.26      0.00
   -3    2   22      1.96      0.00
   -3    2   21      4.32      0.00
   -3    2   20      0.91      0.00
   -3    2   19      0.42      0.00
   -3    2   18      1.74      0.00
   -3    2   17      0.02      0.00
   -3    2   16      1.30      0.00
   -3    2   15     -0.11      0.00
   -3    2   14      0.53      0.00
   -3    2   13      1.85      0.00
   -3    2   12      0.60      0.00
   -3    2   11     -0.88      0.00
   -3    2   10      1.24      0.00
   -3    2    9     -0.59      0.00
   -3    2    8      1.63      0.00
   -3    2    7     -1.05      0.00
   -3    2    6      0.29      0.00
   -3    2    5     -2.55      0.00
   -3    2    4     -3.99      0.00
   -3    2    3      0.27      0.00
   -3    2    2     -4.64      0.00
   -3    2    1      5.70      0.00
    3    2    0     -6.24      0.00
    3    2    1     -4.20      0.00
    3    2    2     -1.81      0.00
    3    2    3     -1.62      0.00
    3    2    4      0.31      0.00
    3    2    5      1.55      0.00
    3    2    6      0.21      0.00
    3    2    7      0.57      0.00
    3    2    8     -0.07      0.00
    3    2    9     -0.39      0.00
    3    2   10      0.23      0.00
    3    2   11     -0.51      0.00
    3    2   12      0.96      0.00
    3    2   13     -0.28      0.00
    3    2   14      0.26      0.00
    3    2   15     -0.54      0.00
    3    2   16      0.27      0.00
    3    2   17      0.20      0.00
    3    2   18     -0.40      0.00
    3    2   19     -0.14      0.00
    3    2   20      0.69      0.00
    3    2   21      0.75      0.00
    3    2   22     -1.00      0.00
    3    2   23     -1.38      0.00
    3    2   24     -1.02      0.00
    3    2   25      0.91      0.00
    3    2   26      0.23      0.00
    3    2   27      0.05      0.00
   -3    3   27      0.49      0.00
   -3    3   26      1.09      0.00
   -3    3   25      1.53      0.00
   -3    3   24     -0.89      0.00
   -3    3   23      1.06      0.00
   -3    3   22     -0.84      0.00
   -3    3   21      4.09      0.00
   -3    3   20     -0.95      0.00
   -3    3   19      0.03      0.00
   -3    3   18     -0.24      0.00
   -3    3   17     -0.63      0.00
   -3    3   16     -0.17      0.00
   -3    3   15     -0.02      0.00
   -3    3   14     -0.52      0.00
   -3    3   13      0.74      0.00
   -3    3   12     -0.31      0.00
   -3    3   11     -0.02      0.00
   -3    3   10      0.21      0.00
   -3    3    9      1.13      0.00
   -3    3    8      1.77      0.00
   -3    3    7      0.73      0.00
   -3    3    6      1.03      0.00
   -3    3    5     -2.08      0.00
   -3    3    4     -3.15      0.00
   -3    3    3     -3.75      0.00
   -3    3    2     -0.56      0.00
   -3    3    1     -3.07      0.00
    3    3    0    -11.34      0.00
    3    3    1     -5.01      0.00
    3    3    2     -3.63      0.00
    3    3    3     -0.58      0.00
    3    3    4      0.67      0.00
    3    3    5      1.29      0.00
    3    3    6      1.04      0.00
    3    3    7      0.25      0.00
    3    3    8      0.06      0.00
    3    3    9     -1.95      0.00
    3    3   10     -0.83      0.00
    3    3   11     -1.83      0.00
    3    3   12     -0.54      0.00
    3    3   13      0.39      0.00
    3    3   14     -0.40      0.00
    3    3   15      0.79      0.00
    3    3   16      0.08      0.00
    3    3   17      1.08      0.00
    3    3   18     -0.16      0.00
    3    3   19      0.33      0.00
    3    3   20      1.25      0.00
    3    3   21      1.37      0.00
    3    3   22     -1.43      0.00
    3    3   23      0.79      0.00
    3    3   24     -1.34      0.00
    3    3   25      0.70      0.00
    3    3   26     -0.71      0.00
    3    3   27     -0.82      0.00
   -3    4   27     -1.73      0.00
   -3    4   26     -1.49      0.00
   -3    4   25      0.91      0.00
   -3    4   24     -1.44      0.00
   -3    4   23      0.06      0.00
   -3    4   22     -0.87      0.00
   -3    4   21      0.36      0.00
   -3    4   20      0.52      0.00
   -3    4   19     -2.39      0.00
   -3    4   18     -0.04      0.00
   -3    4   17     -1.31      0.00
   -3    4   16     -1.82      0.00
   -3    4   15      1.02      0.00
   -3    4   14     -0.12      0.00
   -3    4   13     -0.83      0.00
   -3    4   12     -0.19      0.00
   -3    4   11     -2.01      0.00
   -3    4   10     -1.55      0.00
   -3    4    9     -0.62      0.00
   -3    4    8     -0.84      0.00
   -3    4    7      1.62      0.00
   -3    4    6     -0.84      0.00
   -3    4    5      1.52      0.00
   -3    4    4     -2.91      0.00
   -3    4    3     -0.50      0.00
   -3    4    2     -2.56      0.00
   -3    4    1     -2.58      0.00
    3    4    0     -6.70      0.00
    3    4    1     -1.12      0.00
    3    4    2      0.24      0.00
    3    4    3      0.45      0.00
    3    4    4      2.56      0.00
    3    4    5      0.18      0.00
    3    4    6      1.35      0.00
    3    4    7      1.43      0.00
    3    4    8      0.90      0.00
    3    4    9      0.48      0.00
    3    4   10      1.17      0.00
    3    4   11     -0.65      0.00
    3    4   12      0.14      0.00
    3    4   13      0.49      0.00
    3    4   14     -0.29      0.00
    3    4   15     -0.07      0.00
    3    4   16      0.56      0.00
    3    4   17     -0.11      0.00
    3    4   18      0.40      0.00
    3    4   19     -0.70      0.00
    3    4   20      1.11      0.00
    3    4   21     -0.47      0.00
    3    4   22     -0.25      0.00
    3    4   23     -0.19      0.00
    3    4   24     -0.32      0.00
    3    4   25     -0.79      0.00
    3    4   26      1.76      0.00
   -3    5   26     -2.15      0.00
   -3    5   25     -0.29      0.00
   -3    5   24     -2.18      0.00
   -3    5   23     -1.31      0.00
   -3    5   22     -2.54      0.00
   -3    5   21     -0.77      0.00
   -3    5   20     -0.64      0.00
   -3    5   19      0.34      0.00
   -3    5   18      0.32      0.00
   -3    5   17      0.91      0.00
   -3    5   16     -2.23      0.00
   -3    5   15      1.16      0.00
   -3    5   14      1.82      0.00
   -3    5   13     -0.34      0.00
   -3    5   12      1.45      0.00
   -3    5   11     -1.05      0.00
   -3    5   10      0.03      0.00
   -3    5    9     -1.92      0.00
   -3    5    8      0.56      0.00
   -3    5    7      0.71      0.00
   -3    5    6     -0.02      0.00
   -3    5    5      0.75      0.00
   -3    5    4      0.09      0.00
   -3    5    3     -0.98      0.00
   -3    5    2     -2.15      0.00
   -3    5    1     -4.50      0.00
    3    5    0     -2.92      0.00
    3    5    1      0.71      0.00
    3    5    2      1.46      0.00
    3    5    3      0.85      0.00
    3    5    4      1.42      0.00
    3    5    5     -0.20      0.00
    3    5    6     -0.34      0.00
    3    5    7      1.05      0.00
    3    5    8     -1.28      0.00
    3    5    9      0.44      0.00
    3    5   10      0.39      0.00
    3    5   11     -0.61      0.00
    3    5   12      0.03      0.00
    3    5   13      0.50      0.00
    3    5   14     -0.94      0.00
    3    5   15      0.47      0.00
    3    5   16      0.31      0.00
    3    5   17      1.33      0.00
    3    5   18      1.48      0.00
    3    5   19      0.45      0.00
    3    5   20      1.48      0.00
    3    5   21      0.07      0.00
    3    5   22      1.55      0.00
    3    5   23     -0.35      0.00
    3    5   24     -0.92      0.00
    3    5   25      0.94      0.00
    3    5   26      2.27      0.00
   -3    6   25     -1.66      0.00
   -3    6   24      2.66      0.00
   -3    6   23     -1.47      0.00
   -3    6   22      2.46      0.00
   -3    6   21     -0.37      0.00
   -3    6   20      0.33      0.00
   -3    6   19      0.48      0.00
   -3    6   18      1.40      0.00
   -3    6   17      0.92      0.00
   -3    6   16     -1.59      0.00
   -3    6   15     -0.86      0.00
   -3    6   14      2.00      0.00
   -3    6   13     -0.30      0.00
   -3    6   12      0.94      0.00
   -3    6   11      0.83      0.00
   -3    6   10     -0.68      0.00
   -3    6    9     -0.41      0.00
   -3    6    8     -0.76      0.00
   -3    6    7      1.36      0.00
   -3    6    6     -0.97      0.00
   -3    6    5     -0.15      0.00
   -3    6    4      0.52      0.00
   -3    6    3      0.00      0.00
   -3    6    2     -0.92      0.00
   -3    6    1     -3.75      0.00
    3    6    0     -1.11      0.00
    3    6    1      1.88      0.00
    3    6    2      0.42      0.00
    3    6    3      0.58      0.00
    3    6    4      0.24      0.00
    3    6    5     -0.16      0.00
    3    6    6      0.53      0.00
    3    6    7     -0.16      0.00
    3    6    8     -0.83      0.00
    3    6    9     -0.58      0.00
    3    6   10     -0.18      0.00
    3    6   11     -1.43      0.00
    3    6   12     -0.45      0.00
    3    6   13     -0.47      0.00
    3    6   14     -1.58      0.00
    3    6   15     -0.01      0.00
    3    6   16     -0.66      0.00
    3    6   17      0.82      0.00
    3    6   18      0.73      0.00
    3    6   19     -0.02      0.00
    3    6   20      0.43      0.00
    3    6   21      0.88      0.00
    3    6   22      2.75      0.00
    3    6   23     -2.14      0.00
    3    6   24      1.20      0.00
    3    6   25      0.77      0.00
    3    6   26      2.61      0.00
   -3    7   24      0.95      0.00
   -3    7   23     -1.37      0.00
   -3    7   22      0.20      0.00
   -3    7   21     -0.65      0.00
   -3    7   20     -2.24      0.00
   -3    7   19     -2.55      0.00
   -3    7   18      1.07      0.00
   -3    7   17     -0.45      0.00
   -3    7   16      0.29      0.00
   -3    7   15     -1.40      0.00
   -3    7   14      2.16      0.00
   -3    7   13      0.84      0.00
   -3    7   12      1.80      0.00
   -3    7   11      0.46      0.00
   -3    7   10      1.37      0.00
   -3    7    9     -1.22      0.00
   -3    7    8      0.37      0.00
   -3    7    7     -0.28      0.00
   -3    7    6     -0.31      0.00
   -3    7    5     -0.67      0.00
   -3    7    4      0.20      0.00
   -3    7    3      1.88      0.00
   -3    7    2      0.73      0.00
   -3    7    1     -0.81      0.00
    3    7    0     -0.31      0.00
    3    7    1      2.58      0.00
    3    7    2      0.20      0.00
    3    7    3      0.13      0.00
    3    7    4      0.47      0.00
    3    7    5     -0.48      0.00
    3    7    6      0.61      0.00
    3    7    7     -1.54      0.00
    3    7    8     -0.42      0.00
    3    7    9      0.05      0.00
    3    7   10      0.17      0.00
    3    7   11      0.24      0.00
    3    7   12     -0.16      0.00
    3    7   13     -1.78      0.00
    3    7   14     -0.64      0.00
    3    7   15     -2.22      0.00
    3    7   16     -1.10      0.00
    3    7   17      0.26      0.00
    3    7   18     -1.29      0.00
    3    7   19      0.40      0.00
    3    7   20     -0.24      0.00
    3    7   21      1.23      0.00
    3    7   22      2.40      0.00
    3    7   23     -2.66      0.00
    3    7   24      1.95      0.00
    3    7   25      0.99      0.00
   -3    8   23     -0.76      0.00
   -3    8   22     -1.98      0.00
   -3    8   21      0.47      0.00
   -3    8   20     -1.47      0.00
   -3    8   19     -2.59      0.00
   -3    8   18      1.03      0.00
   -3    8   17     -0.30      0.00
   -3    8   16      0.92      0.00
   -3    8   15     -1.68      0.00
   -3    8   14      0.10      0.00
   -3    8   13      1.45      0.00
   -3    8   12      1.27      0.00
   -3    8   11      0.42      0.00
   -3    8   10      1.03      0.00
   -3    8    9      0.70      0.00
   -3    8    8      0.32      0.00
   -3    8    7     -0.23      0.00
   -3    8    6     -0.29      0.00
   -3    8    5     -0.25      0.00
   -3    8    4     -0.99      0.00
   -3    8    3      1.69      0.00
   -3    8    2      0.13      0.00
   -3    8    1      0.02      0.00
    3    8    0      1.87      0.00
    3    8    1      1.87      0.00
    3    8    2      0.52      0.00
    3    8    3     -0.05      0.00
    3    8    4     -0.36      0.00
    3    8    5     -0.66      0.00
    3    8    6     -0.19      0.00
    3    8    7     -2.63      0.00
    3    8    8     -0.01      0.00
    3    8    9     -1.71      0.00
    3    8   10      0.65      0.00
    3    8   11     -0.42      0.00
    3    8   12     -0.43      0.00
    3    8   13     -1.52      0.00
    3    8   14      0.10      0.00
    3    8   15     -1.45      0.00
    3    8   16     -0.31      0.00
    3    8   17      0.26      0.00
    3    8   18     -1.02      0.00
    3    8   19      0.41      0.00
    3    8   20     -0.03      0.00
    3    8   21      0.69      0.00
    3    8   22      0.85      0.00
    3    8   23     -1.56      0.00
   -3    9   22     -0.52      0.00
   -3    9   21     -0.19      0.00
   -3    9   20     -0.85      0.00
   -3    9   19     -1.56      0.00
   -3    9   18     -2.70      0.00
   -3    9   17      1.31      0.00
   -3    9   16     -0.30      0.00
   -3    9   15      0.00      0.00
   -3    9   14     -0.35      0.00
   -3    9   13      1.45      0.00
   -3    9   12      2.06      0.00
   -3    9   11     -1.51      0.00
   -3    9   10     -0.93      0.00
   -3    9    9      1.00      0.00
   -3    9    8      0.24      0.00
   -3    9    7      0.18      0.00
   -3    9    6      0.42      0.00
   -3    9    5     -0.28      0.00
   -3    9    4      0.12      0.00
   -3    9    3     -0.46      0.00
   -3    9    2      1.88      0.00
   -3    9    1     -0.53      0.00
    3    9    0      1.68      0.00
    3    9    1      1.09      0.00
    3    9    2     -0.05      0.00
    3    9    3      0.47      0.00
    3    9    4     -1.06      0.00
    3    9    5      0.43      0.00
    3    9    6      0.15      0.00
    3    9    7     -0.68      0.00
    3    9    8      0.49      0.00
    3    9    9     -0.80      0.00
    3    9   10      1.63      0.00
    3    9   11     -0.20      0.00
    3    9   12     -0.47      0.00
    3    9   13     -1.29      0.00
    3    9   14      0.59      0.00
    3    9   15     -3.51      0.00
    3    9   16      0.39      0.00
    3    9   17     -4.63      0.00
    3    9   18     -1.03      0.00
    3    9   19     -3.11      0.00
    3    9   20     -1.74      0.00
    3    9   21     -1.91      0.00
   -3   10   20     -1.80      0.00
   -3   10   19     -0.11      0.00
   -3   10   18     -5.85      0.00
   -3   10   17      1.31      0.00
   -3   10   16     -0.42      0.00
   -3   10   15      1.04      0.00
   -3   10   14     -0.06      0.00
   -3   10   13      2.00      0.00
   -3   10   12      2.18      0.00
   -3   10   11     -1.07      0.00
   -3   10   10     -1.44      0.00
   -3   10    9     -0.74      0.00
   -3   10    8      0.85      0.00
   -3   10    7     -1.15      0.00
   -3   10    6     -0.76      0.00
   -3   10    5      0.23      0.00
   -3   10    4     -0.46      0.00
   -3   10    3      0.11      0.00
   -3   10    2      2.90      0.00
   -3   10    1      0.76      0.00
    3   10    0      1.25      0.00
    3   10    1     -0.53      0.00
    3   10    2      0.46      0.00
    3   10    3     -1.12      0.00
    3   10    4      0.38      0.00
    3   10    5      0.11      0.00
    3   10    6      1.08      0.00
    3   10    7      0.20      0.00
    3   10    8     -1.36      0.00
    3   10    9      0.48      0.00
    3   10   10      0.38      0.00
    3   10   11      0.19      0.00
    3   10   12     -0.16      0.00
    3   10   13     -0.32      0.00
    3   10   14      1.25      0.00
    3   10   15     -1.98      0.00
    3   10   16     -0.68      0.00
    3   10   17     -3.05      0.00
    3   10   18     -1.37      0.00
    3   10   19     -1.87      0.00
   -3   11   18     -5.99      0.00
   -3   11   17     -0.59      0.00
   -3   11   16     -0.86      0.00
   -3   11   15      0.16      0.00
   -3   11   14     -0.98      0.00
   -3   11   13      2.25      0.00
   -3   11   12     -0.33      0.00
   -3   11   11     -0.41      0.00
   -3   11   10     -2.30      0.00
   -3   11    9     -3.65      0.00
   -3   11    8      0.52      0.00
   -3   11    7     -1.98      0.00
   -3   11    6     -0.74      0.00
   -3   11    5      1.71      0.00
   -3   11    4     -1.15      0.00
   -3   11    3      1.16      0.00
   -3   11    2      1.04      0.00
   -3   11    1      2.23      0.00
    3   11    0      1.13      0.00
    3   11    1     -0.01      0.00
    3   11    2     -0.95      0.00
    3   11    3      0.36      0.00
    3   11    4     -0.95      0.00
    3   11    5      0.27      0.00
    3   11    6      0.05      0.00
    3   11    7     -1.11      0.00
    3   11    8     -2.34      0.00
    3   11    9      0.23      0.00
    3   11   10     -1.40      0.00
    3   11   11     -0.30      0.00
    3   11   12     -1.40      0.00
    3   11   13     -0.51      0.00
    3   11   14      1.42      0.00
    3   11   15     -1.40      0.00
    3   11   16     -0.38      0.00
    3   11   17     -0.53      0.00
   -3   12   15      0.47      0.00
   -3   12   14     -0.79      0.00
   -3   12   13      4.26      0.00
   -3   12   12     -1.83      0.00
   -3   12   11      2.94      0.00
   -3   12   10     -1.06      0.00
   -3   12    9     -0.69      0.00
   -3   12    8     -0.14      0.00
   -3   12    7     -0.07      0.00
   -3   12    6     -1.04      0.00
   -3   12    5      1.94      0.00
   -3   12    4     -1.24      0.00
   -3   12    3      1.36      0.00
   -3   12    2      0.09      0.00
   -3   12    1      3.31      0.00
    3   12    0      0.56      0.00
    3   12    1      0.77      0.00
    3   12    2     -0.34      0.00
    3   12    3      0.67      0.00
    3   12    4      0.07      0.00
    3   12    5     -0.10      0.00
    3   12    6      0.56      0.00
    3   12    7     -0.21      0.00
    3   12    8     -1.10      0.00
    3   12    9      1.68      0.00
    3   12   10     -0.81      0.00
    3   12   11      0.67      0.00
    3   12   12     -0.94      0.00
    3   12   13      0.14      0.00
    3   12   14      1.31      0.00
    3   12   15     -1.85      0.00
   -3   13   13      5.12      0.00
   -3   13   12     -0.48      0.00
   -3   13   11      3.99      0.00
   -3   13   10      1.53      0.00
   -3   13    9      1.00      0.00
   -3   13    8      0.19      0.00
   -3   13    7     -0.48      0.00
   -3   13    6      0.27      0.00
   -3   13    5      1.32      0.00
   -3   13    4     -0.07      0.00
   -3   13    3      1.22      0.00
   -3   13    2      0.16      0.00
   -3   13    1      1.81      0.00
    3   13    0      0.31      0.00
    3   13    1     -0.41      0.00
    3   13    2      1.03      0.00
    3   13    3     -0.94      0.00
    3   13    4      0.45      0.00
    3   13    5     -1.19      0.00
    3   13    6     -0.45      0.00
    3   13    7      0.58      0.00
    3   13    8     -1.47      0.00
    3   13    9      1.74      0.00
    3   13   10     -0.75      0.00
    3   13   11      1.20      0.00
   -3   14    7     -1.57      0.00
   -3   14    6      0.05      0.00
   -3   14    5      0.00      0.00
   -3   14    4     -0.84      0.00
   -3   14    3     -0.46      0.00
   -3   14    2     -0.43      0.00
   -3   14    1     -0.92      0.00
    3   14    0     -0.56      0.00
    3   14    1     -1.57      0.00
    3   14    2     -0.28      0.00
    3   14    3     -0.86      0.00
    3   14    4     -0.37      0.00
    3   14    5     -0.62      0.00
    3   14    6      0.31      0.00
    3   14    7      0.29      0.00
    3   14    8      0.06      0.00
    3   14    9      0.91      0.00
   -4    0   28      1.73      0.00
   -4    0   26     -1.26      0.00
   -4    0   24     -2.08      0.00
   -4    0   22     -0.95      0.00
   -4    0   20     -0.02      0.00
   -4    0   18      1.19      0.00
   -4    0   16      0.09      0.00
   -4    0   14     -0.66      0.00
   -4    0   12     -1.01      0.00
   -4    0   10      4.43      0.00
   -4    0    8      1.32      0.00
   -4    0    6      1.96      0.00
   -4    0    4      0.72      0.00
   -4    0    2     -4.25      0.00
    4    0    0     -6.74      0.00
    4    0    2     -1.30      0.00
    4    0    4     -1.54      0.00
    4    0    6     -3.29      0.00
    4    0    8     -1.64      0.00
    4    0   10      0.11      0.00
    4    0   12      0.86      0.00
    4    0   14      0.41      0.00
    4    0   16      0.00      0.00
    4    0   18      0.76      0.00
    4    0   20      1.64      0.00
    4    0   22     -0.56      0.00
    4    0   24      2.40      0.00
    4    0   26     -0.60      0.00
   -4    1   28      1.24      0.00
   -4    1   27      1.24      0.00
   -4    1   26     -1.17      0.00
   -4    1   25     -1.22      0.00
   -4    1   24     -0.81      0.00
   -4    1   23     -0.86      0.00
   -4    1   22      0.77      0.00
   -4    1   21     -1.14      0.00
   -4    1   20     -0.39      0.00
   -4    1   19      0.21      0.00
   -4    1   18      1.10      0.00
   -4    1   17     -0.65      0.00
   -4    1   16      0.47      0.00
   -4    1   15     -0.85      0.00
   -4    1   14      0.05      0.00
   -4    1   13      0.05      0.00
   -4    1   12     -2.85      0.00
   -4    1   11      1.17      0.00
   -4    1   10     -0.97      0.00
   -4    1    9      1.09      0.00
   -4    1    8     -2.82      0.00
   -4    1    7     -0.79      0.00
   -4    1    6     -1.21      0.00
   -4    1    5      0.45      0.00
   -4    1    4      0.13      0.00
   -4    1    3      4.34      0.00
   -4    1    2      0.72      0.00
   -4    1    1      8.70      0.00
    4    1    0     -1.08      0.00
    4    1    1     -7.12      0.00
    4    1    2      2.85      0.00
    4    1    3     -5.10      0.00
    4    1    4      1.36      0.00
    4    1    5     -2.76      0.00
    4    1    6     -1.21      0.00
    4    1    7     -0.04      0.00
    4    1    8      0.11      0.00
    4    1    9      0.86      0.00
    4    1   10      1.61      0.00
    4    1   11      0.95      0.00
    4    1   12      1.29      0.00
    4    1   13     -0.13      0.00
    4    1   14      0.43      0.00
    4    1   15      0.28      0.00
    4    1   16     -0.57      0.00
    4    1   17     -0.39      0.00
    4    1   18     -0.04      0.00
    4    1   19     -0.64      0.00
    4    1   20      1.21      0.00
    4    1   21     -0.37      0.00
    4    1   22     -1.74      0.00
    4    1   23     -0.09      0.00
    4    1   24      0.50      0.00
    4    1   25      0.59      0.00
    4    1   26     -1.47      0.00
    4    1   27      0.21      0.00
   -4    2   27      0.20      0.00
   -4    2   26     -1.19      0.00
   -4    2   25     -0.92      0.00
   -4    2   24     -0.55      0.00
   -4    2   23      0.85      0.00
   -4    2   22      2.43      0.00
   -4    2   21      0.23      0.00
   -4    2   20     -0.82      0.00
   -4    2   19      0.02      0.00
   -4    2   18      0.58      0.00
   -4    2   17      0.35      0.00
   -4    2   16     -0.12      0.00
   -4    2   15      1.29      0.00
   -4    2   14      1.60      0.00
   -4    2   13      0.58      0.00
   -4    2   12     -0.13      0.00
   -4    2   11     -0.54      0.00
   -4    2   10     -0.66      0.00
   -4    2    9     -1.05      0.00
   -4    2    8     -0.99      0.00
   -4    2    7     -1.27      0.00
   -4    2    6      0.39      0.00
   -4    2    5      0.16      0.00
   -4    2    4     -0.06      0.00
   -4    2    3     -0.24      0.00
   -4    2    2      1.48      0.00
   -4    2    1      1.13      0.00
    4    2    0     -0.30      0.00
    4    2    1      3.72      0.00
    4    2    2      3.78      0.00
    4    2    3      0.95      0.00
    4    2    4      2.48      0.00
    4    2    5     -1.20      0.00
    4    2    6      0.22      0.00
    4    2    7      0.00      0.00
    4    2    8     -0.46      0.00
    4    2    9     -0.32      0.00
    4    2   10     -0.19      0.00
    4    2   11      0.23      0.00
    4    2   12     -0.12      0.00
    4    2   13      0.16      0.00
    4    2   14      0.41      0.00
    4    2   15      1.09      0.00
    4    2   16     -0.60      0.00
    4    2   17      0.73      0.00
    4    2   18     -0.32      0.00
    4    2   19      0.52      0.00
    4    2   20      1.08      0.00
    4    2   21     -0.09      0.00
    4    2   22     -2.19      0.00
    4    2   23      0.15      0.00
    4    2   24     -0.13      0.00
    4    2   25     -0.71      0.00
    4    2   26     -1.58      0.00
    4    2   27     -0.69      0.00
   -4    3   27      1.64      0.00
   -4    3   26      1.76      0.00
   -4    3   25      0.91      0.00
   -4    3   24     -1.87      0.00
   -4    3   23      1.59      0.00
   -4    3   22      1.43      0.00
   -4    3   21      2.57      0.00
   -4    3   20     -0.74      0.00
   -4    3   19     -0.96      0.00
   -4    3   18      0.66      0.00
   -4    3   17     -1.32      0.00
   -4    3   16     -0.75      0.00
   -4    3   15      0.93      0.00
   -4    3   14     -0.13      0.00
   -4    3   13      0.61      0.00
   -4    3   12      0.60      0.00
   -4    3   11     -0.41      0.00
   -4    3   10      2.12      0.00
   -4    3    9     -1.05      0.00
   -4    3    8      1.98      0.00
   -4    3    7     -1.19      0.00
   -4    3    6      1.94      0.00
   -4    3    5      0.29      0.00
   -4    3    4     -0.43      0.00
   -4    3    3     -1.15      0.00
   -4    3    2     -1.04      0.00
   -4    3    1      2.96      0.00
    4    3    0     -2.02      0.00
    4    3    1      3.14      0.00
    4    3    2      1.76      0.00
    4    3    3     -0.12      0.00
    4    3    4      0.74      0.00
    4    3    5     -0.99      0.00
    4    3    6      1.05      0.00
    4    3    7      0.67      0.00
    4    3    8     -0.14      0.00
    4    3    9     -0.58      0.00
    4    3   10     -0.90      0.00
    4    3   11     -0.91      0.00
    4    3   12     -0.17      0.00
    4    3   13      0.19      0.00
    4    3   14      1.24      0.00
    4    3   15     -0.31      0.00
    4    3   16     -0.01      0.00
    4    3   17     -1.06      0.00
    4    3   18      0.24      0.00
    4    3   19     -0.16      0.00
    4    3   20      2.10      0.00
    4    3   21     -2.47      0.00
    4    3   22     -0.32      0.00
    4    3   23     -1.59      0.00
    4    3   24      0.82      0.00
    4    3   25     -1.70      0.00
    4    3   26      0.52      0.00
   -4    4   27      1.29      0.00
   -4    4   26      3.72      0.00
   -4    4   25      4.81      0.00
   -4    4   24     -0.69      0.00
   -4    4   23      3.35      0.00
   -4    4   22      0.10      0.00
   -4    4   21      4.68      0.00
   -4    4   20     -1.84      0.00
   -4    4   19     -0.86      0.00
   -4    4   18     -0.13      0.00
   -4    4   17     -2.33      0.00
   -4    4   16     -0.32      0.00
   -4    4   15      0.54      0.00
   -4    4   14     -0.97      0.00
   -4    4   13     -0.01      0.00
   -4    4   12     -1.12      0.00
   -4    4   11      0.27      0.00
   -4    4   10     -0.37      0.00
   -4    4    9      1.24      0.00
   -4    4    8     -0.91      0.00
   -4    4    7     -1.23      0.00
   -4    4    6     -0.47      0.00
   -4    4    5      0.48      0.00
   -4    4    4      0.43      0.00
   -4    4    3     -1.33      0.00
   -4    4    2      1.20      0.00
   -4    4    1      1.47      0.00
    4    4    0      1.73      0.00
    4    4    1      4.48      0.00
    4    4    2      1.72      0.00
    4    4    3     -0.04      0.00
    4    4    4     -1.17      0.00
    4    4    5     -0.33      0.00
    4    4    6      0.21      0.00
    4    4    7     -0.10      0.00
    4    4    8      0.66      0.00
    4    4    9      0.52      0.00
    4    4   10      0.18      0.00
    4    4   11     -0.09      0.00
    4    4   12      1.23      0.00
    4    4   13      0.09      0.00
    4    4   14      2.09      0.00
    4    4   15     -1.32      0.00
    4    4   16      0.38      0.00
    4    4   17     -0.77      0.00
    4    4   18     -0.21      0.00
    4    4   19      0.82      0.00
    4    4   20      0.77      0.00
    4    4   21     -2.33      0.00
    4    4   22      0.02      0.00
    4    4   23     -0.23      0.00
    4    4   24     -0.62      0.00
    4    4   25      1.87      0.00
    4    4   26      1.00      0.00
   -4    5   26      0.95      0.00
   -4    5   25      6.08      0.00
   -4    5   24     -1.39      0.00
   -4    5   23     -0.12      0.00
   -4    5   22     -0.51      0.00
   -4    5   21     -0.18      0.00
   -4    5   20      0.98      0.00
   -4    5   19     -3.23      0.00
   -4    5   18      1.63      0.00
   -4    5   17     -2.21      0.00
   -4    5   16     -0.52      0.00
   -4    5   15      2.68      0.00
   -4    5   14     -0.74      0.00
   -4    5   13      1.06      0.00
   -4    5   12     -0.35      0.00
   -4    5   11     -0.35      0.00
   -4    5   10     -0.78      0.00
   -4    5    9      1.98      0.00
   -4    5    8     -0.24      0.00
   -4    5    7     -1.23      0.00
   -4    5    6     -0.32      0.00
   -4    5    5      0.55      0.00
   -4    5    4      0.66      0.00
   -4    5    3     -0.09      0.00
   -4    5    2      0.39      0.00
   -4    5    1      0.88      0.00
    4    5    0      0.93      0.00
    4    5    1      4.49      0.00
    4    5    2     -1.01      0.00
    4    5    3      0.57      0.00
    4    5    4     -1.58      0.00
    4    5    5      0.96      0.00
    4    5    6     -0.21      0.00
    4    5    7     -1.66      0.00
    4    5    8      0.35      0.00
    4    5    9     -1.14      0.00
    4    5   10     -0.55      0.00
    4    5   11     -0.35      0.00
    4    5   12      0.96      0.00
    4    5   13      0.78      0.00
    4    5   14      1.08      0.00
    4    5   15     -1.17      0.00
    4    5   16      1.32      0.00
    4    5   17      0.02      0.00
    4    5   18      0.86      0.00
    4    5   19      1.27      0.00
    4    5   20     -0.31      0.00
    4    5   21     -1.11      0.00
    4    5   22      1.51      0.00
    4    5   23     -0.98      0.00
    4    5   24      1.30      0.00
    4    5   25      1.30      0.00
    4    5   26      2.02      0.00
   -4    6   25      4.81      0.00
   -4    6   24     -0.21      0.00
   -4    6   23      0.57      0.00
   -4    6   22      1.49      0.00
   -4    6   21      0.44      0.00
   -4    6   20      3.47      0.00
   -4    6   19     -1.12      0.00
   -4    6   18      1.54      0.00
   -4    6   17     -0.61      0.00
   -4    6   16     -2.28      0.00
   -4    6   15      2.00      0.00
   -4    6   14     -1.27      0.00
   -4    6   13      0.06      0.00
   -4    6   12     -0.13      0.00
   -4    6   11     -1.78      0.00
   -4    6   10     -0.89      0.00
   -4    6    9      0.57      0.00
   -4    6    8      1.28      0.00
   -4    6    7     -1.53      0.00
   -4    6    6      0.79      0.00
   -4    6    5     -0.74      0.00
   -4    6    4      0.41      0.00
   -4    6    3     -0.36      0.00
   -4    6    2     -0.42      0.00
   -4    6    1      1.03      0.00
    4    6    0      1.75      0.00
    4    6    1      2.75      0.00
    4    6    2     -0.07      0.00
    4    6    3      0.36      0.00
    4    6    4      0.27      0.00
    4    6    5      0.41      0.00
    4    6    6     -0.69      0.00
    4    6    7     -1.61      0.00
    4    6    8      0.56      0.00
    4    6    9     -1.41      0.00
    4    6   10     -0.22      0.00
    4    6   11     -0.95      0.00
    4    6   12      0.63      0.00
    4    6   13     -0.36      0.00
    4    6   14      0.12      0.00
    4    6   15     -2.43      0.00
    4    6   16      1.49      0.00
    4    6   17     -0.83      0.00
    4    6   18      0.16      0.00
    4    6   19     -0.19      0.00
    4    6   20     -0.58      0.00
    4    6   21      0.31      0.00
    4    6   22      1.52      0.00
    4    6   23     -0.39      0.00
    4    6   24      0.90      0.00
    4    6   25      1.85      0.00
   -4    7   24      2.60      0.00
   -4    7   23     -0.21      0.00
   -4    7   22      2.21      0.00
   -4    7   21     -1.40      0.00
   -4    7   20      1.80      0.00
   -4    7   19     -1.13      0.00
   -4    7   18      0.55      0.00
   -4    7   17      0.06      0.00
   -4    7   16     -0.60      0.00
   -4    7   15      0.81      0.00
   -4    7   14      1.09      0.00
   -4    7   13      0.17      0.00
   -4    7   12      0.69      0.00
   -4    7   11     -1.07      0.00
   -4    7   10     -0.40      0.00
   -4    7    9      0.89      0.00
   -4    7    8      0.53      0.00
   -4    7    7      1.01      0.00
   -4    7    6     -0.10      0.00
   -4    7    5      0.79      0.00
   -4    7    4     -0.19      0.00
   -4    7    3     -0.29      0.00
   -4    7    2     -0.59      0.00
   -4    7    1      1.19      0.00
    4    7    0      2.56      0.00
    4    7    1     -0.67      0.00
    4    7    2      0.02      0.00
    4    7    3     -0.90      0.00
    4    7    4      0.20      0.00
    4    7    5     -1.07      0.00
    4    7    6     -1.27      0.00
    4    7    7     -0.90      0.00
    4    7    8      0.34      0.00
    4    7    9     -0.33      0.00
    4    7   10      0.86      0.00
    4    7   11     -0.98      0.00
    4    7   12      1.58      0.00
    4    7   13     -1.02      0.00
    4    7   14      0.93      0.00
    4    7   15     -1.24      0.00
    4    7   16      2.72      0.00
    4    7   17     -0.21      0.00
    4    7   18     -0.16      0.00
    4    7   19     -0.66      0.00
    4    7   20     -0.33      0.00
    4    7   21      1.51      0.00
    4    7   22     -0.38      0.00
    4    7   23     -0.04      0.00
   -4    8   23      0.85      0.00
   -4    8   22      1.47      0.00
   -4    8   21      1.02      0.00
   -4    8   20      1.62      0.00
   -4    8   19      1.89      0.00
   -4    8   18      2.51      0.00
   -4    8   17      1.31      0.00
   -4    8   16      0.81      0.00
   -4    8   15     -0.72      0.00
   -4    8   14      0.19      0.00
   -4    8   13     -0.21      0.00
   -4    8   12     -0.41      0.00
   -4    8   11     -1.67      0.00
   -4    8   10      1.65      0.00
   -4    8    9     -0.75      0.00
   -4    8    8      1.14      0.00
   -4    8    7     -0.40      0.00
   -4    8    6     -0.11      0.00
   -4    8    5      0.69      0.00
   -4    8    4      0.01      0.00
   -4    8    3      0.49      0.00
   -4    8    2     -1.10      0.00
   -4    8    1      0.20      0.00
    4    8    0      1.40      0.00
    4    8    1     -1.09      0.00
    4    8    2     -0.82      0.00
    4    8    3      0.39      0.00
    4    8    4     -0.65      0.00
    4    8    5     -0.06      0.00
    4    8    6     -0.72      0.00
    4    8    7      0.41      0.00
    4    8    8     -0.05      0.00
    4    8    9     -0.22      0.00
    4    8   10      0.36      0.00
    4    8   11     -1.18      0.00
    4    8   12      2.02      0.00
    4    8   13      0.26      0.00
    4    8   14      3.68      0.00
    4    8   15      0.18      0.00
    4    8   16      5.35      0.00
    4    8   17     -0.46      0.00
    4    8   18      0.64      0.00
    4    8   19      0.12      0.00
    4    8   20      0.51      0.00
    4    8   21      0.99      0.00
    4    8   22     -0.31      0.00
   -4    9   22      1.55      0.00
   -4    9   21     -0.55      0.00
   -4    9   20      2.53      0.00
   -4    9   19     -0.40      0.00
   -4    9   18      3.99      0.00
   -4    9   17      0.80      0.00
   -4    9   16      0.03      0.00
   -4    9   15     -0.15      0.00
   -4    9   14     -1.84      0.00
   -4    9   13      1.61      0.00
   -4    9   12     -2.17      0.00
   -4    9   11     -1.22      0.00
   -4    9   10      0.53      0.00
   -4    9    9      1.43      0.00
   -4    9    8      0.31      0.00
   -4    9    7      2.14      0.00
   -4    9    6     -0.02      0.00
   -4    9    5      2.27      0.00
   -4    9    4      0.08      0.00
   -4    9    3      1.87      0.00
   -4    9    2     -2.19      0.00
   -4    9    1      0.61      0.00
    4    9    0     -1.03      0.00
    4    9    1     -2.87      0.00
    4    9    2     -0.41      0.00
    4    9    3     -0.69      0.00
    4    9    4      0.29      0.00
    4    9    5      0.50      0.00
    4    9    6      0.17      0.00
    4    9    7      2.26      0.00
    4    9    8     -0.19      0.00
    4    9    9      1.34      0.00
    4    9   10      0.08      0.00
    4    9   11     -0.66      0.00
    4    9   12      2.09      0.00
    4    9   13      1.27      0.00
    4    9   14      2.99      0.00
    4    9   15      0.52      0.00
    4    9   16      3.09      0.00
    4    9   17     -0.75      0.00
    4    9   18      0.46      0.00
    4    9   19      0.92      0.00
    4    9   20      0.62      0.00
    4    9   21      0.80      0.00
   -4   10   20      1.77      0.00
   -4   10   19     -2.11      0.00
   -4   10   18      2.57      0.00
   -4   10   17      2.23      0.00
   -4   10   16     -0.06      0.00
   -4   10   15      1.57      0.00
   -4   10   14     -0.66      0.00
   -4   10   13      2.87      0.00
   -4   10   12     -0.28      0.00
   -4   10   11      0.10      0.00
   -4   10   10      0.60      0.00
   -4   10    9      3.60      0.00
   -4   10    8      0.90      0.00
   -4   10    7      1.59      0.00
   -4   10    6      0.96      0.00
   -4   10    5     -0.61      0.00
   -4   10    4      1.23      0.00
   -4   10    3      0.05      0.00
   -4   10    2      0.08      0.00
   -4   10    1     -0.34      0.00
    4   10    0     -0.76      0.00
    4   10    1     -1.42      0.00
    4   10    2     -1.02      0.00
    4   10    3      0.44      0.00
    4   10    4     -0.40      0.00
    4   10    5      1.13      0.00
    4   10    6      0.52      0.00
    4   10    7      1.57      0.00
    4   10    8     -0.33      0.00
    4   10    9      0.13      0.00
    4   10   10     -1.48      0.00
    4   10   11     -1.71      0.00
    4   10   12      1.14      0.00
    4   10   13      0.52      0.00
    4   10   14      1.42      0.00
    4   10   15     -0.69      0.00
    4   10   16      1.90      0.00
    4   10   17     -0.88      0.00
    4   10   18      1.40      0.00
    4   10   19      1.44      0.00
   -4   11   18     -0.13      0.00
   -4   11   17      2.46      0.00
   -4   11   16     -1.17      0.00
   -4   11   15      0.55      0.00
   -4   11   14     -2.00      0.00
   -4   11   13      0.80      0.00
   -4   11   12     -1.29      0.00
   -4   11   11     -1.56      0.00
   -4   11   10     -2.00      0.00
   -4   11    9      0.79      0.00
   -4   11    8     -0.49      0.00
   -4   11    7     -0.29      0.00
   -4   11    6      0.66      0.00
   -4   11    5     -0.40      0.00
   -4   11    4      0.78      0.00
   -4   11    3      0.19      0.00
   -4   11    2      1.05      0.00
   -4   11    1     -0.69      0.00
    4   11    0      1.21      0.00
    4   11    1     -0.09      0.00
    4   11    2      0.37      0.00
    4   11    3      0.49      0.00
    4   11    4     -0.31      0.00
    4   11    5      0.32      0.00
    4   11    6      0.08      0.00
    4   11    7      0.16      0.00
    4   11    8      0.19      0.00
    4   11    9     -0.52      0.00
    4   11   10     -1.15      0.00
    4   11   11     -1.21      0.00
    4   11   12      1.20      0.00
    4   11   13     -0.53      0.00
    4   11   14     -0.57      0.00
    4   11   15     -2.21      0.00
    4   11   16     -0.13      0.00
    4   11   17     -1.38      0.00
   -4   12   15      0.60      0.00
   -4   12   14     -2.21      0.00
   -4   12   13      0.31      0.00
   -4   12   12     -0.91      0.00
   -4   12   11     -1.99      0.00
   -4   12   10     -0.76      0.00
   -4   12    9     -1.23      0.00
   -4   12    8      0.85      0.00
   -4   12    7     -1.09      0.00
   -4   12    6      1.04      0.00
   -4   12    5      0.45      0.00
   -4   12    4      0.08      0.00
   -4   12    3      0.68      0.00
   -4   12    2      0.27      0.00
   -4   12    1      0.05      0.00
    4   12    0      2.12      0.00
    4   12    1     -1.47      0.00
    4   12    2      1.51      0.00
    4   12    3     -1.88      0.00
    4   12    4     -0.38      0.00
    4   12    5     -0.23      0.00
    4   12    6     -1.41      0.00
    4   12    7      1.27      0.00
    4   12    8      0.34      0.00
    4   12    9      1.61      0.00
    4   12   10     -0.58      0.00
    4   12   11      2.58      0.00
    4   12   12      1.10      0.00
    4   12   13      1.30      0.00
    4   12   14     -0.63      0.00
   -4   13   11      1.55      0.00
   -4   13   10      0.38      0.00
   -4   13    9      0.37      0.00
   -4   13    8     -0.23      0.00
   -4   13    7     -1.13      0.00
   -4   13    6      0.10      0.00
   -4   13    5      0.03      0.00
   -4   13    4      0.72      0.00
   -4   13    3      0.71      0.00
   -4   13    2     -0.09      0.00
   -4   13    1      0.54      0.00
    4   13    0      0.79      0.00
    4   13    1     -1.62      0.00
    4   13    2     -0.24      0.00
    4   13    3     -2.61      0.00
    4   13    4     -1.22      0.00
    4   13    5     -1.45      0.00
    4   13    6     -1.99      0.00
    4   13    7      0.35      0.00
    4   13    8      0.23      0.00
    4   13    9      0.43      0.00
    4   13   10     -1.41      0.00
    4   13   11      1.55      0.00
   -4   14    5     -0.67      0.00
   -4   14    4      0.52      0.00
   -4   14    3      0.16      0.00
   -4   14    2     -0.62      0.00
   -4   14    1      0.23      0.00
    4   14    0     -0.19      0.00
    4   14    1     -0.67      0.00
    4   14    2     -1.20      0.00
    4   14    3     -1.70      0.00
    4   14    4     -0.28      0.00
    4   14    5     -1.46      0.00
   -5    0   27     -3.42      0.00
   -5    0   25     -2.34      0.00
   -5    0   23     -0.72      0.00
   -5    0   21      0.20      0.00
   -5    0   19     -2.20      0.00
   -5    0   17      0.08      0.00
   -5    0   15      0.16      0.00
   -5    0   13     -1.35      0.00
   -5    0   11      0.99      0.00
   -5    0    9      1.46      0.00
   -5    0    7      1.42      0.00
   -5    0    5     -1.80      0.00
   -5    0    3     -4.92      0.00
   -5    0    1     -3.89      0.00
    5    0    1     -1.95      0.00
    5    0    3     -6.47      0.00
    5    0    5     -2.41      0.00
    5    0    7     -0.48      0.00
    5    0    9     -1.90      0.00
    5    0   11     -2.60      0.00
    5    0   13     -0.85      0.00
    5    0   15     -0.85      0.00
    5    0   17     -0.51      0.00
    5    0   19      0.44      0.00
    5    0   21     -0.32      0.00
    5    0   23      1.35      0.00
    5    0   25     -0.97      0.00
   -5    1   27     -1.65      0.00
   -5    1   26     -0.10      0.00
   -5    1   25     -1.86      0.00
   -5    1   24     -0.63      0.00
   -5    1   23     -1.30      0.00
   -5    1   22      0.14      0.00
   -5    1   21     -0.51      0.00
   -5    1   20      1.50      0.00
   -5    1   19     -1.63      0.00
   -5    1   18      0.89      0.00
   -5    1   17     -0.38      0.00
   -5    1   16     -0.32      0.00
   -5    1   15     -1.85      0.00
   -5    1   14      0.44      0.00
   -5    1   13     -2.06      0.00
   -5    1   12      0.87      0.00
   -5    1   11      0.34      0.00
   -5    1   10      1.18      0.00
   -5    1    9     -0.30      0.00
   -5    1    8      0.96      0.00
   -5    1    7     -0.36      0.00
   -5    1    6      1.41      0.00
   -5    1    5     -1.89      0.00
   -5    1    4     -0.52      0.00
   -5    1    3     -0.82      0.00
   -5    1    2     -2.13      0.00
   -5    1    1      2.93      0.00
    5    1    0      0.53      0.00
    5    1    1      4.18      0.00
    5    1    2     -1.98      0.00
    5    1    3     -1.34      0.00
    5    1    4     -0.60      0.00
    5    1    5      0.12      0.00
    5    1    6      0.46      0.00
    5    1    7      0.46      0.00
    5    1    8      0.94      0.00
    5    1    9     -0.38      0.00
    5    1   10      1.27      0.00
    5    1   11     -0.98      0.00
    5    1   12      0.65      0.00
    5    1   13      0.45      0.00
    5    1   14      0.17      0.00
    5    1   15     -0.32      0.00
    5    1   16     -0.75      0.00
    5    1   17     -0.12      0.00
    5    1   18     -1.50      0.00
    5    1   19      0.41      0.00
    5    1   20     -1.36      0.00
    5    1   21     -0.91      0.00
    5    1   22     -1.50      0.00
    5    1   23      0.10      0.00
    5    1   24      1.11      0.00
    5    1   25     -2.72      0.00
    5    1   26      1.23      0.00
    5    1   27      1.95      0.00
   -5    2   27     -1.46      0.00
   -5    2   26     -0.35      0.00
   -5    2   25     -2.25      0.00
   -5    2   24      1.01      0.00
   -5    2   23     -2.11      0.00
   -5    2   22      0.39      0.00
   -5    2   21     -1.22      0.00
   -5    2   20      0.56      0.00
   -5    2   19     -0.09      0.00
   -5    2   18      1.31      0.00
   -5    2   17      0.31      0.00
   -5    2   16      1.50      0.00
   -5    2   15     -1.77      0.00
   -5    2   14      1.07      0.00
   -5    2   13      0.53      0.00
   -5    2   12     -1.10      0.00
   -5    2   11      2.21      0.00
   -5    2   10     -2.24      0.00
   -5    2    9     -0.10      0.00
   -5    2    8     -2.37      0.00
   -5    2    7      0.79      0.00
   -5    2    6     -0.02      0.00
   -5    2    5      0.32      0.00
   -5    2    4     -1.47      0.00
   -5    2    3      0.54      0.00
   -5    2    2     -2.17      0.00
   -5    2    1      1.97      0.00
    5    2    0     -0.43      0.00
    5    2    1      2.33      0.00
    5    2    2     -2.05      0.00
    5    2    3     -0.13      0.00
    5    2    4      0.24      0.00
    5    2    5      1.45      0.00
    5    2    6     -0.41      0.00
    5    2    7      0.07      0.00
    5    2    8     -1.77      0.00
    5    2    9     -1.11      0.00
    5    2   10     -0.96      0.00
    5    2   11     -0.90      0.00
    5    2   12      0.31      0.00
    5    2   13      1.00      0.00
    5    2   14      0.22      0.00
    5    2   15     -0.74      0.00
    5    2   16      0.70      0.00
    5    2   17     -0.26      0.00
    5    2   18      0.43      0.00
    5    2   19     -1.08      0.00
    5    2   20      0.01      0.00
    5    2   21     -3.18      0.00
    5    2   22     -0.23      0.00
    5    2   23     -0.67      0.00
    5    2   24      2.61      0.00
    5    2   25     -3.42      0.00
    5    2   26      0.89      0.00
   -5    3   27     -0.32      0.00
   -5    3   26     -0.33      0.00
   -5    3   25     -3.05      0.00
   -5    3   24      1.11      0.00
   -5    3   23     -3.56      0.00
   -5    3   22     -0.06      0.00
   -5    3   21     -2.30      0.00
   -5    3   20     -1.59      0.00
   -5    3   19      0.97      0.00
   -5    3   18     -1.00      0.00
   -5    3   17      1.53      0.00
   -5    3   16      0.38      0.00
   -5    3   15     -0.46      0.00
   -5    3   14      0.18      0.00
   -5    3   13      0.98      0.00
   -5    3   12      0.09      0.00
   -5    3   11      1.42      0.00
   -5    3   10      1.20      0.00
   -5    3    9     -0.53      0.00
   -5    3    8      0.53      0.00
   -5    3    7      0.77      0.00
   -5    3    6      1.55      0.00
   -5    3    5      0.62      0.00
   -5    3    4     -1.22      0.00
   -5    3    3     -0.94      0.00
   -5    3    2     -1.75      0.00
   -5    3    1     -2.19      0.00
    5    3    0     -2.07      0.00
    5    3    1     -1.29      0.00
    5    3    2     -2.88      0.00
    5    3    3     -1.26      0.00
    5    3    4     -0.22      0.00
    5    3    5      0.56      0.00
    5    3    6     -0.20      0.00
    5    3    7     -0.09      0.00
    5    3    8     -0.15      0.00
    5    3    9     -0.28      0.00
    5    3   10     -0.33      0.00
    5    3   11     -0.54      0.00
    5    3   12      0.82      0.00
    5    3   13      0.03      0.00
    5    3   14     -0.05      0.00
    5    3   15     -1.34      0.00
    5    3   16      0.30      0.00
    5    3   17      0.53      0.00
    5    3   18     -0.01      0.00
    5    3   19     -0.48      0.00
    5    3   20     -0.64      0.00
    5    3   21     -1.67      0.00
    5    3   22     -1.58      0.00
    5    3   23      2.11      0.00
    5    3   24      0.11      0.00
    5    3   25     -0.37      0.00
    5    3   26     -0.61      0.00
   -5    4   26      1.21      0.00
   -5    4   25     -1.10      0.00
   -5    4   24      1.96      0.00
   -5    4   23     -0.16      0.00
   -5    4   22     -0.02      0.00
   -5    4   21     -1.18      0.00
   -5    4   20     -3.08      0.00
   -5    4   19      0.38      0.00
   -5    4   18     -1.80      0.00
   -5    4   17      0.48      0.00
   -5    4   16     -0.40      0.00
   -5    4   15     -0.21      0.00
   -5    4   14     -2.09      0.00
   -5    4   13     -0.09      0.00
   -5    4   12     -0.16      0.00
   -5    4   11      0.02      0.00
   -5    4   10      3.49      0.00
   -5    4    9     -0.59      0.00
   -5    4    8      1.46      0.00
   -5    4    7     -0.34      0.00
   -5    4    6      0.92      0.00
   -5    4    5     -0.05      0.00
   -5    4    4     -0.24      0.00
   -5    4    3      0.13      0.00
   -5    4    2     -1.01      0.00
   -5    4    1     -1.66      0.00
    5    4    0     -1.08      0.00
    5    4    1      0.39      0.00
    5    4    2     -1.49      0.00
    5    4    3      0.81      0.00
    5    4    4      0.38      0.00
    5    4    5      0.39      0.00
    5    4    6     -0.57      0.00
    5    4    7      0.09      0.00
    5    4    8      0.90      0.00
    5    4    9      1.30      0.00
    5    4   10      0.63      0.00
    5    4   11      1.04      0.00
    5    4   12      0.25      0.00
    5    4   13      0.56      0.00
    5    4   14     -0.26      0.00
    5    4   15     -0.58      0.00
    5    4   16      2.27      0.00
    5    4   17      0.25      0.00
    5    4   18      0.76      0.00
    5    4   19     -1.10      0.00
    5    4   20     -1.47      0.00
    5    4   21     -0.61      0.00
    5    4   22     -1.15      0.00
    5    4   23      0.37      0.00
    5    4   24      0.44      0.00
    5    4   25     -1.95      0.00
   -5    5   26      2.77      0.00
   -5    5   25      0.07      0.00
   -5    5   24      0.46      0.00
   -5    5   23      1.41      0.00
   -5    5   22     -4.79      0.00
   -5    5   21      0.15      0.00
   -5    5   20     -8.97      0.00
   -5    5   19      0.78      0.00
   -5    5   18     -2.82      0.00
   -5    5   17     -0.04      0.00
   -5    5   16      2.08      0.00
   -5    5   15      0.95      0.00
   -5    5   14     -0.34      0.00
   -5    5   13      0.38      0.00
   -5    5   12      0.12      0.00
   -5    5   11      0.88      0.00
   -5    5   10      2.43      0.00
   -5    5    9      2.09      0.00
   -5    5    8     -0.14      0.00
   -5    5    7      1.47      0.00
   -5    5    6     -1.27      0.00
   -5    5    5      0.31      0.00
   -5    5    4     -0.13      0.00
   -5    5    3      0.23      0.00
   -5    5    2      0.74      0.00
   -5    5    1     -2.76      0.00
    5    5    0      0.23      0.00
    5    5    1     -1.31      0.00
    5    5    2      0.04      0.00
    5    5    3     -0.35      0.00
    5    5    4      0.85      0.00
    5    5    5     -0.11      0.00
    5    5    6     -0.64      0.00
    5    5    7      0.26      0.00
    5    5    8      0.21      0.00
    5    5    9      0.08      0.00
    5    5   10     -0.35      0.00
    5    5   11      0.21      0.00
    5    5   12     -0.62      0.00
    5    5   13      0.35      0.00
    5    5   14     -0.90      0.00
    5    5   15     -0.94      0.00
    5    5   16      2.92      0.00
    5    5   17     -0.84      0.00
    5    5   18      1.89      0.00
    5    5   19     -1.36      0.00
    5    5   20     -0.73      0.00
    5    5   21      1.34      0.00
    5    5   22     -1.33      0.00
    5    5   23     -0.24      0.00
    5    5   24     -1.25      0.00
    5    5   25     -0.45      0.00
   -5    6   25     -1.10      0.00
   -5    6   24      0.19      0.00
   -5    6   23     -0.24      0.00
   -5    6   22     -0.48      0.00
   -5    6   21     -0.19      0.00
   -5    6   20     -4.49      0.00
   -5    6   19     -0.84      0.00
   -5    6   18     -1.02      0.00
   -5    6   17     -1.76      0.00
   -5    6   16      0.98      0.00
   -5    6   15      1.65      0.00
   -5    6   14     -1.72      0.00
   -5    6   13      0.26      0.00
   -5    6   12     -1.21      0.00
   -5    6   11      0.01      0.00
   -5    6   10      0.67      0.00
   -5    6    9      0.86      0.00
   -5    6    8      0.51      0.00
   -5    6    7      0.20      0.00
   -5    6    6     -0.65      0.00
   -5    6    5     -0.11      0.00
   -5    6    4     -0.85      0.00
   -5    6    3      0.33      0.00
   -5    6    2      1.08      0.00
   -5    6    1     -1.20      0.00
    5    6    0      1.94      0.00
    5    6    1     -0.97      0.00
    5    6    2      1.59      0.00
    5    6    3     -0.69      0.00
    5    6    4      0.59      0.00
    5    6    5     -0.62      0.00
    5    6    6     -0.11      0.00
    5    6    7      1.05      0.00
    5    6    8      0.42      0.00
    5    6    9      0.68      0.00
    5    6   10     -0.36      0.00
    5    6   11     -0.40      0.00
    5    6   12      0.00      0.00
    5    6   13     -0.63      0.00
    5    6   14     -1.48      0.00
    5    6   15     -0.33      0.00
    5    6   16      1.08      0.00
    5    6   17     -0.55      0.00
    5    6   18      0.90      0.00
    5    6   19     -0.27      0.00
    5    6   20     -0.28      0.00
    5    6   21      3.93      0.00
    5    6   22     -2.21      0.00
    5    6   23     -1.31      0.00
    5    6   24     -1.32      0.00
   -5    7   24     -0.22      0.00
   -5    7   23     -3.23      0.00
   -5    7   22      0.68      0.00
   -5    7   21     -3.28      0.00
   -5    7   20     -2.54      0.00
   -5    7   19     -4.19      0.00
   -5    7   18     -0.70      0.00
   -5    7   17     -3.52      0.00
   -5    7   16      0.31      0.00
   -5    7   15      2.72      0.00
   -5    7   14     -0.55      0.00
   -5    7   13      1.48      0.00
   -5    7   12     -0.63      0.00
   -5    7   11      0.62      0.00
   -5    7   10     -0.06      0.00
   -5    7    9      0.75      0.00
   -5    7    8      1.49      0.00
   -5    7    7      0.19      0.00
   -5    7    6      1.06      0.00
   -5    7    5     -0.09      0.00
   -5    7    4     -0.64      0.00
   -5    7    3     -0.66      0.00
   -5    7    2      1.13      0.00
   -5    7    1      0.58      0.00
    5    7    0      0.12      0.00
    5    7    1     -0.06      0.00
    5    7    2     -0.61      0.00
    5    7    3      0.12      0.00
    5    7    4     -0.84      0.00
    5    7    5      0.31      0.00
    5    7    6     -0.02      0.00
    5    7    7      0.35      0.00
    5    7    8     -0.65      0.00
    5    7    9     -0.60      0.00
    5    7   10     -0.93      0.00
    5    7   11      0.22      0.00
    5    7   12      0.62      0.00
    5    7   13      0.25      0.00
    5    7   14      0.02      0.00
    5    7   15      1.14      0.00
    5    7   16      1.41      0.00
    5    7   17      0.22      0.00
    5    7   18     -0.90      0.00
    5    7   19     -0.11      0.00
    5    7   20     -1.20      0.00
    5    7   21      2.65      0.00
    5    7   22     -2.26      0.00
    5    7   23     -3.24      0.00
   -5    8   23     -4.01      0.00
   -5    8   22      1.16      0.00
   -5    8   21     -2.23      0.00
   -5    8   20     -0.25      0.00
   -5    8   19     -0.97      0.00
   -5    8   18      1.38      0.00
   -5    8   17     -2.19      0.00
   -5    8   16      1.40      0.00
   -5    8   15      0.98      0.00
   -5    8   14      0.84      0.00
   -5    8   13      0.71      0.00
   -5    8   12      0.08      0.00
   -5    8   11      0.93      0.00
   -5    8   10     -0.13      0.00
   -5    8    9      1.28      0.00
   -5    8    8     -0.90      0.00
   -5    8    7      0.78      0.00
   -5    8    6     -2.17      0.00
   -5    8    5     -0.54      0.00
   -5    8    4     -1.67      0.00
   -5    8    3     -2.72      0.00
   -5    8    2      0.57      0.00
   -5    8    1      0.51      0.00
    5    8    0      0.28      0.00
    5    8    1      0.44      0.00
    5    8    2      1.10      0.00
    5    8    3      0.06      0.00
    5    8    4     -0.26      0.00
    5    8    5      1.04      0.00
    5    8    6     -0.14      0.00
    5    8    7      0.29      0.00
    5    8    8     -1.51      0.00
    5    8    9     -2.01      0.00
    5    8   10     -0.74      0.00
    5    8   11      0.32      0.00
    5    8   12      0.37      0.00
    5    8   13      1.57      0.00
    5    8   14     -0.33      0.00
    5    8   15      2.37      0.00
    5    8   16      0.69      0.00
    5    8   17      0.47      0.00
    5    8   18     -0.20      0.00
    5    8   19     -0.09      0.00
    5    8   20      0.37      0.00
    5    8   21      1.85      0.00
    5    8   22     -1.60      0.00
   -5    9   21      1.68      0.00
   -5    9   20      0.08      0.00
   -5    9   19      2.45      0.00
   -5    9   18      1.31      0.00
   -5    9   17     -1.93      0.00
   -5    9   16      0.32      0.00
   -5    9   15     -2.47      0.00
   -5    9   14     -0.11      0.00
   -5    9   13     -1.04      0.00
   -5    9   12     -0.79      0.00
   -5    9   11     -1.21      0.00
   -5    9   10     -0.36      0.00
   -5    9    9     -0.89      0.00
   -5    9    8     -0.34      0.00
   -5    9    7     -0.17      0.00
   -5    9    6     -0.16      0.00
   -5    9    5     -0.36      0.00
   -5    9    4     -0.59      0.00
   -5    9    3     -2.23      0.00
   -5    9    2     -0.82      0.00
   -5    9    1      0.13      0.00
    5    9    0      0.43      0.00
    5    9    1      0.56      0.00
    5    9    2      0.56      0.00
    5    9    3     -0.70      0.00
    5    9    4     -0.54      0.00
    5    9    5      0.27      0.00
    5    9    6      0.73      0.00
    5    9    7      0.19      0.00
    5    9    8     -0.60      0.00
    5    9    9     -1.20      0.00
    5    9   10      0.72      0.00
    5    9   11      0.62      0.00
    5    9   12     -0.15      0.00
    5    9   13      0.67      0.00
    5    9   14     -2.22      0.00
    5    9   15      0.07      0.00
    5    9   16     -0.75      0.00
    5    9   17     -1.39      0.00
    5    9   18      0.00      0.00
    5    9   19     -0.65      0.00
    5    9   20     -0.50      0.00
   -5   10   20      0.85      0.00
   -5   10   19     -0.51      0.00
   -5   10   18      2.02      0.00
   -5   10   17     -1.54      0.00
   -5   10   16      1.19      0.00
   -5   10   15     -0.27      0.00
   -5   10   14      0.48      0.00
   -5   10   13      2.79      0.00
   -5   10   12      0.11      0.00
   -5   10   11      0.85      0.00
   -5   10   10      0.78      0.00
   -5   10    9      0.72      0.00
   -5   10    8     -0.33      0.00
   -5   10    7      1.22      0.00
   -5   10    6     -0.30      0.00
   -5   10    5      1.59      0.00
   -5   10    4     -1.64      0.00
   -5   10    3     -0.15      0.00
   -5   10    2     -3.02      0.00
   -5   10    1      0.88      0.00
    5   10    0      2.48      0.00
    5   10    1      1.63      0.00
    5   10    2      0.63      0.00
    5   10    3     -0.50      0.00
    5   10    4     -0.02      0.00
    5   10    5     -0.69      0.00
    5   10    6      1.73      0.00
    5   10    7     -1.48      0.00
    5   10    8     -0.16      0.00
    5   10    9     -1.82      0.00
    5   10   10      1.19      0.00
    5   10   11     -0.07      0.00
    5   10   12     -0.24      0.00
    5   10   13     -1.30      0.00
    5   10   14     -3.71      0.00
    5   10   15     -1.76      0.00
    5   10   16     -2.79      0.00
    5   10   17     -1.54      0.00
    5   10   18     -0.83      0.00
    5   10   19     -2.25      0.00
   -5   11   17     -0.81      0.00
   -5   11   16      0.95      0.00
   -5   11   15     -1.26      0.00
   -5   11   14     -0.26      0.00
   -5   11   13      2.46      0.00
   -5   11   12     -1.18      0.00
   -5   11   11      0.77      0.00
   -5   11   10     -0.15      0.00
   -5   11    9     -0.21      0.00
   -5   11    8     -0.94      0.00
   -5   11    7     -1.53      0.00
   -5   11    6     -0.26      0.00
   -5   11    5      0.49      0.00
   -5   11    4     -0.24      0.00
   -5   11    3      0.26      0.00
   -5   11    2     -1.03      0.00
   -5   11    1      0.80      0.00
    5   11    0      2.39      0.00
    5   11    1      0.54      0.00
    5   11    2      0.12      0.00
    5   11    3     -0.73      0.00
    5   11    4     -1.07      0.00
    5   11    5     -0.59      0.00
    5   11    6     -0.23      0.00
    5   11    7     -0.75      0.00
    5   11    8     -0.33      0.00
    5   11    9      0.37      0.00
    5   11   10      1.74      0.00
    5   11   11      2.41      0.00
    5   11   12      0.13      0.00
    5   11   13     -0.94      0.00
    5   11   14     -3.08      0.00
    5   11   15     -1.93      0.00
    5   11   16     -2.33      0.00
    5   11   17     -0.30      0.00
   -5   12   15     -3.05      0.00
   -5   12   14     -1.91      0.00
   -5   12   13      0.05      0.00
   -5   12   12     -2.84      0.00
   -5   12   11      0.05      0.00
   -5   12   10     -0.90      0.00
   -5   12    9      2.20      0.00
   -5   12    8     -0.30      0.00
   -5   12    7      0.81      0.00
   -5   12    6     -0.33      0.00
   -5   12    5      1.39      0.00
   -5   12    4      0.70      0.00
   -5   12    3      0.63      0.00
   -5   12    2      1.42      0.00
   -5   12    1      1.17      0.00
    5   12    0      0.42      0.00
    5   12    1     -1.10      0.00
    5   12    2     -1.16      0.00
    5   12    3     -1.94      0.00
    5   12    4     -1.39      0.00
    5   12    5     -2.02      0.00
    5   12    6     -0.96      0.00
    5   12    7     -1.13      0.00
    5   12    8     -0.91      0.00
    5   12    9     -0.37      0.00
    5   12   10      0.66      0.00
    5   12   11      1.78      0.00
    5   12   12      0.03      0.00
    5   12   13     -0.39      0.00
    5   12   14     -0.23      0.00
   -5   13   11     -0.39      0.00
   -5   13   10      0.83      0.00
   -5   13    9      1.53      0.00
   -5   13    8      1.44      0.00
   -5   13    7      0.94      0.00
   -5   13    6      0.94      0.00
   -5   13    5      1.27      0.00
   -5   13    4      1.46      0.00
   -5   13    3      0.30      0.00
   -5   13    2      1.60      0.00
   -5   13    1      1.67      0.00
    5   13    0     -0.60      0.00
    5   13    1     -0.45      0.00
    5   13    2     -1.37      0.00
    5   13    3     -0.95      0.00
    5   13    4     -0.08      0.00
    5   13    5     -2.45      0.00
    5   13    6      0.38      0.00
    5   13    7     -1.93      0.00
    5   13    8     -0.69      0.00
    5   13    9     -2.91      0.00
    5   13   10     -0.11      0.00
   -5   14    4      1.46      0.00
   -5   14    3     -0.99      0.00
   -5   14    2      1.10      0.00
   -5   14    1      0.81      0.00
    5   14    0     -0.35      0.00
    5   14    1     -0.56      0.00
    5   14    2      0.15      0.00
    5   14    3      0.18      0.00
    5   14    4      1.67      0.00
   -6    0   26      0.66      0.00
   -6    0   24      1.18      0.00
   -6    0   22     -1.10      0.00
   -6    0   20     -0.04      0.00
   -6    0   18      1.32      0.00
   -6    0   16      0.54      0.00
   -6    0   14      0.16      0.00
   -6    0   12     -0.58      0.00
   -6    0   10     -0.47      0.00
   -6    0    8      0.24      0.00
   -6    0    6      0.40      0.00
   -6    0    4     -0.55      0.00
   -6    0    2      2.51      0.00
    6    0    0      2.28      0.00
    6    0    2     -1.46      0.00
    6    0    4      0.32      0.00
    6    0    6      0.24      0.00
    6    0    8      0.45      0.00
    6    0   10      0.96      0.00
    6    0   12      1.80      0.00
    6    0   14      0.56      0.00
    6    0   16      0.40      0.00
    6    0   18     -1.23      0.00
    6    0   20     -1.15      0.00
    6    0   22     -0.23      0.00
    6    0   24      0.99      0.00
   -6    1   27     -1.05      0.00
   -6    1   26      0.03      0.00
   -6    1   25     -1.49      0.00
   -6    1   24      0.01      0.00
   -6    1   23      0.11      0.00
   -6    1   22     -0.68      0.00
   -6    1   21     -0.58      0.00
   -6    1   20     -1.03      0.00
   -6    1   19      0.76      0.00
   -6    1   18      0.44      0.00
   -6    1   17      0.62      0.00
   -6    1   16     -0.57      0.00
   -6    1   15      0.17      0.00
   -6    1   14      0.08      0.00
   -6    1   13     -1.03      0.00
   -6    1   12      0.25      0.00
   -6    1   11      0.14      0.00
   -6    1   10     -0.19      0.00
   -6    1    9      0.69      0.00
   -6    1    8      0.26      0.00
   -6    1    7      0.22      0.00
   -6    1    6      0.29      0.00
   -6    1    5     -0.47      0.00
   -6    1    4     -0.69      0.00
   -6    1    3     -1.79      0.00
   -6    1    2      2.73      0.00
   -6    1    1     -0.17      0.00
    6    1    0      3.60      0.00
    6    1    1     -0.47      0.00
    6    1    2      1.43      0.00
    6    1    3     -0.16      0.00
    6    1    4      1.27      0.00
    6    1    5     -0.61      0.00
    6    1    6     -1.38      0.00
    6    1    7      0.67      0.00
    6    1    8     -1.35      0.00
    6    1    9      1.41      0.00
    6    1   10      0.18      0.00
    6    1   11      1.56      0.00
    6    1   12      1.40      0.00
    6    1   13      0.47      0.00
    6    1   14      0.98      0.00
    6    1   15      0.24      0.00
    6    1   16      1.46      0.00
    6    1   17     -0.21      0.00
    6    1   18      0.19      0.00
    6    1   19      0.24      0.00
    6    1   20      0.33      0.00
    6    1   21     -0.33      0.00
    6    1   22      0.20      0.00
    6    1   23      0.04      0.00
    6    1   24     -0.72      0.00
    6    1   25     -2.20      0.00
   -6    2   27     -0.32      0.00
   -6    2   26     -2.47      0.00
   -6    2   25     -1.17      0.00
   -6    2   24     -1.73      0.00
   -6    2   23     -0.26      0.00
   -6    2   22      0.75      0.00
   -6    2   21     -0.28      0.00
   -6    2   20     -0.92      0.00
   -6    2   19      0.39      0.00
   -6    2   18      1.32      0.00
   -6    2   17     -0.33      0.00
   -6    2   16      0.69      0.00
   -6    2   15     -1.33      0.00
   -6    2   14      2.49      0.00
   -6    2   13     -1.98      0.00
   -6    2   12      1.87      0.00
   -6    2   11     -0.57      0.00
   -6    2   10     -0.76      0.00
   -6    2    9     -1.44      0.00
   -6    2    8     -0.36      0.00
   -6    2    7     -0.81      0.00
   -6    2    6      1.05      0.00
   -6    2    5      1.00      0.00
   -6    2    4     -0.41      0.00
   -6    2    3     -0.01      0.00
   -6    2    2     -0.14      0.00
   -6    2    1      2.31      0.00
    6    2    0      0.37      0.00
    6    2    1     -1.79      0.00
    6    2    2      0.97      0.00
    6    2    3     -0.86      0.00
    6    2    4      0.87      0.00
    6    2    5     -0.97      0.00
    6    2    6     -0.94      0.00
    6    2    7      0.30      0.00
    6    2    8     -1.04      0.00
    6    2    9     -0.37      0.00
    6    2   10     -0.04      0.00
    6    2   11     -0.54      0.00
    6    2   12      0.49      0.00
    6    2   13     -1.24      0.00
    6    2   14     -0.13      0.00
    6    2   15     -0.22      0.00
    6    2   16      0.24      0.00
    6    2   17      0.12      0.00
    6    2   18      0.31      0.00
    6    2   19      1.11      0.00
    6    2   20      0.46      0.00
    6    2   21      1.08      0.00
    6    2   22     -1.51      0.00
    6    2   23      3.70      0.00
    6    2   24     -4.23      0.00
    6    2   25     -0.08      0.00
   -6    3   27      0.88      0.00
   -6    3   26     -1.47      0.00
   -6    3   25     -1.01      0.00
   -6    3   24     -2.55      0.00
   -6    3   23     -2.30      0.00
   -6    3   22     -1.14      0.00
   -6    3   21      0.35      0.00
   -6    3   20     -1.35      0.00
   -6    3   19      0.06      0.00
   -6    3   18      2.29      0.00
   -6    3   17     -0.91      0.00
   -6    3   16      2.26      0.00
   -6    3   15     -2.04      0.00
   -6    3   14      3.04      0.00
   -6    3   13     -0.94      0.00
   -6    3   12      1.02      0.00
   -6    3   11      1.17      0.00
   -6    3   10     -1.77      0.00
   -6    3    9      0.38      0.00
   -6    3    8     -2.23      0.00
   -6    3    7      0.71      0.00
   -6    3    6     -0.76      0.00
   -6    3    5      1.55      0.00
   -6    3    4     -0.70      0.00
   -6    3    3     -0.73      0.00
   -6    3    2     -1.48      0.00
   -6    3    1      0.85      0.00
    6    3    0     -0.64      0.00
    6    3    1      0.19      0.00
    6    3    2      0.42      0.00
    6    3    3     -0.66      0.00
    6    3    4     -0.18      0.00
    6    3    5     -0.76      0.00
    6    3    6      0.43      0.00
    6    3    7      1.75      0.00
    6    3    8      0.76      0.00
    6    3    9      0.85      0.00
    6    3   10      0.45      0.00
    6    3   11     -0.55      0.00
    6    3   12      0.07      0.00
    6    3   13     -0.31      0.00
    6    3   14      0.19      0.00
    6    3   15      0.10      0.00
    6    3   16      0.20      0.00
    6    3   17     -1.27      0.00
    6    3   18      0.73      0.00
    6    3   19     -0.02      0.00
    6    3   20      1.68      0.00
    6    3   21     -1.03      0.00
    6    3   22     -0.33      0.00
    6    3   23      0.77      0.00
    6    3   24     -3.08      0.00
    6    3   25     -1.12      0.00
   -6    4   26     -0.44      0.00
   -6    4   25     -0.05      0.00
   -6    4   24      0.36      0.00
   -6    4   23     -2.19      0.00
   -6    4   22      1.54      0.00
   -6    4   21      0.97      0.00
   -6    4   20      1.05      0.00
   -6    4   19      0.88      0.00
   -6    4   18      1.29      0.00
   -6    4   17     -0.57      0.00
   -6    4   16      1.10      0.00
   -6    4   15     -3.23      0.00
   -6    4   14      1.37      0.00
   -6    4   13     -1.02      0.00
   -6    4   12      0.58      0.00
   -6    4   11      1.10      0.00
   -6    4   10     -0.26      0.00
   -6    4    9      1.05      0.00
   -6    4    8     -1.43      0.00
   -6    4    7     -0.22      0.00
   -6    4    6     -1.37      0.00
   -6    4    5      0.19      0.00
   -6    4    4     -0.16      0.00
   -6    4    3      0.22      0.00
   -6    4    2     -1.20      0.00
   -6    4    1      0.27      0.00
    6    4    0     -0.35      0.00
    6    4    1      1.33      0.00
    6    4    2      0.98      0.00
    6    4    3     -0.06      0.00
    6    4    4      0.03      0.00
    6    4    5     -0.20      0.00
    6    4    6     -0.35      0.00
    6    4    7      0.31      0.00
    6    4    8     -0.37      0.00
    6    4    9      0.41      0.00
    6    4   10     -0.56      0.00
    6    4   11      0.30      0.00
    6    4   12     -0.62      0.00
    6    4   13      1.49      0.00
    6    4   14      0.61      0.00
    6    4   15      1.51      0.00
    6    4   16      0.61      0.00
    6    4   17     -1.05      0.00
    6    4   18      0.42      0.00
    6    4   19     -1.62      0.00
    6    4   20      1.49      0.00
    6    4   21     -3.35      0.00
    6    4   22     -0.61      0.00
    6    4   23     -0.77      0.00
    6    4   24     -3.40      0.00
   -6    5   26     -1.31      0.00
   -6    5   25      1.48      0.00
   -6    5   24     -0.12      0.00
   -6    5   23     -2.16      0.00
   -6    5   22      0.77      0.00
   -6    5   21     -2.36      0.00
   -6    5   20      1.97      0.00
   -6    5   19     -0.42      0.00
   -6    5   18      1.66      0.00
   -6    5   17      0.91      0.00
   -6    5   16      1.93      0.00
   -6    5   15     -1.49      0.00
   -6    5   14      0.36      0.00
   -6    5   13      0.89      0.00
   -6    5   12      1.28      0.00
   -6    5   11      1.56      0.00
   -6    5   10      1.33      0.00
   -6    5    9      1.99      0.00
   -6    5    8      0.14      0.00
   -6    5    7     -0.40      0.00
   -6    5    6      0.04      0.00
   -6    5    5     -0.94      0.00
   -6    5    4      0.71      0.00
   -6    5    3      1.23      0.00
   -6    5    2      0.01      0.00
   -6    5    1     -0.70      0.00
    6    5    0      0.11      0.00
    6    5    1      2.14      0.00
    6    5    2      0.18      0.00
    6    5    3      0.22      0.00
    6    5    4      0.34      0.00
    6    5    5      0.47      0.00
    6    5    6      0.49      0.00
    6    5    7     -0.32      0.00
    6    5    8      0.25      0.00
    6    5    9     -0.25      0.00
    6    5   10     -0.57      0.00
    6    5   11      0.47      0.00
    6    5   12     -0.68      0.00
    6    5   13      1.57      0.00
    6    5   14     -1.13      0.00
    6    5   15      1.76      0.00
    6    5   16     -0.96      0.00
    6    5   17      0.57      0.00
    6    5   18      0.40      0.00
    6    5   19     -0.22      0.00
    6    5   20      1.84      0.00
    6    5   21     -2.10      0.00
    6    5   22     -1.08      0.00
    6    5   23     -0.68      0.00
   -6    6   25      1.56      0.00
   -6    6   24     -1.40      0.00
   -6    6   23      1.16      0.00
   -6    6   22     -1.53      0.00
   -6    6   21      2.52      0.00
   -6    6   20     -0.01      0.00
   -6    6   19      3.97      0.00
   -6    6   18      0.57      0.00
   -6    6   17      2.28      0.00
   -6    6   16      2.85      0.00
   -6    6   15     -1.66      0.00
   -6    6   14     -1.00      0.00
   -6    6   13      0.25      0.00
   -6    6   12      0.77      0.00
   -6    6   11      0.56      0.00
   -6    6   10      0.19      0.00
   -6    6    9      2.00      0.00
   -6    6    8     -1.98      0.00
   -6    6    7      0.48      0.00
   -6    6    6     -0.89      0.00
   -6    6    5     -0.60      0.00
   -6    6    4     -0.27      0.00
   -6    6    3      1.24      0.00
   -6    6    2      0.29      0.00
   -6    6    1     -1.18      0.00
    6    6    0     -0.12      0.00
    6    6    1      2.51      0.00
    6    6    2     -0.65      0.00
    6    6    3      0.93      0.00
    6    6    4      0.66      0.00
    6    6    5      0.66      0.00
    6    6    6      0.59      0.00
    6    6    7      0.20      0.00
    6    6    8      0.75      0.00
    6    6    9      0.22      0.00
    6    6   10      0.77      0.00
    6    6   11      0.84      0.00
    6    6   12      0.16      0.00
    6    6   13      0.68      0.00
    6    6   14     -0.49      0.00
    6    6   15      1.64      0.00
    6    6   16     -0.46      0.00
    6    6   17      1.70      0.00
    6    6   18     -1.63      0.00
    6    6   19      0.87      0.00
    6    6   20      0.74      0.00
    6    6   21     -1.19      0.00
    6    6   22     -1.48      0.00
   -6    7   24     -1.03      0.00
   -6    7   23      0.28      0.00
   -6    7   22     -1.13      0.00
   -6    7   21      0.56      0.00
   -6    7   20     -0.26      0.00
   -6    7   19      1.57      0.00
   -6    7   18     -1.78      0.00
   -6    7   17      0.73      0.00
   -6    7   16      1.76      0.00
   -6    7   15     -0.14      0.00
   -6    7   14     -0.94      0.00
   -6    7   13      0.32      0.00
   -6    7   12      0.97      0.00
   -6    7   11     -0.85      0.00
   -6    7   10      0.44      0.00
   -6    7    9      0.14      0.00
   -6    7    8     -0.82      0.00
   -6    7    7     -0.10      0.00
   -6    7    6      0.82      0.00
   -6    7    5      1.38      0.00
   -6    7    4      0.33      0.00
   -6    7    3      1.57      0.00
   -6    7    2      0.85      0.00
   -6    7    1     -0.50      0.00
    6    7    0      0.21      0.00
    6    7    1     -0.24      0.00
    6    7    2     -1.31      0.00
    6    7    3     -0.24      0.00
    6    7    4      0.48      0.00
    6    7    5      1.00      0.00
    6    7    6     -0.33      0.00
    6    7    7     -0.19      0.00
    6    7    8     -1.75      0.00
    6    7    9     -1.02      0.00
    6    7   10      0.58      0.00
    6    7   11     -0.12      0.00
    6    7   12     -0.14      0.00
    6    7   13     -0.54      0.00
    6    7   14     -0.64      0.00
    6    7   15      2.05      0.00
    6    7   16     -0.24      0.00
    6    7   17      1.46      0.00
    6    7   18     -2.83      0.00
    6    7   19     -0.46      0.00
    6    7   20      0.31      0.00
    6    7   21     -1.40      0.00
    6    7   22     -2.12      0.00
   -6    8   22     -2.17      0.00
   -6    8   21     -0.55      0.00
   -6    8   20      0.99      0.00
   -6    8   19      1.20      0.00
   -6    8   18      0.33      0.00
   -6    8   17      0.70      0.00
   -6    8   16      2.40      0.00
   -6    8   15      1.89      0.00
   -6    8   14      0.89      0.00
   -6    8   13      1.46      0.00
   -6    8   12      1.51      0.00
   -6    8   11      0.25      0.00
   -6    8   10      0.86      0.00
   -6    8    9      0.04      0.00
   -6    8    8     -0.34      0.00
   -6    8    7     -2.27      0.00
   -6    8    6     -0.35      0.00
   -6    8    5     -0.07      0.00
   -6    8    4      0.02      0.00
   -6    8    3      0.55      0.00
   -6    8    2      0.96      0.00
   -6    8    1     -1.06      0.00
    6    8    0      1.27      0.00
    6    8    1      0.03      0.00
    6    8    2     -0.96      0.00
    6    8    3      0.37      0.00
    6    8    4      0.71      0.00
    6    8    5      1.50      0.00
    6    8    6      0.56      0.00
    6    8    7      0.65      0.00
    6    8    8     -2.09      0.00
    6    8    9      0.94      0.00
    6    8   10      0.46      0.00
    6    8   11     -0.14      0.00
    6    8   12     -1.12      0.00
    6    8   13     -1.11      0.00
    6    8   14     -0.94      0.00
    6    8   15      1.40      0.00
    6    8   16      0.38      0.00
    6    8   17      0.49      0.00
    6    8   18     -1.31      0.00
    6    8   19      0.83      0.00
    6    8   20      1.48      0.00
   -6    9   21      1.54      0.00
   -6    9   20      0.84      0.00
   -6    9   19      3.22      0.00
   -6    9   18      0.20      0.00
   -6    9   17     -0.47      0.00
   -6    9   16      0.41      0.00
   -6    9   15     -1.29      0.00
   -6    9   14      0.38      0.00
   -6    9   13      0.18      0.00
   -6    9   12     -0.47      0.00
   -6    9   11      0.70      0.00
   -6    9   10     -0.45      0.00
   -6    9    9      0.93      0.00
   -6    9    8     -1.20      0.00
   -6    9    7     -0.50      0.00
   -6    9    6     -2.57      0.00
   -6    9    5     -0.43      0.00
   -6    9    4     -0.23      0.00
   -6    9    3     -0.28      0.00
   -6    9    2      1.33      0.00
   -6    9    1     -1.15      0.00
    6    9    0      0.40      0.00
    6    9    1     -0.23      0.00
    6    9    2     -2.38      0.00
    6    9    3      0.64      0.00
    6    9    4      0.38      0.00
    6    9    5      0.94      0.00
    6    9    6      0.95      0.00
    6    9    7     -0.16      0.00
    6    9    8     -1.51      0.00
    6    9    9      2.17      0.00
    6    9   10      0.50      0.00
    6    9   11     -0.38      0.00
    6    9   12     -0.08      0.00
    6    9   13     -0.79      0.00
    6    9   14     -0.06      0.00
    6    9   15      1.67      0.00
    6    9   16     -0.57      0.00
    6    9   17      0.56      0.00
    6    9   18     -2.16      0.00
    6    9   19      0.65      0.00
   -6   10   19      2.88      0.00
   -6   10   18     -0.72      0.00
   -6   10   17      0.18      0.00
   -6   10   16      0.94      0.00
   -6   10   15     -1.98      0.00
   -6   10   14      2.45      0.00
   -6   10   13      0.10      0.00
   -6   10   12      0.07      0.00
   -6   10   11      1.06      0.00
   -6   10   10      0.33      0.00
   -6   10    9      1.81      0.00
   -6   10    8      0.54      0.00
   -6   10    7      0.90      0.00
   -6   10    6      0.30      0.00
   -6   10    5     -1.75      0.00
   -6   10    4      0.12      0.00
   -6   10    3     -1.36      0.00
   -6   10    2      0.81      0.00
   -6   10    1     -0.97      0.00
    6   10    0      0.39      0.00
    6   10    1     -0.53      0.00
    6   10    2     -1.86      0.00
    6   10    3      1.75      0.00
    6   10    4     -0.35      0.00
    6   10    5      2.02      0.00
    6   10    6      0.05      0.00
    6   10    7      0.04      0.00
    6   10    8     -1.00      0.00
    6   10    9      1.50      0.00
    6   10   10     -0.77      0.00
    6   10   11     -0.89      0.00
    6   10   12      0.55      0.00
    6   10   13      0.05      0.00
    6   10   14     -0.08      0.00
    6   10   15      2.49      0.00
    6   10   16     -1.32      0.00
    6   10   17      1.82      0.00
    6   10   18     -1.71      0.00
   -6   11   17      2.30      0.00
   -6   11   16      1.76      0.00
   -6   11   15      1.90      0.00
   -6   11   14      1.86      0.00
   -6   11   13      2.13      0.00
   -6   11   12     -0.43      0.00
   -6   11   11     -0.84      0.00
   -6   11   10     -0.62      0.00
   -6   11    9     -0.73      0.00
   -6   11    8     -2.01      0.00
   -6   11    7     -0.24      0.00
   -6   11    6      0.64      0.00
   -6   11    5     -1.06      0.00
   -6   11    4     -0.89      0.00
   -6   11    3     -1.02      0.00
   -6   11    2     -0.37      0.00
   -6   11    1      0.49      0.00
    6   11    0      0.39      0.00
    6   11    1     -2.90      0.00
    6   11    2     -0.02      0.00
    6   11    3     -0.83      0.00
    6   11    4     -0.70      0.00
    6   11    5      0.06      0.00
    6   11    6     -0.93      0.00
    6   11    7     -0.04      0.00
    6   11    8     -0.27      0.00
    6   11    9      0.72      0.00
    6   11   10     -1.58      0.00
    6   11   11      0.30      0.00
    6   11   12      0.64      0.00
    6   11   13      1.11      0.00
    6   11   14      0.43      0.00
    6   11   15      2.12      0.00
    6   11   16     -0.50      0.00
   -6   12   14     -0.85      0.00
   -6   12   13      0.85      0.00
   -6   12   12     -2.23      0.00
   -6   12   11     -1.77      0.00
   -6   12   10     -0.36      0.00
   -6   12    9     -1.33      0.00
   -6   12    8     -1.01      0.00
   -6   12    7     -2.90      0.00
   -6   12    6      1.52      0.00
   -6   12    5     -0.58      0.00
   -6   12    4     -0.69      0.00
   -6   12    3     -0.07      0.00
   -6   12    2     -0.46      0.00
   -6   12    1      0.73      0.00
    6   12    0     -0.43      0.00
    6   12    1     -1.50      0.00
    6   12    2      0.50      0.00
    6   12    3     -1.67      0.00
    6   12    4     -0.37      0.00
    6   12    5     -2.17      0.00
    6   12    6     -0.99      0.00
    6   12    7     -1.90      0.00
    6   12    8     -0.48      0.00
    6   12    9     -2.97      0.00
    6   12   10     -2.21      0.00
    6   12   11     -0.85      0.00
    6   12   12     -0.47      0.00
    6   12   13      0.96      0.00
   -6   13   10      0.10      0.00
   -6   13    9      2.97      0.00
   -6   13    8     -0.63      0.00
   -6   13    7     -0.16      0.00
   -6   13    6      0.63      0.00
   -6   13    5      2.20      0.00
   -6   13    4      0.49      0.00
   -6   13    3      1.11      0.00
   -6   13    2      0.86      0.00
   -6   13    1      0.21      0.00
    6   13    0      0.39      0.00
    6   13    1      0.94      0.00
    6   13    2      1.16      0.00
    6   13    3     -0.24      0.00
    6   13    4      0.29      0.00
    6   13    5     -0.54      0.00
    6   13    6     -0.55      0.00
    6   13    7      0.72      0.00
    6   13    8     -0.39      0.00
    6   13    9     -1.31      0.00
   -6   14    3      0.64      0.00
   -6   14    2      0.84      0.00
   -6   14    1      0.20      0.00
    6   14    0      0.97      0.00
    6   14    1      1.43      0.00
    6   14    2      0.18      0.00
   -7    0   27      2.36      0.00
   -7    0   25      1.61      0.00
   -7    0   23     -0.23      0.00
   -7    0   21      1.58      0.00
   -7    0   19     -0.29      0.00
   -7    0   17     -0.09      0.00
   -7    0   15      0.84      0.00
   -7    0   13      1.06      0.00
   -7    0   11     -0.84      0.00
   -7    0    9     -0.03      0.00
   -7    0    7      1.63      0.00
   -7    0    5     -2.03      0.00
   -7    0    3     -2.23      0.00
   -7    0    1     -0.50      0.00
    7    0    1     -1.18      0.00
    7    0    3     -2.14      0.00
    7    0    5     -0.15      0.00
    7    0    7      1.20      0.00
    7    0    9      0.39      0.00
    7    0   11      0.72      0.00
    7    0   13     -0.66      0.00
    7    0   15      0.41      0.00
    7    0   17      0.97      0.00
    7    0   19      0.80      0.00
    7    0   21     -0.31      0.00
    7    0   23      0.71      0.00
   -7    1   27      1.78      0.00
   -7    1   26      0.61      0.00
   -7    1   25      0.44      0.00
   -7    1   24      0.85      0.00
   -7    1   23     -0.66      0.00
   -7    1   22     -0.86      0.00
   -7    1   21     -0.04      0.00
   -7    1   20      1.63      0.00
   -7    1   19     -0.33      0.00
   -7    1   18      1.20      0.00
   -7    1   17     -0.43      0.00
   -7    1   16      0.66      0.00
   -7    1   15     -0.36      0.00
   -7    1   14     -0.47      0.00
   -7    1   13     -0.19      0.00
   -7    1   12     -0.08      0.00
   -7    1   11     -0.56      0.00
   -7    1   10      0.27      0.00
   -7    1    9      0.18      0.00
   -7    1    8      0.26      0.00
   -7    1    7      0.91      0.00
   -7    1    6      0.60      0.00
   -7    1    5     -2.75      0.00
   -7    1    4     -0.25      0.00
   -7    1    3     -1.84      0.00
   -7    1    2     -0.03      0.00
   -7    1    1      1.56      0.00
    7    1    0     -0.74      0.00
    7    1    1      1.20      0.00
    7    1    2     -1.21      0.00
    7    1    3      0.11      0.00
    7    1    4     -0.56      0.00
    7    1    5      0.04      0.00
    7    1    6     -1.30      0.00
    7    1    7      0.01      0.00
    7    1    8     -1.26      0.00
    7    1    9     -0.41      0.00
    7    1   10     -0.20      0.00
    7    1   11      0.10      0.00
    7    1   12      0.19      0.00
    7    1   13     -0.24      0.00
    7    1   14      0.41      0.00
    7    1   15      0.69      0.00
    7    1   16      0.05      0.00
    7    1   17      0.65      0.00
    7    1   18     -0.83      0.00
    7    1   19      0.58      0.00
    7    1   20     -0.38      0.00
    7    1   21     -0.06      0.00
    7    1   22     -0.17      0.00
    7    1   23      1.94      0.00
   -7    2   27     -1.72      0.00
   -7    2   26     -0.39      0.00
   -7    2   25     -1.61      0.00
   -7    2   24      0.87      0.00
   -7    2   23      0.09      0.00
   -7    2   22      0.23      0.00
   -7    2   21     -0.91      0.00
   -7    2   20      1.56      0.00
   -7    2   19      0.71      0.00
   -7    2   18      0.57      0.00
   -7    2   17      0.33      0.00
   -7    2   16     -0.22      0.00
   -7    2   15      0.84      0.00
   -7    2   14     -0.39      0.00
   -7    2   13      0.71      0.00
   -7    2   12      0.50      0.00
   -7    2   11      0.33      0.00
   -7    2   10      0.07      0.00
   -7    2    9     -0.71      0.00
   -7    2    8     -0.69      0.00
   -7    2    7      0.74      0.00
   -7    2    6      1.12      0.00
   -7    2    5     -0.44      0.00
   -7    2    4      0.53      0.00
   -7    2    3     -0.78      0.00
   -7    2    2     -0.35      0.00
   -7    2    1      1.25      0.00
    7    2    0     -1.38      0.00
    7    2    1      0.97      0.00
    7    2    2     -1.39      0.00
    7    2    3      1.04      0.00
    7    2    4      0.75      0.00
    7    2    5      0.98      0.00
    7    2    6      0.63      0.00
    7    2    7      0.99      0.00
    7    2    8      0.02      0.00
    7    2    9      0.20      0.00
    7    2   10      0.17      0.00
    7    2   11     -0.11      0.00
    7    2   12      0.34      0.00
    7    2   13     -0.06      0.00
    7    2   14     -0.69      0.00
    7    2   15     -1.10      0.00
    7    2   16     -0.22      0.00
    7    2   17     -1.90      0.00
    7    2   18     -0.08      0.00
    7    2   19     -2.14      0.00
    7    2   20     -0.18      0.00
    7    2   21     -4.23      0.00
    7    2   22      1.98      0.00
    7    2   23     -1.56      0.00
    7    2   24      1.97      0.00
   -7    3   26     -2.32      0.00
   -7    3   25     -0.83      0.00
   -7    3   24     -1.20      0.00
   -7    3   23     -1.79      0.00
   -7    3   22      0.63      0.00
   -7    3   21     -3.55      0.00
   -7    3   20      1.43      0.00
   -7    3   19      0.37      0.00
   -7    3   18      1.22      0.00
   -7    3   17      1.11      0.00
   -7    3   16     -0.32      0.00
   -7    3   15      1.72      0.00
   -7    3   14      0.40      0.00
   -7    3   13      0.94      0.00
   -7    3   12      0.79      0.00
   -7    3   11      0.74      0.00
   -7    3   10      1.18      0.00
   -7    3    9     -1.53      0.00
   -7    3    8      0.54      0.00
   -7    3    7      0.12      0.00
   -7    3    6      1.79      0.00
   -7    3    5      1.51      0.00
   -7    3    4      0.27      0.00
   -7    3    3      0.43      0.00
   -7    3    2     -2.67      0.00
   -7    3    1      0.33      0.00
    7    3    0      0.02      0.00
    7    3    1      0.29      0.00
    7    3    2     -0.12      0.00
    7    3    3      0.04      0.00
    7    3    4      0.30      0.00
    7    3    5      0.17      0.00
    7    3    6     -0.78      0.00
    7    3    7      1.17      0.00
    7    3    8     -0.79      0.00
    7    3    9      0.68      0.00
    7    3   10     -0.87      0.00
    7    3   11      0.55      0.00
    7    3   12      0.56      0.00
    7    3   13      1.31      0.00
    7    3   14      0.14      0.00
    7    3   15     -0.17      0.00
    7    3   16      0.20      0.00
    7    3   17     -1.64      0.00
    7    3   18      0.72      0.00
    7    3   19     -3.04      0.00
    7    3   20      0.32      0.00
    7    3   21     -5.23      0.00
    7    3   22      1.89      0.00
    7    3   23     -2.63      0.00
    7    3   24      1.53      0.00
   -7    4   26     -0.57      0.00
   -7    4   25      1.60      0.00
   -7    4   24      0.55      0.00
   -7    4   23      0.03      0.00
   -7    4   22      1.38      0.00
   -7    4   21     -0.63      0.00
   -7    4   20      1.64      0.00
   -7    4   19      0.91      0.00
   -7    4   18      1.18      0.00
   -7    4   17      0.89      0.00
   -7    4   16     -1.80      0.00
   -7    4   15      0.59      0.00
   -7    4   14     -0.19      0.00
   -7    4   13     -0.43      0.00
   -7    4   12     -0.43      0.00
   -7    4   11      0.09      0.00
   -7    4   10      0.99      0.00
   -7    4    9     -0.78      0.00
   -7    4    8      0.11      0.00
   -7    4    7     -0.13      0.00
   -7    4    6      0.13      0.00
   -7    4    5      0.53      0.00
   -7    4    4      0.38      0.00
   -7    4    3      0.48      0.00
   -7    4    2     -2.78      0.00
   -7    4    1     -0.34      0.00
    7    4    0      0.50      0.00
    7    4    1      0.55      0.00
    7    4    2      0.23      0.00
    7    4    3      0.39      0.00
    7    4    4      0.42      0.00
    7    4    5     -0.36      0.00
    7    4    6     -0.78      0.00
    7    4    7      0.13      0.00
    7    4    8     -0.36      0.00
    7    4    9      0.65      0.00
    7    4   10     -0.06      0.00
    7    4   11      0.52      0.00
    7    4   12      0.23      0.00
    7    4   13      1.01      0.00
    7    4   14      0.14      0.00
    7    4   15      0.43      0.00
    7    4   16      1.04      0.00
    7    4   17     -0.72      0.00
    7    4   18      1.56      0.00
    7    4   19     -2.87      0.00
    7    4   20      0.37      0.00
    7    4   21     -3.32      0.00
    7    4   22      0.72      0.00
    7    4   23     -1.19      0.00
   -7    5   25      1.05      0.00
   -7    5   24      2.51      0.00
   -7    5   23     -0.14      0.00
   -7    5   22      0.39      0.00
   -7    5   21     -0.85      0.00
   -7    5   20     -0.21      0.00
   -7    5   19     -0.41      0.00
   -7    5   18     -0.41      0.00
   -7    5   17      0.74      0.00
   -7    5   16     -1.15      0.00
   -7    5   15     -0.16      0.00
   -7    5   14      1.57      0.00
   -7    5   13     -0.17      0.00
   -7    5   12      0.17      0.00
   -7    5   11      0.12      0.00
   -7    5   10      1.39      0.00
   -7    5    9      0.18      0.00
   -7    5    8      0.86      0.00
   -7    5    7      0.84      0.00
   -7    5    6     -0.28      0.00
   -7    5    5      0.22      0.00
   -7    5    4      0.59      0.00
   -7    5    3      0.69      0.00
   -7    5    2     -1.88      0.00
   -7    5    1     -0.71      0.00
    7    5    0      0.93      0.00
    7    5    1      0.27      0.00
    7    5    2      0.59      0.00
    7    5    3      0.09      0.00
    7    5    4      0.98      0.00
    7    5    5     -0.22      0.00
    7    5    6      0.59      0.00
    7    5    7      0.87      0.00
    7    5    8      0.88      0.00
    7    5    9      1.39      0.00
    7    5   10      1.76      0.00
    7    5   11     -0.29      0.00
    7    5   12      1.50      0.00
    7    5   13      0.40      0.00
    7    5   14      1.25      0.00
    7    5   15     -0.01      0.00
    7    5   16      1.04      0.00
    7    5   17      0.71      0.00
    7    5   18      0.87      0.00
    7    5   19      0.92      0.00
    7    5   20      0.72      0.00
    7    5   21     -0.31      0.00
    7    5   23     -0.56      0.00
   -7    6   24      0.85      0.00
   -7    6   23      0.62      0.00
   -7    6   22     -0.67      0.00
   -7    6   21     -1.10      0.00
   -7    6   20      1.49      0.00
   -7    6   19     -0.06      0.00
   -7    6   18      0.68      0.00
   -7    6   17      2.39      0.00
   -7    6   16     -0.46      0.00
   -7    6   15     -0.44      0.00
   -7    6   14      0.52      0.00
   -7    6   13     -0.51      0.00
   -7    6   12     -0.37      0.00
   -7    6   11     -0.47      0.00
   -7    6   10      0.39      0.00
   -7    6    9     -0.50      0.00
   -7    6    8      0.75      0.00
   -7    6    7      0.41      0.00
   -7    6    6      0.34      0.00
   -7    6    5     -0.35      0.00
   -7    6    4      0.03      0.00
   -7    6    3      0.00      0.00
   -7    6    2     -0.72      0.00
   -7    6    1     -1.77      0.00
    7    6    0     -0.03      0.00
    7    6    1     -0.80      0.00
    7    6    2      0.36      0.00
    7    6    3      0.08      0.00
    7    6    4     -0.12      0.00
    7    6    5     -0.44      0.00
    7    6    6     -0.75      0.00
    7    6    7      0.03      0.00
    7    6    8     -0.42      0.00
    7    6    9      1.92      0.00
    7    6   10      1.07      0.00
    7    6   11     -1.01      0.00
    7    6   12      1.62      0.00
    7    6   13      0.56      0.00
    7    6   14      1.93      0.00
    7    6   15      1.30      0.00
    7    6   16      0.09      0.00
    7    6   17      1.19      0.00
    7    6   18     -0.98      0.00
    7    6   19      1.64      0.00
   -7    7   23      2.00      0.00
   -7    7   22     -2.87      0.00
   -7    7   21     -0.79      0.00
   -7    7   20     -2.33      0.00
   -7    7   19     -0.29      0.00
   -7    7   18     -2.13      0.00
   -7    7   17      1.02      0.00
   -7    7   16      0.34      0.00
   -7    7   15     -1.66      0.00
   -7    7   14     -0.67      0.00
   -7    7   13     -0.85      0.00
   -7    7   12     -1.46      0.00
   -7    7   11     -0.54      0.00
   -7    7   10     -1.09      0.00
   -7    7    9      0.20      0.00
   -7    7    8     -0.60      0.00
   -7    7    7      2.14      0.00
   -7    7    6      1.13      0.00
   -7    7    5      1.78      0.00
   -7    7    4      0.26      0.00
   -7    7    3      0.71      0.00
   -7    7    2     -0.79      0.00
   -7    7    1     -0.49      0.00
    7    7    0      0.23      0.00
    7    7    1     -0.09      0.00
    7    7    2      0.12      0.00
    7    7    3      1.04      0.00
    7    7    4      0.01      0.00
    7    7    5      0.77      0.00
    7    7    6      0.04      0.00
    7    7    7     -0.47      0.00
    7    7    8     -0.93      0.00
    7    7    9      2.42      0.00
    7    7   10     -0.95      0.00
    7    7   11     -0.22      0.00
    7    7   12     -0.52      0.00
    7    7   13      0.59      0.00
    7    7   14      0.48      0.00
    7    7   15     -0.01      0.00
    7    7   16      0.20      0.00
    7    7   17     -1.55      0.00
    7    7   18     -0.18      0.00
   -7    8   22      0.73      0.00
   -7    8   21     -4.24      0.00
   -7    8   20     -0.28      0.00
   -7    8   19     -1.04      0.00
   -7    8   18     -1.23      0.00
   -7    8   17      0.92      0.00
   -7    8   16      2.48      0.00
   -7    8   15     -0.94      0.00
   -7    8   14     -0.10      0.00
   -7    8   13     -0.99      0.00
   -7    8   12     -0.64      0.00
   -7    8   11     -1.07      0.00
   -7    8   10      0.19      0.00
   -7    8    9     -0.49      0.00
   -7    8    8     -0.46      0.00
   -7    8    7      0.82      0.00
   -7    8    6      0.57      0.00
   -7    8    5      1.65      0.00
   -7    8    4      0.35      0.00
   -7    8    3      0.11      0.00
   -7    8    2     -0.13      0.00
   -7    8    1      0.61      0.00
    7    8    0      0.25      0.00
    7    8    1      1.44      0.00
    7    8    2      0.88      0.00
    7    8    3      1.83      0.00
    7    8    4      0.76      0.00
    7    8    5      1.28      0.00
    7    8    6      1.06      0.00
    7    8    7     -0.33      0.00
    7    8    8      0.97      0.00
    7    8    9      3.14      0.00
    7    8   10     -0.45      0.00
    7    8   11      0.95      0.00
    7    8   12     -0.13      0.00
    7    8   13      0.83      0.00
    7    8   14      1.36      0.00
    7    8   15     -0.50      0.00
    7    8   16      1.05      0.00
    7    8   17     -1.65      0.00
   -7    9   21      0.37      0.00
   -7    9   20      2.32      0.00
   -7    9   19      0.64      0.00
   -7    9   18      0.64      0.00
   -7    9   17     -0.21      0.00
   -7    9   16      1.41      0.00
   -7    9   15     -0.31      0.00
   -7    9   14     -2.20      0.00
   -7    9   13     -0.38      0.00
   -7    9   12     -1.23      0.00
   -7    9   11     -1.38      0.00
   -7    9   10      0.94      0.00
   -7    9    9     -1.50      0.00
   -7    9    8      0.71      0.00
   -7    9    7     -1.41      0.00
   -7    9    6      0.93      0.00
   -7    9    5     -0.22      0.00
   -7    9    4      0.84      0.00
   -7    9    3     -0.10      0.00
   -7    9    2     -0.01      0.00
   -7    9    1      0.64      0.00
    7    9    0     -0.42      0.00
    7    9    1      0.21      0.00
    7    9    2      0.17      0.00
    7    9    3      0.85      0.00
    7    9    4      0.01      0.00
    7    9    5      1.05      0.00
    7    9    6      0.24      0.00
    7    9    7     -0.92      0.00
    7    9    8      2.24      0.00
    7    9    9      1.34      0.00
    7    9   10      0.67      0.00
    7    9   11      0.77      0.00
    7    9   12      0.54      0.00
    7    9   13      1.09      0.00
    7    9   14      0.62      0.00
    7    9   15      1.04      0.00
    7    9   16      0.33      0.00
   -7   10   19     -1.35      0.00
   -7   10   18      0.16      0.00
   -7   10   17     -2.94      0.00
   -7   10   16      0.22      0.00
   -7   10   15     -1.05      0.00
   -7   10   14     -3.30      0.00
   -7   10   13      1.32      0.00
   -7   10   12     -1.59      0.00
   -7   10   11      1.42      0.00
   -7   10   10      2.52      0.00
   -7   10    9      0.60      0.00
   -7   10    8      2.17      0.00
   -7   10    7     -0.03      0.00
   -7   10    6      0.13      0.00
   -7   10    5     -0.82      0.00
   -7   10    4     -0.41      0.00
   -7   10    3      0.04      0.00
   -7   10    2     -1.43      0.00
   -7   10    1     -0.13      0.00
    7   10    0      1.53      0.00
    7   10    1     -1.09      0.00
    7   10    2      1.31      0.00
    7   10    3     -0.54      0.00
    7   10    4      0.23      0.00
    7   10    5      1.30      0.00
    7   10    6      0.12      0.00
    7   10    7      1.05      0.00
    7   10    8      2.71      0.00
    7   10    9      0.40      0.00
    7   10   10      0.26      0.00
    7   10   11      1.31      0.00
    7   10   12     -1.24      0.00
    7   10   13     -0.23      0.00
    7   10   14     -1.77      0.00
   -7   11   16      2.23      0.00
   -7   11   15     -2.04      0.00
   -7   11   14      0.62      0.00
   -7   11   13      0.13      0.00
   -7   11   12      0.20      0.00
   -7   11   11      1.55      0.00
   -7   11   10      1.92      0.00
   -7   11    9      0.69      0.00
   -7   11    8      0.85      0.00
   -7   11    7      0.20      0.00
   -7   11    6      0.26      0.00
   -7   11    5     -2.17      0.00
   -7   11    4     -1.25      0.00
   -7   11    3      0.07      0.00
   -7   11    2     -1.35      0.00
   -7   11    1      0.79      0.00
    7   11    0      1.15      0.00
    7   11    1      0.85      0.00
    7   11    2     -0.17      0.00
    7   11    3     -0.74      0.00
    7   11    4     -0.95      0.00
    7   11    5     -0.73      0.00
    7   11    6     -1.33      0.00
    7   11    7      0.76      0.00
    7   11    8      1.07      0.00
    7   11    9     -0.92      0.00
    7   11   10      1.09      0.00
    7   11   11      2.11      0.00
    7   11   12     -0.78      0.00
    7   11   13     -1.18      0.00
   -7   12   13     -0.99      0.00
   -7   12   12     -0.16      0.00
   -7   12   11     -1.26      0.00
   -7   12   10      0.71      0.00
   -7   12    9     -0.97      0.00
   -7   12    8     -1.43      0.00
   -7   12    7     -0.65      0.00
   -7   12    6     -0.40      0.00
   -7   12    5     -3.64      0.00
   -7   12    4     -2.34      0.00
   -7   12    3     -0.95      0.00
   -7   12    2     -0.43      0.00
   -7   12    1      1.75      0.00
    7   12    0      1.21      0.00
    7   12    1      2.70      0.00
    7   12    2     -0.49      0.00
    7   12    3      1.06      0.00
    7   12    4     -0.52      0.00
    7   12    5      0.34      0.00
    7   12    6     -1.56      0.00
    7   12    7      2.13      0.00
    7   12    8     -1.68      0.00
    7   12    9     -1.11      0.00
    7   12   10      1.43      0.00
    7   12   11      1.17      0.00
   -7   13    9     -1.11      0.00
   -7   13    8     -0.08      0.00
   -7   13    7     -2.48      0.00
   -7   13    6      1.74      0.00
   -7   13    5     -2.81      0.00
   -7   13    4     -1.07      0.00
   -7   13    3     -0.25      0.00
   -7   13    2     -0.37      0.00
   -7   13    1      2.25      0.00
    7   13    0      2.05      0.00
    7   13    1      2.03      0.00
    7   13    2     -0.80      0.00
    7   13    3      1.61      0.00
    7   13    4      0.20      0.00
    7   13    5      1.38      0.00
    7   13    6      0.83      0.00
    7   13    7      3.41      0.00
   -8    0   26     -0.61      0.00
   -8    0   24      1.29      0.00
   -8    0   22     -0.43      0.00
   -8    0   20      1.01      0.00
   -8    0   18      0.54      0.00
   -8    0   16      0.62      0.00
   -8    0   14      1.75      0.00
   -8    0   12      0.74      0.00
   -8    0   10     -0.94      0.00
   -8    0    8     -0.12      0.00
   -8    0    6      0.03      0.00
   -8    0    4      0.00      0.00
   -8    0    2     -0.53      0.00
    8    0    0     -3.92      0.00
    8    0    2     -2.31      0.00
    8    0    4     -1.97      0.00
    8    0    6     -1.80      0.00
    8    0    8     -2.15      0.00
    8    0   10     -0.87      0.00
    8    0   12     -1.71      0.00
    8    0   14     -0.32      0.00
    8    0   16      0.76      0.00
    8    0   18     -2.31      0.00
    8    0   20     -0.63      0.00
   -8    1   27      0.11      0.00
   -8    1   26     -1.91      0.00
   -8    1   25      1.46      0.00
   -8    1   24     -0.74      0.00
   -8    1   23      0.64      0.00
   -8    1   22     -1.88      0.00
   -8    1   21      0.52      0.00
   -8    1   20      0.66      0.00
   -8    1   19      0.68      0.00
   -8    1   18      0.28      0.00
   -8    1   17      1.20      0.00
   -8    1   16     -0.41      0.00
   -8    1   15      1.26      0.00
   -8    1   14     -0.16      0.00
   -8    1   13      0.42      0.00
   -8    1   12     -0.07      0.00
   -8    1   11      0.22      0.00
   -8    1   10     -0.33      0.00
   -8    1    9      0.21      0.00
   -8    1    8      0.91      0.00
   -8    1    7      0.27      0.00
   -8    1    6      0.09      0.00
   -8    1    5     -0.57      0.00
   -8    1    4      0.01      0.00
   -8    1    3     -0.84      0.00
   -8    1    2      1.56      0.00
   -8    1    1     -0.53      0.00
    8    1    0     -0.79      0.00
    8    1    1      0.74      0.00
    8    1    2      0.70      0.00
    8    1    3      0.18      0.00
    8    1    4     -0.01      0.00
    8    1    5     -1.00      0.00
    8    1    6     -0.38      0.00
    8    1    7     -0.35      0.00
    8    1    8     -0.32      0.00
    8    1    9      0.21      0.00
    8    1   10      0.78      0.00
    8    1   11      0.20      0.00
    8    1   12     -0.27      0.00
    8    1   13      0.07      0.00
    8    1   14      0.84      0.00
    8    1   15      0.76      0.00
    8    1   16      2.06      0.00
    8    1   17     -0.48      0.00
    8    1   18     -0.62      0.00
    8    1   19     -0.31      0.00
    8    1   20      0.60      0.00
    8    1   21     -0.30      0.00
   -8    2   26     -3.55      0.00
   -8    2   25      1.08      0.00
   -8    2   24     -1.11      0.00
   -8    2   23      0.68      0.00
   -8    2   22     -0.84      0.00
   -8    2   21      0.48      0.00
   -8    2   20      1.32      0.00
   -8    2   19      0.79      0.00
   -8    2   18      0.54      0.00
   -8    2   17      0.09      0.00
   -8    2   16      0.75      0.00
   -8    2   15     -0.80      0.00
   -8    2   14      0.52      0.00
   -8    2   13     -1.47      0.00
   -8    2   12      0.31      0.00
   -8    2   11     -0.52      0.00
   -8    2   10     -0.81      0.00
   -8    2    9     -0.64      0.00
   -8    2    8      0.65      0.00
   -8    2    7     -0.72      0.00
   -8    2    6      0.53      0.00
   -8    2    5     -1.02      0.00
   -8    2    4      0.15      0.00
   -8    2    3     -0.09      0.00
   -8    2    2      1.80      0.00
   -8    2    1      2.01      0.00
    8    2    0      0.53      0.00
    8    2    1     -0.77      0.00
    8    2    2      2.00      0.00
    8    2    3     -0.74      0.00
    8    2    4      0.16      0.00
    8    2    5     -0.93      0.00
    8    2    6     -0.04      0.00
    8    2    7      0.81      0.00
    8    2    8     -0.20      0.00
    8    2    9      0.61      0.00
    8    2   10      0.33      0.00
    8    2   11     -0.04      0.00
    8    2   12      0.28      0.00
    8    2   13     -2.11      0.00
    8    2   14      0.58      0.00
    8    2   15     -0.99      0.00
    8    2   16      0.66      0.00
    8    2   17     -0.87      0.00
    8    2   18      0.01      0.00
    8    2   19      0.01      0.00
    8    2   20      1.14      0.00
    8    2   21      0.19      0.00
    8    2   22      1.73      0.00
   -8    3   26     -3.44      0.00
   -8    3   25     -1.50      0.00
   -8    3   24     -1.50      0.00
   -8    3   23     -1.71      0.00
   -8    3   22     -1.75      0.00
   -8    3   21     -2.41      0.00
   -8    3   20     -1.03      0.00
   -8    3   19     -0.41      0.00
   -8    3   18      0.29      0.00
   -8    3   17      0.12      0.00
   -8    3   16      2.06      0.00
   -8    3   15      0.47      0.00
   -8    3   14      1.23      0.00
   -8    3   13     -0.15      0.00
   -8    3   12      1.46      0.00
   -8    3   11     -0.04      0.00
   -8    3   10     -0.83      0.00
   -8    3    9     -0.25      0.00
   -8    3    8     -0.60      0.00
   -8    3    7      0.85      0.00
   -8    3    6     -0.11      0.00
   -8    3    5      0.62      0.00
   -8    3    4     -0.17      0.00
   -8    3    3     -0.54      0.00
   -8    3    2      0.29      0.00
   -8    3    1      1.70      0.00
    8    3    0     -0.05      0.00
    8    3    1     -0.63      0.00
    8    3    2     -0.17      0.00
    8    3    3     -1.18      0.00
    8    3    4     -2.03      0.00
    8    3    5     -1.96      0.00
    8    3    6     -0.01      0.00
    8    3    7     -0.52      0.00
    8    3    8     -0.83      0.00
    8    3    9     -0.10      0.00
    8    3   10     -1.13      0.00
    8    3   11      0.07      0.00
    8    3   12      0.43      0.00
    8    3   13     -1.32      0.00
    8    3   14      1.88      0.00
    8    3   15     -0.10      0.00
    8    3   16      0.71      0.00
    8    3   17     -0.11      0.00
    8    3   18      0.78      0.00
    8    3   19      1.23      0.00
    8    3   20      2.64      0.00
    8    3   21      1.91      0.00
   -8    4   26     -1.96      0.00
   -8    4   25     -1.28      0.00
   -8    4   24     -1.10      0.00
   -8    4   23     -2.70      0.00
   -8    4   22      1.28      0.00
   -8    4   21     -2.64      0.00
   -8    4   20     -0.04      0.00
   -8    4   19     -0.25      0.00
   -8    4   18      0.55      0.00
   -8    4   17      0.01      0.00
   -8    4   16      0.93      0.00
   -8    4   15      0.04      0.00
   -8    4   14     -0.44      0.00
   -8    4   13     -0.13      0.00
   -8    4   12      0.99      0.00
   -8    4   11     -0.06      0.00
   -8    4   10     -0.92      0.00
   -8    4    9     -0.49      0.00
   -8    4    8     -0.13      0.00
   -8    4    7      0.67      0.00
   -8    4    6      0.05      0.00
   -8    4    5      1.56      0.00
   -8    4    4     -0.40      0.00
   -8    4    3      0.18      0.00
   -8    4    2     -0.80      0.00
   -8    4    1      1.08      0.00
    8    4    0      0.29      0.00
    8    4    1     -0.63      0.00
    8    4    2      0.35      0.00
    8    4    3     -0.67      0.00
    8    4    4     -0.17      0.00
    8    4    5     -0.28      0.00
    8    4    6      2.12      0.00
    8    4    7     -0.35      0.00
    8    4    8      1.27      0.00
    8    4    9      0.47      0.00
    8    4   10      0.48      0.00
    8    4   11      0.08      0.00
    8    4   12      0.67      0.00
    8    4   13     -0.79      0.00
    8    4   14      1.29      0.00
    8    4   15      0.50      0.00
    8    4   16      0.26      0.00
    8    4   17      1.84      0.00
    8    4   18     -0.37      0.00
    8    4   19      2.78      0.00
   -8    5   25      0.02      0.00
   -8    5   24     -0.38      0.00
   -8    5   23     -1.96      0.00
   -8    5   22      2.09      0.00
   -8    5   21     -0.06      0.00
   -8    5   20     -1.04      0.00
   -8    5   19     -1.45      0.00
   -8    5   18     -0.81      0.00
   -8    5   17     -0.77      0.00
   -8    5   16     -0.10      0.00
   -8    5   15     -0.16      0.00
   -8    5   14     -0.58      0.00
   -8    5   13      0.04      0.00
   -8    5   12      1.58      0.00
   -8    5   11      0.64      0.00
   -8    5   10     -0.35      0.00
   -8    5    9      0.15      0.00
   -8    5    8      0.51      0.00
   -8    5    7      0.51      0.00
   -8    5    6      0.63      0.00
   -8    5    5      1.82      0.00
   -8    5    4      0.24      0.00
   -8    5    3      1.57      0.00
   -8    5    2     -1.54      0.00
   -8    5    1      0.92      0.00
    8    5    0     -0.50      0.00
    8    5    1     -0.44      0.00
    8    5    2      0.35      0.00
    8    5    3     -0.85      0.00
    8    5    4      0.14      0.00
    8    5    5      0.18      0.00
    8    5    6      0.49      0.00
    8    5    7     -0.56      0.00
    8    5    8      0.12      0.00
    8    5    9      0.36      0.00
    8    5   10     -0.76      0.00
    8    5   11     -0.46      0.00
    8    5   12      0.80      0.00
    8    5   13     -0.24      0.00
    8    5   14      0.03      0.00
    8    5   15      0.93      0.00
    8    5   16     -0.89      0.00
    8    5   17      3.66      0.00
    8    5   18     -0.52      0.00
    8    5   19      4.54      0.00
   -8    6   24     -0.90      0.00
   -8    6   23     -3.89      0.00
   -8    6   22     -1.57      0.00
   -8    6   21      2.74      0.00
   -8    6   20     -0.84      0.00
   -8    6   19      0.00      0.00
   -8    6   18      0.28      0.00
   -8    6   17     -0.22      0.00
   -8    6   16      0.81      0.00
   -8    6   15     -1.06      0.00
   -8    6   14     -0.40      0.00
   -8    6   13     -0.30      0.00
   -8    6   12      1.37      0.00
   -8    6   11      0.66      0.00
   -8    6   10      0.48      0.00
   -8    6    9     -0.21      0.00
   -8    6    8     -0.21      0.00
   -8    6    7      0.59      0.00
   -8    6    6     -0.88      0.00
   -8    6    5      1.59      0.00
   -8    6    4      0.19      0.00
   -8    6    3      1.17      0.00
   -8    6    2     -1.12      0.00
   -8    6    1      0.56      0.00
    8    6    0     -0.59      0.00
    8    6    1      0.10      0.00
    8    6    2     -0.26      0.00
    8    6    3     -0.91      0.00
    8    6    4      0.28      0.00
    8    6    5     -0.65      0.00
    8    6    6     -0.23      0.00
    8    6    7     -0.74      0.00
    8    6    8      0.35      0.00
    8    6    9      0.43      0.00
    8    6   10     -1.57      0.00
    8    6   11     -0.37      0.00
    8    6   12     -0.22      0.00
    8    6   13     -0.20      0.00
    8    6   14     -1.16      0.00
    8    6   15      0.13      0.00
    8    6   16      0.66      0.00
    8    6   17      1.00      0.00
    8    6   18      1.24      0.00
   -8    7   23     -1.75      0.00
   -8    7   22     -9.81      0.00
   -8    7   21      3.78      0.00
   -8    7   20     -1.74      0.00
   -8    7   19      1.24      0.00
   -8    7   18      0.65      0.00
   -8    7   17      1.49      0.00
   -8    7   16     -0.14      0.00
   -8    7   15     -0.54      0.00
   -8    7   14     -0.74      0.00
   -8    7   13     -0.55      0.00
   -8    7   12      0.57      0.00
   -8    7   11     -0.25      0.00
   -8    7   10      0.63      0.00
   -8    7    9     -0.36      0.00
   -8    7    8      0.11      0.00
   -8    7    7      0.70      0.00
   -8    7    6      0.35      0.00
   -8    7    5      1.40      0.00
   -8    7    4      1.57      0.00
   -8    7    3      0.79      0.00
   -8    7    2     -0.62      0.00
   -8    7    1     -0.36      0.00
    8    7    0      0.30      0.00
    8    7    1      0.55      0.00
    8    7    2     -0.26      0.00
    8    7    3     -0.36      0.00
    8    7    4      1.55      0.00
    8    7    5      0.25      0.00
    8    7    6      1.05      0.00
    8    7    7     -0.36      0.00
    8    7    8      0.77      0.00
    8    7    9     -0.42      0.00
    8    7   10     -1.17      0.00
    8    7   11     -0.29      0.00
    8    7   12      0.42      0.00
    8    7   13     -1.60      0.00
    8    7   14     -0.53      0.00
    8    7   15     -2.01      0.00
    8    7   16      1.25      0.00
   -8    8   22    -16.90      0.00
   -8    8   21      0.01      0.00
   -8    8   20     -4.46      0.00
   -8    8   19      0.08      0.00
   -8    8   18      2.20      0.00
   -8    8   17      1.16      0.00
   -8    8   16      1.29      0.00
   -8    8   15     -1.22      0.00
   -8    8   14      0.49      0.00
   -8    8   13      0.45      0.00
   -8    8   12      0.20      0.00
   -8    8   11      1.31      0.00
   -8    8   10     -0.27      0.00
   -8    8    9      1.26      0.00
   -8    8    8     -0.89      0.00
   -8    8    7      0.47      0.00
   -8    8    6      0.09      0.00
   -8    8    5      0.60      0.00
   -8    8    4      1.55      0.00
   -8    8    3      1.43      0.00
   -8    8    2     -1.44      0.00
   -8    8    1     -0.45      0.00
    8    8    0      0.18      0.00
    8    8    1      0.10      0.00
    8    8    2     -0.20      0.00
    8    8    3     -0.73      0.00
    8    8    4      1.64      0.00
    8    8    5     -0.42      0.00
    8    8    6      0.42      0.00
    8    8    7     -0.71      0.00
    8    8    8      0.22      0.00
    8    8    9     -0.98      0.00
    8    8   10      0.00      0.00
    8    8   11     -0.78      0.00
    8    8   12      1.54      0.00
    8    8   13     -1.19      0.00
    8    8   14      0.50      0.00
    8    8   15      0.04      0.00
   -8    9   20      1.11      0.00
   -8    9   19      0.14      0.00
   -8    9   18      3.47      0.00
   -8    9   17      0.77      0.00
   -8    9   16      1.92      0.00
   -8    9   15     -4.54      0.00
   -8    9   14      2.56      0.00
   -8    9   13     -1.32      0.00
   -8    9   12      0.55      0.00
   -8    9   11      1.32      0.00
   -8    9   10     -0.76      0.00
   -8    9    9      1.08      0.00
   -8    9    8     -0.97      0.00
   -8    9    7      0.37      0.00
   -8    9    6     -0.84      0.00
   -8    9    5      0.87      0.00
   -8    9    4      0.90      0.00
   -8    9    3      2.43      0.00
   -8    9    2      0.14      0.00
   -8    9    1      0.08      0.00
    8    9    0      0.65      0.00
    8    9    1     -0.87      0.00
    8    9    2     -0.67      0.00
    8    9    3     -0.33      0.00
    8    9    4      1.60      0.00
    8    9    5     -0.03      0.00
    8    9    6     -0.19      0.00
    8    9    7      0.34      0.00
    8    9    8     -0.57      0.00
    8    9    9     -0.11      0.00
    8    9   10     -0.04      0.00
    8    9   11     -0.54      0.00
    8    9   12      0.19      0.00
    8    9   13     -0.48      0.00
   -8   10   18      0.07      0.00
   -8   10   17      1.13      0.00
   -8   10   16     -0.17      0.00
   -8   10   15     -3.58      0.00
   -8   10   14      0.65      0.00
   -8   10   13     -0.09      0.00
   -8   10   12     -1.76      0.00
   -8   10   11      1.93      0.00
   -8   10   10     -1.00      0.00
   -8   10    9      0.72      0.00
   -8   10    8     -0.27      0.00
   -8   10    7     -0.18      0.00
   -8   10    6     -0.71      0.00
   -8   10    5     -0.24      0.00
   -8   10    4      0.45      0.00
   -8   10    3      1.77      0.00
   -8   10    2      0.73      0.00
   -8   10    1     -0.19      0.00
    8   10    0     -0.16      0.00
    8   10    1      0.44      0.00
    8   10    2     -1.90      0.00
    8   10    3      1.88      0.00
    8   10    4      0.84      0.00
    8   10    5     -0.16      0.00
    8   10    6      0.32      0.00
    8   10    7      0.77      0.00
    8   10    8     -0.76      0.00
    8   10    9      0.59      0.00
    8   10   10     -0.33      0.00
   -8   11   16     -1.17      0.00
   -8   11   15     -1.11      0.00
   -8   11   14     -2.35      0.00
   -8   11   13      4.06      0.00
   -8   11   12     -3.98      0.00
   -8   11   11      3.48      0.00
   -8   11   10     -1.23      0.00
   -8   11    9      0.41      0.00
   -8   11    8     -1.37      0.00
   -8   11    7     -0.05      0.00
   -8   11    6     -1.23      0.00
   -8   11    5     -0.51      0.00
   -8   11    4      0.24      0.00
   -8   11    3      0.10      0.00
   -8   11    2      0.25      0.00
   -8   11    1     -0.68      0.00
    8   11    0     -0.44      0.00
    8   11    1      0.12      0.00
    8   11    2     -1.16      0.00
    8   11    3      2.21      0.00
    8   11    4     -0.50      0.00
    8   11    5     -1.49      0.00
    8   11    6     -0.83      0.00
    8   11    7     -0.44      0.00
    8   11    8     -1.94      0.00
   -8   12   13      3.01      0.00
   -8   12   12     -2.30      0.00
   -8   12   11      1.64      0.00
   -8   12   10     -1.80      0.00
   -8   12    9      1.02      0.00
   -8   12    8     -3.02      0.00
   -8   12    7      0.93      0.00
   -8   12    6     -2.22      0.00
   -8   12    5     -0.77      0.00
   -8   12    4     -1.15      0.00
   -8   12    3     -0.39      0.00
   -8   12    2     -1.15      0.00
   -8   12    1      0.18      0.00
    8   12    0     -0.78      0.00
    8   12    1     -1.45      0.00
    8   12    2     -0.01      0.00
    8   12    3      1.65      0.00
    8   12    4     -0.33      0.00
    8   12    5     -0.45      0.00
   -8   13    8     -4.55      0.00
   -8   13    7     -0.03      0.00
   -8   13    6     -3.53      0.00
   -8   13    5     -1.57      0.00
   -8   13    4     -1.47      0.00
   -8   13    3     -0.49      0.00
   -8   13    2     -0.84      0.00
   -8   13    1      0.04      0.00
    8   13    0     -1.02      0.00
    8   13    1     -2.11      0.00
    8   13    2      0.04      0.00
    8   13    3     -0.97      0.00
   -9    0   25      3.48      0.00
   -9    0   23      3.22      0.00
   -9    0   21      6.52      0.00
   -9    0   19      2.94      0.00
   -9    0   17     -0.02      0.00
   -9    0   15     -0.87      0.00
   -9    0   13     -0.28      0.00
   -9    0   11     -1.32      0.00
   -9    0    9     -0.53      0.00
   -9    0    7     -0.84      0.00
   -9    0    5      0.69      0.00
   -9    0    3     -0.58      0.00
   -9    0    1     -0.22      0.00
    9    0    1      1.07      0.00
    9    0    3     -0.55      0.00
    9    0    5     -1.11      0.00
    9    0    7      0.17      0.00
    9    0    9      0.51      0.00
    9    0   11     -0.68      0.00
    9    0   13     -1.09      0.00
    9    0   15     -0.54      0.00
    9    0   17      0.64      0.00
    9    0   19      1.20      0.00
   -9    1   26      1.43      0.00
   -9    1   25      2.03      0.00
   -9    1   24      1.27      0.00
   -9    1   23      1.01      0.00
   -9    1   22      0.99      0.00
   -9    1   21      3.83      0.00
   -9    1   20      1.10      0.00
   -9    1   19      1.33      0.00
   -9    1   18      0.27      0.00
   -9    1   17     -0.50      0.00
   -9    1   16      1.77      0.00
   -9    1   15     -0.50      0.00
   -9    1   14      1.29      0.00
   -9    1   13     -0.06      0.00
   -9    1   12      0.89      0.00
   -9    1   11     -0.62      0.00
   -9    1   10     -0.03      0.00
   -9    1    9      0.71      0.00
   -9    1    8     -0.24      0.00
   -9    1    7      0.68      0.00
   -9    1    6     -1.51      0.00
   -9    1    5      0.69      0.00
   -9    1    4     -0.46      0.00
   -9    1    3     -0.69      0.00
   -9    1    2     -1.63      0.00
   -9    1    1     -0.04      0.00
    9    1    0      2.37      0.00
    9    1    1      1.24      0.00
    9    1    2      1.18      0.00
    9    1    3      0.41      0.00
    9    1    4      0.74      0.00
    9    1    5     -0.21      0.00
    9    1    6      0.52      0.00
    9    1    7      1.19      0.00
    9    1    8      1.10      0.00
    9    1    9      1.75      0.00
    9    1   10      1.01      0.00
    9    1   11      0.18      0.00
    9    1   12      0.84      0.00
    9    1   13     -1.63      0.00
    9    1   14      1.54      0.00
    9    1   15     -1.15      0.00
    9    1   16      3.61      0.00
    9    1   17     -1.20      0.00
    9    1   18      0.49      0.00
    9    1   19      1.01      0.00
   -9    2   26     -0.16      0.00
   -9    2   25      2.31      0.00
   -9    2   24     -1.02      0.00
   -9    2   23      1.84      0.00
   -9    2   22      0.79      0.00
   -9    2   21      3.96      0.00
   -9    2   20      2.79      0.00
   -9    2   19      1.57      0.00
   -9    2   18     -0.37      0.00
   -9    2   17     -0.42      0.00
   -9    2   16     -0.25      0.00
   -9    2   15      0.20      0.00
   -9    2   14     -0.13      0.00
   -9    2   13      0.07      0.00
   -9    2   12      0.06      0.00
   -9    2   11     -0.52      0.00
   -9    2   10      0.14      0.00
   -9    2    9      0.19      0.00
   -9    2    8      0.47      0.00
   -9    2    7      0.64      0.00
   -9    2    6     -1.73      0.00
   -9    2    5     -0.20      0.00
   -9    2    4      0.07      0.00
   -9    2    3     -0.89      0.00
   -9    2    2      0.48      0.00
   -9    2    1     -0.49      0.00
    9    2    0     -0.43      0.00
    9    2    1      0.10      0.00
    9    2    2     -1.15      0.00
    9    2    3     -0.01      0.00
    9    2    4     -0.90      0.00
    9    2    5     -1.05      0.00
    9    2    6     -0.37      0.00
    9    2    7     -0.01      0.00
    9    2    8     -0.21      0.00
    9    2    9      0.62      0.00
    9    2   10     -0.13      0.00
    9    2   11      0.10      0.00
    9    2   12     -0.85      0.00
    9    2   13     -2.10      0.00
    9    2   14     -1.06      0.00
    9    2   15     -1.91      0.00
    9    2   16      0.61      0.00
    9    2   17     -4.94      0.00
    9    2   18     -0.65      0.00
   -9    3   26     -1.08      0.00
   -9    3   25      3.90      0.00
   -9    3   24     -1.67      0.00
   -9    3   23      1.61      0.00
   -9    3   22     -0.62      0.00
   -9    3   21      0.42      0.00
   -9    3   20      2.60      0.00
   -9    3   19      0.36      0.00
   -9    3   18      0.36      0.00
   -9    3   17     -0.33      0.00
   -9    3   16      0.96      0.00
   -9    3   15     -0.48      0.00
   -9    3   14      1.93      0.00
   -9    3   13     -0.19      0.00
   -9    3   12      0.24      0.00
   -9    3   11      0.10      0.00
   -9    3   10      0.11      0.00
   -9    3    9     -0.54      0.00
   -9    3    8      0.89      0.00
   -9    3    7     -0.67      0.00
   -9    3    6     -0.24      0.00
   -9    3    5     -0.99      0.00
   -9    3    4     -0.10      0.00
   -9    3    3     -0.16      0.00
   -9    3    2     -0.43      0.00
   -9    3    1      0.30      0.00
    9    3    0     -0.64      0.00
    9    3    1     -1.00      0.00
    9    3    2     -0.86      0.00
    9    3    3     -1.70      0.00
    9    3    4     -0.45      0.00
    9    3    5     -1.28      0.00
    9    3    6      0.62      0.00
    9    3    7     -0.26      0.00
    9    3    8      0.87      0.00
    9    3    9     -0.81      0.00
    9    3   10      1.19      0.00
    9    3   11     -0.42      0.00
    9    3   12      0.07      0.00
    9    3   13      0.19      0.00
    9    3   14      1.32      0.00
    9    3   15      1.60      0.00
    9    3   16      0.43      0.00
    9    3   17     -3.83      0.00
    9    3   18      0.08      0.00
   -9    4   25      3.40      0.00
   -9    4   24     -1.06      0.00
   -9    4   23     -0.09      0.00
   -9    4   22     -1.76      0.00
   -9    4   21     -3.42      0.00
   -9    4   20      2.10      0.00
   -9    4   19      0.13      0.00
   -9    4   18      1.62      0.00
   -9    4   17      0.42      0.00
   -9    4   16      0.43      0.00
   -9    4   15     -0.78      0.00
   -9    4   14      1.45      0.00
   -9    4   13      0.47      0.00
   -9    4   12     -0.08      0.00
   -9    4   11     -0.13      0.00
   -9    4   10     -0.20      0.00
   -9    4    9     -0.47      0.00
   -9    4    8     -0.55      0.00
   -9    4    7     -0.13      0.00
   -9    4    6     -0.32      0.00
   -9    4    5     -0.77      0.00
   -9    4    4     -0.59      0.00
   -9    4    3     -0.37      0.00
   -9    4    2     -1.40      0.00
   -9    4    1      1.03      0.00
    9    4    0     -0.16      0.00
    9    4    1     -0.05      0.00
    9    4    2      0.43      0.00
    9    4    3     -0.62      0.00
    9    4    4      0.83      0.00
    9    4    5      0.90      0.00
    9    4    6      0.88      0.00
    9    4    7      1.20      0.00
    9    4    8      0.54      0.00
    9    4    9      0.38      0.00
    9    4   10      1.11      0.00
    9    4   11     -1.15      0.00
    9    4   12     -0.37      0.00
    9    4   13     -1.43      0.00
    9    4   14      1.97      0.00
    9    4   15      1.03      0.00
    9    4   16     -0.29      0.00
    9    4   17     -1.04      0.00
   -9    5   24      1.15      0.00
   -9    5   23      1.60      0.00
   -9    5   22      1.93      0.00
   -9    5   21     -2.52      0.00
   -9    5   20      1.87      0.00
   -9    5   19      0.35      0.00
   -9    5   18      1.79      0.00
   -9    5   17      0.21      0.00
   -9    5   16      0.09      0.00
   -9    5   15     -1.04      0.00
   -9    5   14      0.71      0.00
   -9    5   13      1.16      0.00
   -9    5   12     -0.64      0.00
   -9    5   11     -0.49      0.00
   -9    5   10     -0.63      0.00
   -9    5    9     -0.38      0.00
   -9    5    8     -0.04      0.00
   -9    5    7     -0.56      0.00
   -9    5    6      1.40      0.00
   -9    5    5     -0.19      0.00
   -9    5    4      0.38      0.00
   -9    5    3     -0.42      0.00
   -9    5    2     -1.18      0.00
   -9    5    1      0.34      0.00
    9    5    0     -0.56      0.00
    9    5    1      0.06      0.00
    9    5    2     -0.56      0.00
    9    5    3     -0.43      0.00
    9    5    4     -0.39      0.00
    9    5    5     -0.03      0.00
    9    5    6     -0.31      0.00
    9    5    7     -0.56      0.00
    9    5    8     -0.41      0.00
    9    5    9     -0.28      0.00
    9    5   10      0.21      0.00
    9    5   11     -1.20      0.00
    9    5   12     -0.90      0.00
    9    5   13     -0.66      0.00
    9    5   14      1.00      0.00
    9    5   15      0.36      0.00
    9    5   16     -0.40      0.00
   -9    6   24     -0.01      0.00
   -9    6   23      1.39      0.00
   -9    6   22      2.65      0.00
   -9    6   21     -0.90      0.00
   -9    6   20      0.13      0.00
   -9    6   19     -1.62      0.00
   -9    6   18      1.90      0.00
   -9    6   17     -0.86      0.00
   -9    6   16      0.77      0.00
   -9    6   15     -0.72      0.00
   -9    6   14      0.75      0.00
   -9    6   13      0.67      0.00
   -9    6   12      0.09      0.00
   -9    6   11     -0.67      0.00
   -9    6   10     -0.73      0.00
   -9    6    9     -0.25      0.00
   -9    6    8      0.15      0.00
   -9    6    7     -1.49      0.00
   -9    6    6      1.48      0.00
   -9    6    5      0.59      0.00
   -9    6    4     -0.11      0.00
   -9    6    3      0.35      0.00
   -9    6    2     -1.56      0.00
   -9    6    1      0.34      0.00
    9    6    0     -0.16      0.00
    9    6    1      0.46      0.00
    9    6    2     -0.52      0.00
    9    6    3      0.85      0.00
    9    6    4     -0.63      0.00
    9    6    5      0.27      0.00
    9    6    6      0.13      0.00
    9    6    7     -0.63      0.00
    9    6    8      0.93      0.00
    9    6    9      0.60      0.00
    9    6   10      0.72      0.00
    9    6   11      0.07      0.00
    9    6   12     -0.27      0.00
    9    6   13      0.11      0.00
    9    6   14      1.51      0.00
    9    6   15      0.18      0.00
   -9    7   22      4.27      0.00
   -9    7   21      1.54      0.00
   -9    7   20      0.69      0.00
   -9    7   19     -1.85      0.00
   -9    7   18      1.02      0.00
   -9    7   17     -1.25      0.00
   -9    7   16      0.46      0.00
   -9    7   15     -0.03      0.00
   -9    7   14      0.48      0.00
   -9    7   13     -0.21      0.00
   -9    7   12      0.05      0.00
   -9    7   11     -1.25      0.00
   -9    7   10     -0.22      0.00
   -9    7    9     -0.23      0.00
   -9    7    8      0.67      0.00
   -9    7    7     -0.30      0.00
   -9    7    6      0.18      0.00
   -9    7    5      2.28      0.00
   -9    7    4     -0.47      0.00
   -9    7    3      0.45      0.00
   -9    7    2     -0.83      0.00
   -9    7    1      0.45      0.00
    9    7    0      0.01      0.00
    9    7    1      0.03      0.00
    9    7    2      0.28      0.00
    9    7    3      0.72      0.00
    9    7    4      0.06      0.00
    9    7    5      0.07      0.00
    9    7    6     -0.04      0.00
    9    7    7     -0.56      0.00
    9    7    8     -0.82      0.00
    9    7    9      0.45      0.00
    9    7   10     -0.34      0.00
    9    7   11      0.06      0.00
    9    7   12      0.41      0.00
    9    7   13     -0.38      0.00
    9    7   14      0.93      0.00
   -9    8   21      2.10      0.00
   -9    8   20      0.11      0.00
   -9    8   19      0.52      0.00
   -9    8   18     -0.37      0.00
   -9    8   17      1.81      0.00
   -9    8   16     -0.81      0.00
   -9    8   15      2.68      0.00
   -9    8   14      0.46      0.00
   -9    8   13      0.11      0.00
   -9    8   12     -0.37      0.00
   -9    8   11     -0.96      0.00
   -9    8   10     -0.69      0.00
   -9    8    9     -0.32      0.00
   -9    8    8      0.50      0.00
   -9    8    7     -0.54      0.00
   -9    8    6     -0.40      0.00
   -9    8    5      1.43      0.00
   -9    8    4      0.04      0.00
   -9    8    3     -0.13      0.00
   -9    8    2     -0.91      0.00
   -9    8    1      1.22      0.00
    9    8    0      0.18      0.00
    9    8    1      0.23      0.00
    9    8    2      0.25      0.00
    9    8    3      0.60      0.00
    9    8    4     -0.77      0.00
    9    8    5     -0.48      0.00
    9    8    6      0.09      0.00
    9    8    7      0.13      0.00
    9    8    8      0.44      0.00
    9    8    9      1.20      0.00
    9    8   10      0.72      0.00
    9    8   11      0.30      0.00
    9    8   12      0.32      0.00
   -9    9   20      0.97      0.00
   -9    9   19      1.10      0.00
   -9    9   18      1.45      0.00
   -9    9   17      0.28      0.00
   -9    9   16     -0.81      0.00
   -9    9   15      2.66      0.00
   -9    9   14      0.40      0.00
   -9    9   13      1.99      0.00
   -9    9   12      0.00      0.00
   -9    9   11      1.07      0.00
   -9    9   10     -0.65      0.00
   -9    9    9      0.29      0.00
   -9    9    8      0.53      0.00
   -9    9    7     -0.08      0.00
   -9    9    6      0.23      0.00
   -9    9    5      0.09      0.00
   -9    9    4      1.49      0.00
   -9    9    3     -1.18      0.00
   -9    9    2     -0.49      0.00
   -9    9    1      0.40      0.00
    9    9    0     -1.03      0.00
    9    9    1      0.37      0.00
    9    9    2     -0.47      0.00
    9    9    3      2.09      0.00
    9    9    4     -1.44      0.00
    9    9    5     -0.13      0.00
    9    9    6      1.46      0.00
    9    9    7     -0.35      0.00
    9    9    8      2.98      0.00
    9    9    9      1.00      0.00
    9    9   10      1.81      0.00
   -9   10   18      2.99      0.00
   -9   10   17     -0.52      0.00
   -9   10   16      1.34      0.00
   -9   10   15      0.17      0.00
   -9   10   14      2.57      0.00
   -9   10   13     -0.80      0.00
   -9   10   12      1.23      0.00
   -9   10   11      0.18      0.00
   -9   10   10      0.61      0.00
   -9   10    9      0.11      0.00
   -9   10    8      1.68      0.00
   -9   10    7      1.24      0.00
   -9   10    6      0.12      0.00
   -9   10    5      0.35      0.00
   -9   10    4      1.01      0.00
   -9   10    3     -0.43      0.00
   -9   10    2      0.09      0.00
   -9   10    1     -0.32      0.00
    9   10    0     -1.46      0.00
    9   10    1     -0.21      0.00
    9   10    2      0.44      0.00
    9   10    3      0.66      0.00
    9   10    4     -2.20      0.00
    9   10    5     -1.26      0.00
    9   10    6      0.54      0.00
    9   10    7     -0.41      0.00
    9   10    8      2.69      0.00
   -9   11   15     -0.45      0.00
   -9   11   14      1.78      0.00
   -9   11   13     -1.37      0.00
   -9   11   12     -0.27      0.00
   -9   11   11      0.89      0.00
   -9   11   10     -0.98      0.00
   -9   11    9     -0.84      0.00
   -9   11    8     -0.16      0.00
   -9   11    7      0.18      0.00
   -9   11    6     -0.18      0.00
   -9   11    5     -0.52      0.00
   -9   11    4      0.35      0.00
   -9   11    3      0.57      0.00
   -9   11    2     -0.27      0.00
   -9   11    1      0.61      0.00
    9   11    0     -0.38      0.00
    9   11    1      0.77      0.00
    9   11    2      0.91      0.00
    9   11    3     -0.36      0.00
    9   11    4     -3.02      0.00
    9   11    5     -1.56      0.00
   -9   12   12     -2.35      0.00
   -9   12   11      2.48      0.00
   -9   12   10     -1.63      0.00
   -9   12    9     -1.12      0.00
   -9   12    8     -0.18      0.00
   -9   12    7     -0.30      0.00
   -9   12    6      1.22      0.00
   -9   12    5     -1.79      0.00
   -9   12    4      0.42      0.00
   -9   12    3     -1.83      0.00
   -9   12    2     -0.08      0.00
   -9   12    1     -0.77      0.00
  -10    0   26      1.57      0.00
  -10    0   24     -0.18      0.00
  -10    0   22      0.90      0.00
  -10    0   20      1.66      0.00
  -10    0   18     -0.08      0.00
  -10    0   16      1.48      0.00
  -10    0   14      1.65      0.00
  -10    0   12     -0.51      0.00
  -10    0   10     -0.72      0.00
  -10    0    8     -0.76      0.00
  -10    0    6      0.65      0.00
  -10    0    4     -1.00      0.00
  -10    0    2      1.28      0.00
   10    0    0      1.06      0.00
   10    0    2      1.66      0.00
   10    0    4     -0.37      0.00
   10    0    6      1.79      0.00
   10    0    8     -0.62      0.00
   10    0   10     -1.73      0.00
   10    0   12      0.65      0.00
   10    0   14      1.97      0.00
  -10    1   26      1.93      0.00
  -10    1   25      2.50      0.00
  -10    1   24      0.11      0.00
  -10    1   23      2.06      0.00
  -10    1   22     -0.15      0.00
  -10    1   21      0.66      0.00
  -10    1   20      0.11      0.00
  -10    1   19      0.91      0.00
  -10    1   18     -0.06      0.00
  -10    1   17      0.99      0.00
  -10    1   16      1.40      0.00
  -10    1   15      0.35      0.00
  -10    1   14      0.94      0.00
  -10    1   13      0.78      0.00
  -10    1   12     -0.14      0.00
  -10    1   11     -0.22      0.00
  -10    1   10     -0.20      0.00
  -10    1    9     -1.18      0.00
  -10    1    8      0.20      0.00
  -10    1    7     -0.89      0.00
  -10    1    6      1.67      0.00
  -10    1    5      0.84      0.00
  -10    1    4     -0.43      0.00
  -10    1    3      0.85      0.00
  -10    1    2      0.46      0.00
  -10    1    1      0.51      0.00
   10    1    0     -0.28      0.00
   10    1    1     -0.10      0.00
   10    1    2      0.75      0.00
   10    1    3      0.40      0.00
   10    1    4     -0.62      0.00
   10    1    5      0.55      0.00
   10    1    6      1.25      0.00
   10    1    7     -0.05      0.00
   10    1    8     -0.45      0.00
   10    1    9     -0.06      0.00
   10    1   10     -0.69      0.00
   10    1   11      0.36      0.00
   10    1   12      0.74      0.00
   10    1   13     -1.24      0.00
   10    1   14      2.02      0.00
   10    1   15      1.58      0.00
   10    1   16      2.20      0.00
   10    1   17     -2.21      0.00
  -10    2   26      1.36      0.00
  -10    2   25     -0.19      0.00
  -10    2   24      0.58      0.00
  -10    2   23     -0.32      0.00
  -10    2   22      0.96      0.00
  -10    2   21     -1.08      0.00
  -10    2   20      0.26      0.00
  -10    2   19     -0.97      0.00
  -10    2   18      0.08      0.00
  -10    2   17     -0.42      0.00
  -10    2   16      0.77      0.00
  -10    2   15     -0.66      0.00
  -10    2   14      0.20      0.00
  -10    2   13     -0.17      0.00
  -10    2   12      0.34      0.00
  -10    2   11     -0.56      0.00
  -10    2   10     -0.74      0.00
  -10    2    9     -0.26      0.00
  -10    2    8     -0.86      0.00
  -10    2    7      0.31      0.00
  -10    2    6      0.27      0.00
  -10    2    5      0.70      0.00
  -10    2    4     -0.11      0.00
  -10    2    3      0.15      0.00
  -10    2    2      0.18      0.00
  -10    2    1      0.86      0.00
   10    2    0     -0.75      0.00
   10    2    1     -1.14      0.00
   10    2    2      0.44      0.00
   10    2    3     -0.47      0.00
   10    2    4     -0.65      0.00
   10    2    5     -0.16      0.00
   10    2    6      0.17      0.00
   10    2    7     -1.45      0.00
   10    2    8     -1.13      0.00
   10    2    9     -1.98      0.00
   10    2   10     -0.21      0.00
   10    2   11     -0.92      0.00
   10    2   12      1.66      0.00
   10    2   13     -1.74      0.00
   10    2   14      5.76      0.00
   10    2   15      0.53      0.00
   10    2   16      0.13      0.00
   10    2   17     -3.09      0.00
  -10    3   25     -0.72      0.00
  -10    3   24      0.42      0.00
  -10    3   23      1.78      0.00
  -10    3   22      1.03      0.00
  -10    3   21      1.10      0.00
  -10    3   20     -0.57      0.00
  -10    3   19     -1.05      0.00
  -10    3   18     -0.28      0.00
  -10    3   17      0.49      0.00
  -10    3   16      0.42      0.00
  -10    3   15      0.69      0.00
  -10    3   14     -0.24      0.00
  -10    3   13     -0.02      0.00
  -10    3   12      0.71      0.00
  -10    3   11     -0.10      0.00
  -10    3   10     -0.39      0.00
  -10    3    9      0.14      0.00
  -10    3    8     -0.78      0.00
  -10    3    7      0.59      0.00
  -10    3    6     -0.27      0.00
  -10    3    5      0.16      0.00
  -10    3    4      1.09      0.00
  -10    3    3     -0.65      0.00
  -10    3    2      1.02      0.00
  -10    3    1     -0.29      0.00
   10    3    0      0.37      0.00
   10    3    1     -0.43      0.00
   10    3    2      1.06      0.00
   10    3    3      1.17      0.00
   10    3    4     -0.22      0.00
   10    3    5      1.99      0.00
   10    3    6      0.51      0.00
   10    3    7      0.25      0.00
   10    3    8     -1.04      0.00
   10    3    9     -0.12      0.00
   10    3   10     -1.02      0.00
   10    3   11     -0.42      0.00
   10    3   12      2.64      0.00
   10    3   13      0.09      0.00
   10    3   14     10.73      0.00
   10    3   15     -0.62      0.00
   10    3   16      2.08      0.00
   10    3   17     -0.63      0.00
  -10    4   25     -0.43      0.00
  -10    4   24     -1.13      0.00
  -10    4   23      1.35      0.00
  -10    4   22     -1.47      0.00
  -10    4   21      0.15      0.00
  -10    4   20     -1.29      0.00
  -10    4   19     -1.91      0.00
  -10    4   18      0.27      0.00
  -10    4   17      0.20      0.00
  -10    4   16      0.52      0.00
  -10    4   15     -0.42      0.00
  -10    4   14     -0.09      0.00
  -10    4   13     -0.34      0.00
  -10    4   12      1.26      0.00
  -10    4   11      1.35      0.00
  -10    4   10     -0.08      0.00
  -10    4    9      0.28      0.00
  -10    4    8      0.19      0.00
  -10    4    7     -0.22      0.00
  -10    4    6      0.62      0.00
  -10    4    5     -0.58      0.00
  -10    4    4      1.14      0.00
  -10    4    3     -0.15      0.00
  -10    4    2      0.13      0.00
  -10    4    1     -0.68      0.00
   10    4    0     -0.37      0.00
   10    4    1      0.30      0.00
   10    4    2      0.92      0.00
   10    4    3      1.63      0.00
   10    4    4     -0.19      0.00
   10    4    5      1.89      0.00
   10    4    6     -0.11      0.00
   10    4    7     -0.43      0.00
   10    4    8     -0.21      0.00
   10    4    9      0.68      0.00
   10    4   10     -0.92      0.00
   10    4   11     -0.31      0.00
   10    4   12     -0.01      0.00
   10    4   13      0.90      0.00
   10    4   14      4.25      0.00
   10    4   15     -2.98      0.00
  -10    5   24     -0.07      0.00
  -10    5   23      2.03      0.00
  -10    5   22      1.20      0.00
  -10    5   21      1.31      0.00
  -10    5   20      1.75      0.00
  -10    5   19     -0.62      0.00
  -10    5   18      0.10      0.00
  -10    5   17      0.72      0.00
  -10    5   16     -1.13      0.00
  -10    5   15     -0.75      0.00
  -10    5   14     -0.58      0.00
  -10    5   13     -0.91      0.00
  -10    5   12      1.45      0.00
  -10    5   11      1.47      0.00
  -10    5   10      0.02      0.00
  -10    5    9      0.33      0.00
  -10    5    8     -0.50      0.00
  -10    5    7      0.09      0.00
  -10    5    6     -0.52      0.00
  -10    5    5     -0.28      0.00
  -10    5    4      0.03      0.00
  -10    5    3      0.41      0.00
  -10    5    2     -0.80      0.00
  -10    5    1     -0.60      0.00
   10    5    0     -2.08      0.00
   10    5    1      1.27      0.00
   10    5    2     -0.68      0.00
   10    5    3      0.84      0.00
   10    5    4     -1.28      0.00
   10    5    5      0.44      0.00
   10    5    6     -1.74      0.00
   10    5    7     -1.29      0.00
   10    5    8     -0.26      0.00
   10    5    9      0.44      0.00
   10    5   10     -0.73      0.00
   10    5   11      0.58      0.00
   10    5   12      0.06      0.00
   10    5   13      2.71      0.00
   10    5   14      0.57      0.00
  -10    6   23      0.80      0.00
  -10    6   22      2.52      0.00
  -10    6   21      1.08      0.00
  -10    6   20      2.63      0.00
  -10    6   19      1.29      0.00
  -10    6   18      0.51      0.00
  -10    6   17      2.01      0.00
  -10    6   16      0.60      0.00
  -10    6   15     -0.12      0.00
  -10    6   14      0.66      0.00
  -10    6   13     -1.06      0.00
  -10    6   12      0.09      0.00
  -10    6   11      0.97      0.00
  -10    6   10     -0.37      0.00
  -10    6    9     -0.42      0.00
  -10    6    8     -1.11      0.00
  -10    6    7     -0.75      0.00
  -10    6    6     -1.35      0.00
  -10    6    5     -0.85      0.00
  -10    6    4      0.17      0.00
  -10    6    3      0.02      0.00
  -10    6    2     -0.29      0.00
  -10    6    1      0.49      0.00
   10    6    0     -1.32      0.00
   10    6    1      1.35      0.00
   10    6    2     -0.64      0.00
   10    6    3      0.83      0.00
   10    6    4     -0.53      0.00
   10    6    5      0.47      0.00
   10    6    6     -1.46      0.00
   10    6    7      0.17      0.00
   10    6    8     -1.32      0.00
   10    6    9      1.38      0.00
   10    6   10     -1.26      0.00
   10    6   11      0.25      0.00
   10    6   12      0.79      0.00
   10    6   13      1.25      0.00
  -10    7   22     -0.82      0.00
  -10    7   21     -0.09      0.00
  -10    7   20     -0.55      0.00
  -10    7   19      0.10      0.00
  -10    7   18      0.52      0.00
  -10    7   17      0.33      0.00
  -10    7   16      2.19      0.00
  -10    7   15      0.10      0.00
  -10    7   14      2.30      0.00
  -10    7   13     -0.27      0.00
  -10    7   12      0.19      0.00
  -10    7   11     -0.01      0.00
  -10    7   10      0.62      0.00
  -10    7    9      0.16      0.00
  -10    7    8     -0.77      0.00
  -10    7    7      0.23      0.00
  -10    7    6     -1.56      0.00
  -10    7    5     -1.13      0.00
  -10    7    4      0.21      0.00
  -10    7    3     -1.02      0.00
  -10    7    2     -1.12      0.00
  -10    7    1      0.85      0.00
   10    7    0     -1.16      0.00
   10    7    1     -0.62      0.00
   10    7    2     -1.47      0.00
   10    7    3     -0.75      0.00
   10    7    4     -1.34      0.00
   10    7    5      0.07      0.00
   10    7    6     -0.76      0.00
   10    7    7     -0.67      0.00
   10    7    8     -1.23      0.00
   10    7    9      0.20      0.00
   10    7   10     -0.21      0.00
   10    7   11     -0.55      0.00
   10    7   12      1.44      0.00
  -10    8   20     -1.90      0.00
  -10    8   19      0.21      0.00
  -10    8   18      1.32      0.00
  -10    8   17      0.00      0.00
  -10    8   16      1.64      0.00
  -10    8   15      0.43      0.00
  -10    8   14      1.16      0.00
  -10    8   13      0.68      0.00
  -10    8   12      0.39      0.00
  -10    8   11     -1.34      0.00
  -10    8   10      1.91      0.00
  -10    8    9      0.33      0.00
  -10    8    8      0.30      0.00
  -10    8    7      0.57      0.00
  -10    8    6     -1.20      0.00
  -10    8    5     -1.36      0.00
  -10    8    4      0.18      0.00
  -10    8    3     -0.68      0.00
  -10    8    2     -0.96      0.00
  -10    8    1      0.90      0.00
   10    8    0      0.08      0.00
   10    8    1     -1.18      0.00
   10    8    2     -0.30      0.00
   10    8    3     -1.31      0.00
   10    8    4     -1.68      0.00
   10    8    5     -0.12      0.00
   10    8    6      1.04      0.00
   10    8    7     -1.66      0.00
   10    8    8      2.24      0.00
   10    8    9      0.47      0.00
   10    8   10      2.00      0.00
   10    8   11      0.44      0.00
  -10    9   18     -0.03      0.00
  -10    9   17      0.52      0.00
  -10    9   16     -1.41      0.00
  -10    9   15     -0.16      0.00
  -10    9   14      0.01      0.00
  -10    9   13      1.42      0.00
  -10    9   12      0.85      0.00
  -10    9   11      0.13      0.00
  -10    9   10     -0.44      0.00
  -10    9    9      1.20      0.00
  -10    9    8     -0.92      0.00
  -10    9    7     -0.19      0.00
  -10    9    6     -0.30      0.00
  -10    9    5     -0.95      0.00
  -10    9    4     -0.08      0.00
  -10    9    3      1.20      0.00
  -10    9    2     -1.68      0.00
  -10    9    1      2.15      0.00
   10    9    0     -0.40      0.00
   10    9    1     -1.42      0.00
   10    9    2      1.68      0.00
   10    9    3     -2.90      0.00
   10    9    4      0.34      0.00
   10    9    5     -0.78      0.00
   10    9    6      0.86      0.00
   10    9    7     -1.03      0.00
   10    9    8      0.95      0.00
   10    9   10      0.41      0.00
  -10   10   16     -1.83      0.00
  -10   10   15      0.10      0.00
  -10   10   14     -0.67      0.00
  -10   10   13      1.55      0.00
  -10   10   12      0.18      0.00
  -10   10   11      1.06      0.00
  -10   10   10     -1.83      0.00
  -10   10    9      1.94      0.00
  -10   10    8     -0.34      0.00
  -10   10    7      0.37      0.00
  -10   10    6      1.03      0.00
  -10   10    5     -0.37      0.00
  -10   10    4      0.94      0.00
  -10   10    3     -0.82      0.00
  -10   10    2     -0.12      0.00
  -10   10    1     -0.60      0.00
   10   10    0      0.29      0.00
   10   10    1      0.60      0.00
   10   10    2      0.42      0.00
   10   10    3     -3.54      0.00
   10   10    4     -0.80      0.00
   10   10    5     -1.31      0.00
  -10   11   12      0.79      0.00
  -10   11   11     -0.60      0.00
  -10   11   10     -0.28      0.00
  -10   11    7     -0.02      0.00
  -10   11    6     -0.38      0.00
  -10   11    5      1.19      0.00
  -10   11    4      1.12      0.00
  -10   11    3     -0.29      0.00
  -10   11    2      1.87      0.00
  -10   11    1     -1.31      0.00
   10   11    0      2.21      0.00
   10   11    1      1.41      0.00
   10   11    2      0.05      0.00
  -10   12    4      0.56      0.00
  -10   12    3      0.79      0.00
  -10   12    2      0.28      0.00
  -11    0   23     -1.90      0.00
  -11    0   21     -0.27      0.00
  -11    0   19     -0.51      0.00
  -11    0   17     -0.58      0.00
  -11    0   15      0.36      0.00
  -11    0   13     -0.41      0.00
  -11    0   11     -0.59      0.00
  -11    0    9      0.04      0.00
  -11    0    7     -0.57      0.00
  -11    0    5     -0.53      0.00
  -11    0    3      0.22      0.00
  -11    0    1     -0.13      0.00
   11    0    1      1.52      0.00
   11    0    3      0.54      0.00
   11    0    5      2.21      0.00
   11    0    7     -0.49      0.00
   11    0    9     -1.40      0.00
   11    0   11      0.12      0.00
   11    0   13     -1.08      0.00
  -11    1   24     -0.17      0.00
  -11    1   23      0.21      0.00
  -11    1   22     -0.31      0.00
  -11    1   21      1.01      0.00
  -11    1   20      0.91      0.00
  -11    1   19      1.30      0.00
  -11    1   18      0.11      0.00
  -11    1   17      0.27      0.00
  -11    1   16      0.33      0.00
  -11    1   15      0.32      0.00
  -11    1   14      0.95      0.00
  -11    1   13      0.43      0.00
  -11    1   12     -0.05      0.00
  -11    1   11      0.37      0.00
  -11    1   10      0.22      0.00
  -11    1    9      0.28      0.00
  -11    1    8      1.07      0.00
  -11    1    7      0.27      0.00
  -11    1    6     -0.73      0.00
  -11    1    5      0.71      0.00
  -11    1    4      0.17      0.00
  -11    1    3      1.01      0.00
  -11    1    2      0.67      0.00
  -11    1    1     -0.22      0.00
   11    1    0     -0.45      0.00
   11    1    1     -0.04      0.00
   11    1    2     -0.96      0.00
   11    1    3     -0.24      0.00
   11    1    4      0.05      0.00
   11    1    5      1.36      0.00
   11    1    6     -0.90      0.00
   11    1    7     -0.13      0.00
   11    1    8      0.05      0.00
   11    1    9     -0.76      0.00
   11    1   10      1.47      0.00
   11    1   11     -0.16      0.00
   11    1   12     -0.24      0.00
   11    1   13     -0.98      0.00
   11    1   14      0.67      0.00
   11    1   15      0.03      0.00
  -11    2   23      0.94      0.00
  -11    2   22     -2.42      0.00
  -11    2   21      1.02      0.00
  -11    2   20     -0.04      0.00
  -11    2   19      1.94      0.00
  -11    2   18     -0.54      0.00
  -11    2   17     -0.56      0.00
  -11    2   16     -1.72      0.00
  -11    2   15     -0.60      0.00
  -11    2   14     -0.54      0.00
  -11    2   13      0.60      0.00
  -11    2   12     -0.89      0.00
  -11    2   11      0.09      0.00
  -11    2   10      0.42      0.00
  -11    2    9     -0.73      0.00
  -11    2    8      3.09      0.00
  -11    2    7     -0.05      0.00
  -11    2    6      0.53      0.00
  -11    2    5      0.53      0.00
  -11    2    4      0.19      0.00
  -11    2    3      0.84      0.00
  -11    2    2      0.00      0.00
  -11    2    1     -0.04      0.00
   11    2    0      0.24      0.00
   11    2    1     -1.15      0.00
   11    2    2      0.17      0.00
   11    2    3      0.03      0.00
   11    2    4     -0.02      0.00
   11    2    5      0.31      0.00
   11    2    6     -1.37      0.00
   11    2    7     -0.07      0.00
   11    2    8     -1.14      0.00
   11    2    9     -0.47      0.00
   11    2   10     -0.04      0.00
   11    2   11     -0.52      0.00
   11    2   12     -1.39      0.00
   11    2   13      0.55      0.00
   11    2   14     -0.08      0.00
   11    2   15     -0.22      0.00
   11    2   16     -1.19      0.00
  -11    3   23      1.10      0.00
  -11    3   22     -0.19      0.00
  -11    3   21     -0.10      0.00
  -11    3   20      0.75      0.00
  -11    3   19      0.76      0.00
  -11    3   18      0.37      0.00
  -11    3   17     -0.70      0.00
  -11    3   16     -0.75      0.00
  -11    3   15     -0.39      0.00
  -11    3   14      0.82      0.00
  -11    3   13     -0.05      0.00
  -11    3   12     -0.86      0.00
  -11    3   11     -0.52      0.00
  -11    3   10     -0.84      0.00
  -11    3    9     -0.48      0.00
  -11    3    8      0.39      0.00
  -11    3    7      0.62      0.00
  -11    3    6     -1.31      0.00
  -11    3    5      0.86      0.00
  -11    3    4      0.12      0.00
  -11    3    3      0.14      0.00
  -11    3    2      0.38      0.00
  -11    3    1     -0.05      0.00
   11    3    0     -1.07      0.00
   11    3    1     -1.12      0.00
   11    3    2      0.71      0.00
   11    3    3     -0.32      0.00
   11    3    4     -0.04      0.00
   11    3    5     -0.33      0.00
   11    3    6      0.28      0.00
   11    3    7      1.02      0.00
   11    3    8      0.66      0.00
   11    3    9      0.34      0.00
   11    3   10      0.48      0.00
   11    3   11     -0.23      0.00
   11    3   12     -1.58      0.00
   11    3   13      3.18      0.00
   11    3   14     -2.61      0.00
   11    3   15      1.78      0.00
   11    3   16     -3.11      0.00
  -11    4   21     -1.59      0.00
  -11    4   20     -0.83      0.00
  -11    4   19      0.67      0.00
  -11    4   18      0.71      0.00
  -11    4   17      1.05      0.00
  -11    4   16     -1.08      0.00
  -11    4   15      0.82      0.00
  -11    4   14      0.07      0.00
  -11    4   13      0.79      0.00
  -11    4   12     -1.19      0.00
  -11    4   11      0.14      0.00
  -11    4   10     -0.52      0.00
  -11    4    9      0.42      0.00
  -11    4    8     -0.78      0.00
  -11    4    7      0.97      0.00
  -11    4    6     -1.78      0.00
  -11    4    5      1.44      0.00
  -11    4    4      0.67      0.00
  -11    4    3      0.38      0.00
  -11    4    2      0.72      0.00
  -11    4    1      0.60      0.00
   11    4    0     -2.50      0.00
   11    4    1      0.13      0.00
   11    4    2     -0.41      0.00
   11    4    3     -1.00      0.00
   11    4    4     -1.66      0.00
   11    4    5     -0.63      0.00
   11    4    6     -0.46      0.00
   11    4    7      1.20      0.00
   11    4    8      0.34      0.00
   11    4    9      0.66      0.00
   11    4   10      0.03      0.00
   11    4   11     -0.04      0.00
   11    4   12     -2.09      0.00
   11    4   13      1.90      0.00
   11    4   15      0.42      0.00
   11    4   16     -3.50      0.00
  -11    5   19     -0.02      0.00
  -11    5   18     -0.03      0.00
  -11    5   17     -0.68      0.00
  -11    5   16     -3.25      0.00
  -11    5   15     -0.65      0.00
  -11    5   14     -1.90      0.00
  -11    5   13      0.63      0.00
  -11    5   12     -1.26      0.00
  -11    5   11      0.44      0.00
  -11    5   10      0.30      0.00
  -11    5    9      1.40      0.00
  -11    5    8      0.61      0.00
  -11    5    7      0.20      0.00
  -11    5    6      0.22      0.00
  -11    5    5      0.36      0.00
  -11    5    4      1.07      0.00
  -11    5    3     -0.85      0.00
  -11    5    2     -0.29      0.00
  -11    5    1     -0.39      0.00
   11    5    0     -0.58      0.00
   11    5    1      1.33      0.00
   11    5    2      0.11      0.00
   11    5    3      0.16      0.00
   11    5    4     -1.38      0.00
   11    5    5      0.19      0.00
   11    5    6     -0.40      0.00
   11    5    7      0.71      0.00
   11    5    8     -1.04      0.00
   11    5    9      0.27      0.00
   11    5   10     -1.70      0.00
   11    5   11      0.03      0.00
   11    5   12     -1.02      0.00
   11    5   13      1.32      0.00
  -11    6   19      0.37      0.00
  -11    6   18      0.03      0.00
  -11    6   17     -0.03      0.00
  -11    6   16     -3.89      0.00
  -11    6   15      0.24      0.00
  -11    6   14     -2.00      0.00
  -11    6   13     -1.23      0.00
  -11    6   12     -0.67      0.00
  -11    6   11     -0.71      0.00
  -11    6   10      0.18      0.00
  -11    6    9      1.66      0.00
  -11    6    8      1.18      0.00
  -11    6    7     -0.35      0.00
  -11    6    6      0.32      0.00
  -11    6    5      1.07      0.00
  -11    6    4     -0.07      0.00
  -11    6    3     -0.16      0.00
  -11    6    2     -0.22      0.00
  -11    6    1      0.13      0.00
   11    6    0      0.25      0.00
   11    6    1      1.21      0.00
   11    6    2      0.66      0.00
   11    6    3     -0.11      0.00
   11    6    4     -0.68      0.00
   11    6    5     -0.29      0.00
   11    6    6     -0.03      0.00
   11    6    7     -0.01      0.00
   11    6    8     -0.02      0.00
   11    6    9      0.11      0.00
   11    6   10     -1.01      0.00
   11    6   11     -1.15      0.00
   11    6   12     -0.13      0.00
  -11    7   18     -0.28      0.00
  -11    7   17      0.29      0.00
  -11    7   16     -1.77      0.00
  -11    7   15      0.87      0.00
  -11    7   14      1.97      0.00
  -11    7   13     -2.94      0.00
  -11    7   12     -0.66      0.00
  -11    7   11     -1.10      0.00
  -11    7   10     -2.07      0.00
  -11    7    9      0.88      0.00
  -11    7    8     -0.06      0.00
  -11    7    7     -0.89      0.00
  -11    7    6     -1.03      0.00
  -11    7    5      2.00      0.00
  -11    7    4     -1.07      0.00
  -11    7    3     -0.18      0.00
  -11    7    2     -1.01      0.00
  -11    7    1      0.74      0.00
   11    7    0      0.82      0.00
   11    7    1      0.93      0.00
   11    7    2     -0.65      0.00
   11    7    3     -1.04      0.00
   11    7    4     -2.22      0.00
   11    7    5     -1.85      0.00
   11    7    6      0.15      0.00
   11    7    7     -1.58      0.00
   11    7    8      1.90      0.00
   11    7    9     -0.26      0.00
   11    7   10     -0.03      0.00
   11    7   11     -0.51      0.00
  -11    8   16      0.58      0.00
  -11    8   15      0.61      0.00
  -11    8   14      5.77      0.00
  -11    8   13     -2.51      0.00
  -11    8   12     -0.18      0.00
  -11    8   11     -0.34      0.00
  -11    8   10     -1.41      0.00
  -11    8    9      1.17      0.00
  -11    8    8      0.08      0.00
  -11    8    7      0.66      0.00
  -11    8    6     -2.24      0.00
  -11    8    5      2.17      0.00
  -11    8    4     -0.93      0.00
  -11    8    3     -1.32      0.00
  -11    8    2     -1.58      0.00
  -11    8    1      1.13      0.00
   11    8    0      1.76      0.00
   11    8    1      2.86      0.00
   11    8    2      0.60      0.00
   11    8    3      0.27      0.00
   11    8    4     -0.64      0.00
   11    8    5     -0.68      0.00
   11    8    6      0.90      0.00
   11    8    7      0.22      0.00
   11    8    8      1.42      0.00
   11    8    9      0.44      0.00
   11    8   10     -1.25      0.00
  -11    9   15      0.46      0.00
  -11    9   14      3.72      0.00
  -11    9   13      1.25      0.00
  -11    9   12      0.76      0.00
  -11    9   11      0.91      0.00
  -11    9   10      2.86      0.00
  -11    9    9     -0.01      0.00
  -11    9    8      2.52      0.00
  -11    9    7      0.27      0.00
  -11    9    6     -1.37      0.00
  -11    9    5      1.11      0.00
  -11    9    4      0.61      0.00
  -11    9    3     -0.47      0.00
  -11    9    2      0.45      0.00
  -11    9    1      1.30      0.00
   11    9    0     -0.18      0.00
   11    9    1      2.80      0.00
   11    9    2     -1.20      0.00
   11    9    3      1.58      0.00
   11    9    4     -1.67      0.00
   11    9    5      1.74      0.00
   11    9    8     -0.31      0.00
   11    9    9     -0.37      0.00
  -11   10   13      2.49      0.00
  -11   10   12     -0.19      0.00
  -11   10   11      0.28      0.00
  -11   10   10      1.00      0.00
  -11   10    9     -0.36      0.00
  -11   10    8      1.20      0.00
  -11   10    7      0.58      0.00
  -11   10    6     -0.01      0.00
  -11   10    5      0.11      0.00
  -11   10    4      0.12      0.00
  -11   10    3      0.11      0.00
  -11   10    2     -1.35      0.00
  -11   10    1      1.70      0.00
   11   10    0      1.37      0.00
   11   10    1      1.75      0.00
   11   10    2     -1.63      0.00
   11   10    3      0.39      0.00
  -11   11    3     -1.49      0.00
  -11   11    2     -0.72      0.00
  -11   11    1      1.29      0.00
  -12    0   20      0.23      0.00
  -12    0   18     -2.19      0.00
  -12    0   16      1.99      0.00
  -12    0   14      2.37      0.00
  -12    0   12      0.77      0.00
  -12    0   10     -1.56      0.00
  -12    0    8     -1.93      0.00
  -12    0    6      1.36      0.00
  -12    0    4      0.08      0.00
  -12    0    2      0.47      0.00
   12    0    0      0.38      0.00
   12    0    2     -0.74      0.00
   12    0    4      0.96      0.00
   12    0    6     -0.63      0.00
   12    0    8     -2.20      0.00
   12    0   10     -1.00      0.00
   12    0   12      0.34      0.00
  -12    1   19      0.06      0.00
  -12    1   18     -0.85      0.00
  -12    1   17      0.16      0.00
  -12    1   16      2.20      0.00
  -12    1   15      1.28      0.00
  -12    1   14      2.39      0.00
  -12    1   13     -1.03      0.00
  -12    1   12      1.13      0.00
  -12    1   11     -0.35      0.00
  -12    1   10     -1.07      0.00
  -12    1    9     -0.79      0.00
  -12    1    8     -2.24      0.00
  -12    1    7     -0.81      0.00
  -12    1    6      1.03      0.00
  -12    1    5      0.93      0.00
  -12    1    4      0.36      0.00
  -12    1    3      0.26      0.00
  -12    1    2      0.48      0.00
  -12    1    1      0.35      0.00
   12    1    0      0.18      0.00
   12    1    1     -1.55      0.00
   12    1    2     -0.37      0.00
   12    1    3     -1.00      0.00
   12    1    4      0.70      0.00
   12    1    5     -1.25      0.00
   12    1    6      0.26      0.00
   12    1    7     -0.46      0.00
   12    1    8     -0.68      0.00
   12    1    9      0.82      0.00
   12    1   10     -0.72      0.00
   12    1   11      0.25      0.00
   12    1   12     -0.97      0.00
   12    1   13     -0.07      0.00
   12    1   14     -0.12      0.00
  -12    2   19      1.25      0.00
  -12    2   18     -1.00      0.00
  -12    2   17      0.23      0.00
  -12    2   16     -0.59      0.00
  -12    2   15      0.66      0.00
  -12    2   14      0.09      0.00
  -12    2   13     -1.26      0.00
  -12    2   12     -0.24      0.00
  -12    2   11      0.89      0.00
  -12    2   10     -0.39      0.00
  -12    2    9     -0.31      0.00
  -12    2    8     -0.94      0.00
  -12    2    7     -1.29      0.00
  -12    2    6      1.00      0.00
  -12    2    5      1.04      0.00
  -12    2    4      0.37      0.00
  -12    2    3     -0.17      0.00
  -12    2    2     -0.29      0.00
  -12    2    1     -0.63      0.00
   12    2    0     -1.19      0.00
   12    2    1      0.24      0.00
   12    2    2     -0.26      0.00
   12    2    3     -0.03      0.00
   12    2    4     -0.26      0.00
   12    2    5     -1.44      0.00
   12    2    6      0.80      0.00
   12    2    7     -2.00      0.00
   12    2    8      0.78      0.00
   12    2    9     -0.48      0.00
   12    2   10     -0.12      0.00
   12    2   11      0.11      0.00
   12    2   12     -0.88      0.00
   12    2   13      0.73      0.00
   12    2   14      0.05      0.00
   12    2   15      0.05      0.00
  -12    3   18     -0.95      0.00
  -12    3   17      0.13      0.00
  -12    3   16     -0.93      0.00
  -12    3   15      0.97      0.00
  -12    3   14     -0.59      0.00
  -12    3   13     -1.01      0.00
  -12    3   12     -1.64      0.00
  -12    3   11      0.24      0.00
  -12    3   10     -0.32      0.00
  -12    3    9     -2.00      0.00
  -12    3    8      0.77      0.00
  -12    3    7     -3.91      0.00
  -12    3    6      1.35      0.00
  -12    3    5     -0.75      0.00
  -12    3    4      1.00      0.00
  -12    3    3     -0.76      0.00
  -12    3    2     -0.82      0.00
  -12    3    1     -0.59      0.00
   12    3    0     -2.69      0.00
   12    3    1      0.19      0.00
   12    3    2     -0.78      0.00
   12    3    3     -0.63      0.00
   12    3    4     -1.57      0.00
   12    3    5      0.93      0.00
   12    3    6      0.53      0.00
   12    3    7      0.12      0.00
   12    3    8      1.63      0.00
   12    3    9      0.35      0.00
   12    3   10      0.18      0.00
   12    3   11      0.60      0.00
   12    3   12      0.10      0.00
   12    3   13      1.94      0.00
   12    3   14      1.95      0.00
  -12    4   18      1.71      0.00
  -12    4   17      0.85      0.00
  -12    4   16      2.85      0.00
  -12    4   15      1.88      0.00
  -12    4   14      1.17      0.00
  -12    4   13     -0.45      0.00
  -12    4   12     -0.41      0.00
  -12    4   11      0.35      0.00
  -12    4   10     -0.66      0.00
  -12    4    9     -1.76      0.00
  -12    4    8     -0.96      0.00
  -12    4    7     -3.44      0.00
  -12    4    6     -1.53      0.00
  -12    4    5     -0.68      0.00
  -12    4    4      0.88      0.00
  -12    4    3     -0.05      0.00
  -12    4    2      1.19      0.00
  -12    4    1     -0.21      0.00
   12    4    0     -0.48      0.00
   12    4    1      1.24      0.00
   12    4    2      0.70      0.00
   12    4    3     -0.28      0.00
   12    4    4     -0.26      0.00
   12    4    5      1.51      0.00
   12    4    6      0.88      0.00
   12    4    7     -1.24      0.00
   12    4    8      1.11      0.00
   12    4    9     -1.64      0.00
   12    4   10     -0.96      0.00
   12    4   11     -0.51      0.00
   12    4   12     -1.01      0.00
   12    4   13      1.38      0.00
  -12    5   19     -0.92      0.00
  -12    5   18      1.76      0.00
  -12    5   17      0.41      0.00
  -12    5   16      1.65      0.00
  -12    5   15      2.39      0.00
  -12    5   14     -1.09      0.00
  -12    5   13     -0.22      0.00
  -12    5   12     -0.26      0.00
  -12    5   11      0.55      0.00
  -12    5   10     -1.16      0.00
  -12    5    9     -0.91      0.00
  -12    5    8     -2.03      0.00
  -12    5    7     -1.32      0.00
  -12    5    6     -3.06      0.00
  -12    5    5      0.01      0.00
  -12    5    4     -0.41      0.00
  -12    5    3      0.37      0.00
  -12    5    2      0.87      0.00
  -12    5    1     -0.44      0.00
   12    5    0      0.97      0.00
   12    5    1      2.85      0.00
   12    5    2      2.17      0.00
   12    5    3      0.06      0.00
   12    5    4      1.21      0.00
   12    5    5      0.89      0.00
   12    5    6      0.97      0.00
   12    5    7     -1.68      0.00
   12    5    8      0.07      0.00
   12    5    9     -3.01      0.00
   12    5   10     -0.89      0.00
   12    5   11     -1.87      0.00
   12    5   12      0.42      0.00
  -12    6   19     -0.20      0.00
  -12    6   18      0.95      0.00
  -12    6   17      0.58      0.00
  -12    6   16      0.77      0.00
  -12    6   15      3.95      0.00
  -12    6   14     -1.86      0.00
  -12    6   13     -0.38      0.00
  -12    6   12      0.08      0.00
  -12    6   11      0.79      0.00
  -12    6   10     -0.09      0.00
  -12    6    9      0.64      0.00
  -12    6    8      0.68      0.00
  -12    6    7      0.69      0.00
  -12    6    6     -0.01      0.00
  -12    6    5     -0.70      0.00
  -12    6    4      0.78      0.00
  -12    6    3     -0.96      0.00
  -12    6    2      1.26      0.00
  -12    6    1      0.02      0.00
   12    6    0      1.27      0.00
   12    6    1      1.55      0.00
   12    6    2     -0.93      0.00
   12    6    3     -0.46      0.00
   12    6    4     -2.83      0.00
   12    6    5      0.33      0.00
   12    6    6     -0.22      0.00
   12    6    7     -1.78      0.00
   12    6    8     -0.18      0.00
   12    6    9     -2.40      0.00
   12    6   10     -0.25      0.00
   12    6   11     -0.83      0.00
  -12    7   17      0.91      0.00
  -12    7   16     -0.33      0.00
  -12    7   15      5.72      0.00
  -12    7   14     -1.49      0.00
  -12    7   13     -0.24      0.00
  -12    7   12      0.15      0.00
  -12    7   11      0.27      0.00
  -12    7   10      0.33      0.00
  -12    7    9     -0.37      0.00
  -12    7    8      1.80      0.00
  -12    7    7      0.18      0.00
  -12    7    6      1.18      0.00
  -12    7    5     -0.25      0.00
  -12    7    4      0.50      0.00
  -12    7    3     -0.27      0.00
  -12    7    2      0.78      0.00
  -12    7    1      0.40      0.00
   12    7    0      1.51      0.00
   12    7    1      0.17      0.00
   12    7    2     -1.71      0.00
   12    7    3     -0.07      0.00
   12    7    4     -3.69      0.00
   12    7    5      2.94      0.00
   12    7    6      0.07      0.00
   12    7    7     -0.93      0.00
   12    7    8     -1.22      0.00
   12    7    9     -1.62      0.00
   12    7   10     -0.80      0.00
  -12    8   16      0.20      0.00
  -12    8   15      4.78      0.00
  -12    8   14      0.69      0.00
  -12    8   13     -1.45      0.00
  -12    8   12     -0.65      0.00
  -12    8   11     -1.48      0.00
  -12    8   10     -2.45      0.00
  -12    8    9     -2.08      0.00
  -12    8    8     -1.00      0.00
  -12    8    7     -0.79      0.00
  -12    8    6      0.13      0.00
  -12    8    5     -0.05      0.00
  -12    8    4     -0.88      0.00
  -12    8    3     -0.38      0.00
  -12    8    2     -1.43      0.00
  -12    8    1     -0.05      0.00
   12    8    0      0.38      0.00
   12    8    1     -0.08      0.00
   12    8    2     -0.45      0.00
   12    8    3      2.36      0.00
   12    8    4     -2.41      0.00
   12    8    5      8.07      0.00
   12    8    6     -0.60      0.00
   12    8    7      1.63      0.00
   12    8    8     -1.41      0.00
  -12    9   14      2.95      0.00
  -12    9   13     -1.32      0.00
  -12    9   12      1.61      0.00
  -12    9   11      0.96      0.00
  -12    9   10     -0.73      0.00
  -12    9    9      0.70      0.00
  -12    9    8     -1.77      0.00
  -12    9    7      0.36      0.00
  -12    9    6     -1.34      0.00
  -12    9    5      0.87      0.00
  -12    9    4     -1.28      0.00
  -12    9    3      0.59      0.00
  -12    9    2     -1.04      0.00
  -12    9    1      1.58      0.00
   12    9    0     -0.70      0.00
   12    9    1     -2.14      0.00
   12    9    2     -0.58      0.00
  -12   10    5      1.61      0.00
  -12   10    4     -0.71      0.00
  -12   10    3      0.37      0.00
  -12   10    2      0.42      0.00
  -12   10    1     -0.19      0.00
  -13    0   19      0.43      0.00
  -13    0   17     -0.74      0.00
  -13    0   15     -1.27      0.00
  -13    0   13      0.20      0.00
  -13    0   11     -0.14      0.00
  -13    0    9     -1.64      0.00
  -13    0    7      0.39      0.00
  -13    0    5     -1.58      0.00
  -13    0    3      0.40      0.00
  -13    0    1     -0.52      0.00
   13    0    1     -2.06      0.00
   13    0    3     -0.58      0.00
   13    0    5     -1.20      0.00
   13    0    7     -1.02      0.00
   13    0    9     -0.11      0.00
   13    0   11     -0.91      0.00
  -13    1   20      0.07      0.00
  -13    1   19      0.72      0.00
  -13    1   18      0.16      0.00
  -13    1   17     -0.17      0.00
  -13    1   16      1.57      0.00
  -13    1   15     -0.50      0.00
  -13    1   14     -0.06      0.00
  -13    1   13     -0.29      0.00
  -13    1   12      0.71      0.00
  -13    1   11     -0.26      0.00
  -13    1   10     -1.78      0.00
  -13    1    9     -1.69      0.00
  -13    1    8     -1.97      0.00
  -13    1    7      0.79      0.00
  -13    1    6     -0.51      0.00
  -13    1    5     -0.70      0.00
  -13    1    4      0.89      0.00
  -13    1    3      0.82      0.00
  -13    1    2      1.69      0.00
  -13    1    1      0.59      0.00
   13    1    0     -0.76      0.00
   13    1    1      0.16      0.00
   13    1    2     -0.34      0.00
   13    1    3      1.02      0.00
   13    1    4      0.29      0.00
   13    1    5     -0.67      0.00
   13    1    6      0.94      0.00
   13    1    7     -0.88      0.00
   13    1    8      1.65      0.00
   13    1    9     -0.01      0.00
   13    1   10      0.61      0.00
   13    1   11     -0.66      0.00
   13    1   12     -0.76      0.00
  -13    2   18      0.90      0.00
  -13    2   17     -0.96      0.00
  -13    2   16      1.09      0.00
  -13    2   15     -0.48      0.00
  -13    2   14     -1.60      0.00
  -13    2   13     -1.43      0.00
  -13    2   12      1.01      0.00
  -13    2   11      0.60      0.00
  -13    2   10     -1.92      0.00
  -13    2    9      0.07      0.00
  -13    2    8     -2.68      0.00
  -13    2    7      1.84      0.00
  -13    2    6     -0.91      0.00
  -13    2    5      0.46      0.00
  -13    2    4     -0.10      0.00
  -13    2    3      0.73      0.00
  -13    2    2      1.40      0.00
  -13    2    1      0.34      0.00
   13    2    0     -0.74      0.00
   13    2    1      0.39      0.00
   13    2    2      0.29      0.00
   13    2    3      0.92      0.00
   13    2    4      0.32      0.00
   13    2    5      0.42      0.00
   13    2    6     -1.13      0.00
   13    2    7      0.88      0.00
   13    2    8     -0.90      0.00
   13    2    9      0.49      0.00
   13    2   10     -0.21      0.00
   13    2   11      0.35      0.00
   13    2   12      0.54      0.00
  -13    3   17     -1.22      0.00
  -13    3   16     -0.74      0.00
  -13    3   15      0.01      0.00
  -13    3   14     -2.20      0.00
  -13    3   13     -2.20      0.00
  -13    3   12     -0.69      0.00
  -13    3   11      0.53      0.00
  -13    3   10     -2.17      0.00
  -13    3    9      1.01      0.00
  -13    3    8     -1.74      0.00
  -13    3    7      1.17      0.00
  -13    3    6      0.05      0.00
  -13    3    5      1.00      0.00
  -13    3    4     -0.09      0.00
  -13    3    3     -0.14      0.00
  -13    3    2      0.69      0.00
  -13    3    1     -1.21      0.00
   13    3    0     -0.74      0.00
   13    3    1      0.59      0.00
   13    3    2     -0.34      0.00
   13    3    3      0.56      0.00
   13    3    4      1.37      0.00
   13    3    5      0.33      0.00
   13    3    6      1.06      0.00
   13    3    7      1.69      0.00
   13    3    8      0.47      0.00
   13    3    9      0.28      0.00
   13    3   10      0.23      0.00
  -13    4   17      0.75      0.00
  -13    4   16      1.26      0.00
  -13    4   15      1.74      0.00
  -13    4   14      1.06      0.00
  -13    4   13      0.01      0.00
  -13    4   12     -0.44      0.00
  -13    4   11      0.77      0.00
  -13    4   10     -0.76      0.00
  -13    4    9      0.59      0.00
  -13    4    8      0.51      0.00
  -13    4    7     -1.69      0.00
  -13    4    6      0.92      0.00
  -13    4    5      0.22      0.00
  -13    4    4      0.69      0.00
  -13    4    3     -0.05      0.00
  -13    4    2      0.51      0.00
  -13    4    1     -0.04      0.00
   13    4    0      0.53      0.00
   13    4    1      3.62      0.00
   13    4    2     -0.40      0.00
   13    4    3      2.13      0.00
   13    4    4      1.32      0.00
   13    4    5      1.08      0.00
   13    4    6      1.15      0.00
   13    4    7      1.82      0.00
   13    4    8     -0.36      0.00
   13    4    9     -0.45      0.00
   13    4   10      0.74      0.00
  -13    5   18     -0.25      0.00
  -13    5   17     -0.77      0.00
  -13    5   16      1.60      0.00
  -13    5   15     -0.82      0.00
  -13    5   14      1.12      0.00
  -13    5   13      1.52      0.00
  -13    5   12      0.27      0.00
  -13    5   11      0.45      0.00
  -13    5   10     -0.28      0.00
  -13    5    9      0.29      0.00
  -13    5    8     -0.25      0.00
  -13    5    7     -2.86      0.00
  -13    5    6     -1.66      0.00
  -13    5    5      0.25      0.00
  -13    5    4     -0.50      0.00
  -13    5    3     -0.12      0.00
  -13    5    2      0.86      0.00
  -13    5    1     -0.51      0.00
   13    5    0      0.61      0.00
   13    5    1      2.58      0.00
   13    5    2     -2.86      0.00
   13    5    3      1.89      0.00
   13    5    4     -2.48      0.00
   13    5    5      3.06      0.00
   13    5    6     -0.76      0.00
   13    5    7      2.66      0.00
   13    5    8     -0.99      0.00
  -13    6   17     -1.68      0.00
  -13    6   16      1.03      0.00
  -13    6   15     -1.20      0.00
  -13    6   14     -1.53      0.00
  -13    6   13      1.42      0.00
  -13    6   12      0.01      0.00
  -13    6   11     -0.86      0.00
  -13    6   10     -1.15      0.00
  -13    6    9      1.79      0.00
  -13    6    8     -0.43      0.00
  -13    6    7     -0.51      0.00
  -13    6    6     -2.54      0.00
  -13    6    5      1.44      0.00
  -13    6    4     -2.02      0.00
  -13    6    3     -0.82      0.00
  -13    6    2      1.04      0.00
  -13    6    1     -0.99      0.00
   13    6    0     -1.37      0.00
   13    6    1     -0.44      0.00
   13    6    2     -4.08      0.00
   13    6    3     -0.92      0.00
   13    6    4     -2.49      0.00
   13    6    5      2.70      0.00
   13    6    6     -1.45      0.00
  -13    7   13      0.72      0.00
  -13    7   12      1.75      0.00
  -13    7   11      0.26      0.00
  -13    7   10     -0.28      0.00
  -13    7    9      4.34      0.00
  -13    7    8      1.50      0.00
  -13    7    7      1.23      0.00
  -13    7    6     -0.71      0.00
  -13    7    5      1.13      0.00
  -13    7    3     -2.17      0.00
  -13    7    2      1.86      0.00
  -13    7    1     -0.40      0.00
   13    7    0     -2.63      0.00
   13    7    1      0.39      0.00
   13    7    2     -2.83      0.00
   13    7    3      1.04      0.00
   13    7    4      0.24      0.00
   13    7    5      4.78      0.00
  -13    8   10     -1.90      0.00
  -13    8    9      1.56      0.00
  -13    8    8      1.48      0.00
  -13    8    7     -0.32      0.00
  -13    8    2     -0.13      0.00
  -13    8    1     -1.22      0.00
   13    8    0     -1.75      0.00
   13    8    1      0.78      0.00
   13    8    2     -1.54      0.00
   13    8    3      1.45      0.00
  -14    0   18     -1.80      0.00
  -14    0   16      0.41      0.00
  -14    0   14      0.88      0.00
  -14    0   12      0.22      0.00
  -14    0   10     -1.04      0.00
  -14    0    8      0.70      0.00
  -14    0    6     -0.81      0.00
  -14    0    4     -0.50      0.00
  -14    0    2     -0.49      0.00
   14    0    0     -1.94      0.00
   14    0    2     -1.10      0.00
   14    0    4      0.68      0.00
   14    0    6      2.03      0.00
   14    0    8      2.32      0.00
  -14    1   18     -1.16      0.00
  -14    1   17     -0.08      0.00
  -14    1   16      1.42      0.00
  -14    1   15      0.31      0.00
  -14    1   14      1.95      0.00
  -14    1   13      0.71      0.00
  -14    1   12      0.98      0.00
  -14    1   11     -0.20      0.00
  -14    1   10     -1.45      0.00
  -14    1    9     -0.29      0.00
  -14    1    8     -0.13      0.00
  -14    1    7     -0.40      0.00
  -14    1    6     -0.29      0.00
  -14    1    5     -0.66      0.00
  -14    1    4      0.15      0.00
  -14    1    3     -0.46      0.00
  -14    1    2     -0.62      0.00
  -14    1    1     -0.18      0.00
   14    1    0     -1.17      0.00
   14    1    1      0.24      0.00
   14    1    2      0.16      0.00
   14    1    3      0.59      0.00
   14    1    4      0.59      0.00
   14    1    5     -0.02      0.00
   14    1    6      0.06      0.00
   14    1    7     -0.24      0.00
   14    1    8      0.20      0.00
   14    1    9      0.61      0.00
  -14    2   17      0.32      0.00
  -14    2   16      1.16      0.00
  -14    2   15      0.04      0.00
  -14    2   14      1.90      0.00
  -14    2   13      0.94      0.00
  -14    2   12      2.12      0.00
  -14    2   11      0.45      0.00
  -14    2   10     -0.64      0.00
  -14    2    9     -0.04      0.00
  -14    2    8     -0.31      0.00
  -14    2    7     -0.38      0.00
  -14    2    6     -0.04      0.00
  -14    2    5     -0.82      0.00
  -14    2    4     -0.52      0.00
  -14    2    3     -0.26      0.00
  -14    2    2     -2.19      0.00
  -14    2    1      1.02      0.00
   14    2    0     -1.87      0.00
   14    2    1     -1.12      0.00
   14    2    2     -0.85      0.00
   14    2    3     -0.02      0.00
   14    2    4     -0.12      0.00
   14    2    5     -1.28      0.00
   14    2    6     -0.06      0.00
   14    2    7     -1.90      0.00
   14    2    8     -0.20      0.00
  -14    3   16     -1.10      0.00
  -14    3   15     -1.28      0.00
  -14    3   14     -1.16      0.00
  -14    3   13     -0.05      0.00
  -14    3   12      0.50      0.00
  -14    3   11      0.70      0.00
  -14    3   10     -0.31      0.00
  -14    3    9      0.77      0.00
  -14    3    8      0.01      0.00
  -14    3    7      0.21      0.00
  -14    3    6      0.04      0.00
  -14    3    5      0.37      0.00
  -14    3    4     -1.74      0.00
  -14    3    3      0.73      0.00
  -14    3    2     -3.30      0.00
  -14    3    1      0.34      0.00
   14    3    0     -1.27      0.00
   14    3    1     -0.38      0.00
   14    3    2     -1.12      0.00
  -14    4   11      0.03      0.00
  -14    4   10      0.10      0.00
  -14    4    9      1.12      0.00
  -14    4    8      0.37      0.00
  -14    4    7      0.47      0.00
  -14    4    6      0.48      0.00
  -14    4    5      0.46      0.00
  -14    4    4     -1.42      0.00
  -14    4    3      0.21      0.00
  -14    4    2     -2.10      0.00
  -14    4    1     -1.05      0.00
   14    4    3      0.96      0.00
   14    4    4     -2.07      0.00
  -14    5    3     -0.11      0.00
  -14    5    2     -1.62      0.00
  -14    5    1     -0.57      0.00
   14    5    0     -0.03      0.00
   14    5    1     -3.08      0.00
   14    5    2     -0.60      0.00
   14    5    3     -2.53      0.00
   14    6    0     -1.11      0.00
   14    6    1     -1.95      0.00
   14    6    2     -0.81      0.00
   14    6    3     -1.47      0.00
    0    1    0    128.58      0.00
    1    1    0    -61.52      0.00
   -1    0    1     62.75      0.00
    1    0    1    -19.27      0.00
   -1    1    1     24.20      0.00
    0    1    1    -31.64      0.00
    0    0    2     74.01      0.00
    0    1    2     15.73      0.00
   10    0   16      5.52      0.00
    0    0    0      0.00      0.00
# SQUEEZE RESULTS
# Note: Data are Listed for all Voids in the P1 Unit Cell
# i.e. Centre of Gravity, Solvent Accessible Volume,
# Recovered number of Electrons in the Void and
# Details about the Squeezed Material
loop_
  _platon_squeeze_void_nr
  _platon_squeeze_void_average_x
  _platon_squeeze_void_average_y
  _platon_squeeze_void_average_z
  _platon_squeeze_void_volume
  _platon_squeeze_void_count_electrons
  _platon_squeeze_void_content
   1 -0.010  0.000 -0.014      1169       198 ' '
# Missing Reflections Below sin(th)/lambda= 0.25
loop_
  _platon_missing_refln_index_h
  _platon_missing_refln_index_k
  _platon_missing_refln_index_l
  _platon_missing_refln_theta
    0    1    0     1.863
    1    1    0     2.652
   -1    0    1     1.971
    1    0    1     2.265
   -1    1    1     2.713
    0    1    1     2.102
    0    0    2     1.946
    0    1    2     2.695
_platon_squeeze_void_probe_radius                  1.20
_platon_squeeze_details
)
TITL shelxl in P2/n
CELL   10.9510   10.9310   21.2380     90.00     99.78     90.00
SPGR P2/n
# Solvent Accessible Volume =    1192.2
# Electrons Found in S.A.V. =     194.4
# Note: Atoms in Void as Cxxx and Qxxx all others
C101 0.095 0.069 0.441 !       1.32 eA-3
C102 0.107 0.109 0.369 !       1.22 eA-3
C103 0.199 0.085 0.343 !       1.22 eA-3
C104 0.136 0.055 0.409 !       1.17 eA-3
C105 0.379 0.018 0.017 !       1.11 eA-3
C106 0.063 0.049 0.396 !       1.08 eA-3
C107 0.937 0.951 0.604 !       1.08 eA-3
C108 0.203 0.073 0.173 !       1.07 eA-3
C109 0.612 0.663 0.421 !       1.04 eA-3
C110 0.202 0.072 0.247 !       1.02 eA-3
C111 0.108 0.039 0.348 !       1.02 eA-3
C112 0.608 0.945 0.840 !       1.02 eA-3
C113 0.203 0.069 0.293 !       1.00 eA-3
C114 0.329 0.031 0.048 !       1.00 eA-3
C115 0.152 0.042 0.254 !       0.99 eA-3
C116 0.128 0.086 0.124 !       0.97 eA-3
C117 0.077 0.063 0.304 !       0.97 eA-3
C118 0.170 0.047 0.378 !       0.97 eA-3
C119 0.145 0.137 0.431 !       0.95 eA-3
C120 0.645 0.855 0.944 !       0.95 eA-3
C121 0.106 0.097 0.178 !       0.94 eA-3
C122 0.152 0.083 0.283 !       0.93 eA-3
C123 0.156 0.036 0.175 !       0.92 eA-3
C124 0.016 0.164 0.048 !       0.92 eA-3
Q125 0.735 0.787 0.157 !       0.92 eA-3
C126 0.857 0.880 0.471 !       0.91 eA-3
C127 0.845 0.802 0.483 !       0.90 eA-3
C128 0.035 0.994 0.487 !       0.90 eA-3
C129 0.076 0.220 0.061 !       0.90 eA-3
C130 0.956 0.009 0.469 !       0.89 eA-3
C131 0.796 0.764 0.480 !       0.89 eA-3
C132 0.296 0.233 0.988 !       0.89 eA-3
C133 0.064 0.079 0.213 !       0.89 eA-3
C134 0.029 0.093 0.170 !       0.88 eA-3
C135 0.434 0.308 0.491 !       0.87 eA-3
C136 0.642 0.873 0.977 !       0.87 eA-3
C137 0.284 0.028 0.079 !       0.86 eA-3
C138 0.655 0.686 0.467 !       0.84 eA-3
C139 0.346 0.216 0.452 !       0.84 eA-3
C140 0.237 0.118 0.283 !       0.84 eA-3
C141 0.999 1.004 0.066 !       0.82 eA-3
C142 0.997 1.007 0.437 !       0.82 eA-3
C143 0.047 0.089 0.125 !       0.81 eA-3
C144 0.671 1.000 0.030 !       0.81 eA-3
C145 0.592 0.726 0.436 !       0.81 eA-3
C146 0.030 0.157 0.088 !       0.81 eA-3
C147 0.469 0.123 0.436 !       0.81 eA-3
C148 0.936 0.820 0.016 !       0.80 eA-3
Q149 0.517 0.655 0.141 !       0.80 eA-3
C150 0.065 0.138 0.450 !       0.80 eA-3
C151 0.031 0.019 0.455 !       0.80 eA-3
C152 0.218 0.102 0.112 !       0.79 eA-3
C153 0.253 0.093 0.062 !       0.79 eA-3
C154 0.436 0.382 0.468 !       0.79 eA-3
C155 0.170 0.063 0.062 !       0.78 eA-3
C156 0.299 0.010 0.002 !       0.78 eA-3
C157 0.281 0.137 0.356 !       0.78 eA-3
C158 0.018 0.074 0.438 !       0.78 eA-3
C159 0.186 0.167 0.341 !       0.78 eA-3
Q160 0.185 0.432 0.357 !       0.77 eA-3
C161 0.016 0.058 0.484 !       0.77 eA-3
C162 0.564 0.674 0.407 !       0.77 eA-3
Q163 0.860 0.426 0.449 !       0.76 eA-3
C164 0.941 0.048 0.066 !       0.76 eA-3
C165 0.158 0.114 0.078 !       0.76 eA-3
C166 0.297 0.262 0.499 !       0.76 eA-3
C167 0.701 0.677 0.473 !       0.76 eA-3
C168 0.173 0.203 0.467 !       0.76 eA-3
C169 0.111 0.100 0.224 !       0.76 eA-3
C170 0.076 0.121 0.136 !       0.75 eA-3
C171 0.251 0.071 0.033 !       0.75 eA-3
C172 0.157 0.107 0.307 !       0.75 eA-3
C173 0.188 0.140 0.044 !       0.74 eA-3
C174 0.452 0.337 0.545 !       0.74 eA-3
C175 0.548 0.663 0.455 !       0.74 eA-3
C176 0.480 0.078 0.358 !       0.74 eA-3
Q177 0.656 0.624 0.469 !       0.74 eA-3
C178 0.404 0.235 0.487 !       0.74 eA-3
C179 0.599 0.649 0.487 !       0.72 eA-3
Q180 0.309 0.364 0.496 !       0.72 eA-3
C181 0.169 0.056 0.015 !       0.72 eA-3
Q182 0.092 0.817 0.127 !       0.71 eA-3
C183 0.658 0.772 0.453 !       0.71 eA-3
C184 0.342 0.228 0.547 !       0.71 eA-3
C185 0.017 0.115 0.014 !       0.70 eA-3
C186 0.483 0.104 0.483 !       0.70 eA-3
C187 0.784 0.885 0.015 !       0.70 eA-3
C188 0.093 0.131 0.067 !       0.69 eA-3
C189 0.123 0.117 0.020 !       0.69 eA-3
C190 0.700 0.917 0.012 !       0.69 eA-3
C191 0.391 0.364 0.450 !       0.69 eA-3
C192 0.094 0.074 0.079 !       0.68 eA-3
C193 0.250 0.177 0.401 !       0.68 eA-3
C194 0.749 0.966 0.046 !       0.68 eA-3
C195 0.609 0.762 0.485 !       0.68 eA-3
C196 0.342 0.200 0.499 !       0.68 eA-3
C197 0.030 0.014 0.016 !       0.68 eA-3
C198 0.954 0.926 0.015 !       0.67 eA-3
C199 0.307 0.276 0.998 !       0.67 eA-3
)
;
_shelx_fab_checksum              34353
loop_
_space_group_symop_operation_xyz
'x, y, z'
'-x+1/2, y, -z+1/2'
'-x, -y, -z'
'x-1/2, -y, z-1/2'
loop_
_atom_site_label
_atom_site_type_symbol
_atom_site_fract_x
_atom_site_fract_y
_atom_site_fract_z
_atom_site_U_iso_or_equiv
_atom_site_adp_type
_atom_site_occupancy
_atom_site_site_symmetry_order
_atom_site_calc_flag
_atom_site_refinement_flags_posn
_atom_site_refinement_flags_adp
_atom_site_refinement_flags_occupancy
_atom_site_disorder_assembly
_atom_site_disorder_group
Zn1 Zn 0.22608(3) 0.59872(4) 0.67991(2) 0.02830(15) Uani 1 1 d . . . . .
S1 S 0.29441(8) 0.73752(13) 0.35444(4) 0.0623(4) Uani 1 1 d . . . . .
S2 S 0.05720(8) 0.73759(13) 0.26528(4) 0.0607(4) Uani 1 1 d . . . . .
O1 O 0.2339(2) 0.7814(3) 0.69686(13) 0.0548(7) Uani 1 1 d . . . . .
O2 O 0.2269(2) 0.4151(2) 0.69650(13) 0.0515(7) Uani 1 1 d . . . . .
O3 O 0.04687(18) 0.5998(2) 0.69424(12) 0.0461(7) Uani 1 1 d . . . . .
O4 O 0.41470(18) 0.5941(2) 0.69965(12) 0.0469(7) Uani 1 1 d . . . . .
N1 N 0.2010(2) 0.6125(3) 0.58343(13) 0.0438(8) Uani 1 1 d . . . . .
C1 C 0.1616(3) 0.6962(4) 0.38482(16) 0.0510(11) Uani 1 1 d . . . . .
C2 C 0.0556(3) 0.6963(4) 0.34331(17) 0.0556(12) Uani 1 1 d . . . . .
H2 H -0.018284 0.674295 0.356349 0.067 Uiso 1 1 calc R U . . .
C3 C 0.2204(3) 0.7381(4) 0.27488(15) 0.0452(9) Uani 1 1 d . . . . .
C4 C 0.2869(11) 0.584(2) 0.5507(5) 0.094(7) Uani 0.63(3) 1 d . . P A 1
H4' H 0.357000 0.543299 0.571142 0.113 Uiso 0.63(3) 1 calc R U P A 1
C5 C 0.2782(10) 0.613(2) 0.4858(5) 0.087(6) Uani 0.63(3) 1 d . . P A 1
H5' H 0.344562 0.596837 0.465021 0.104 Uiso 0.63(3) 1 calc R U P A 1
C4' C 0.2901(17) 0.677(3) 0.5589(8) 0.072(8) Uani 0.37(3) 1 d . . P A 2
H4 H 0.359695 0.703941 0.586737 0.086 Uiso 0.37(3) 1 calc R U P A 2
C5' C 0.2806(16) 0.703(3) 0.4950(8) 0.070(7) Uani 0.37(3) 1 d . . P A 2
H5 H 0.343348 0.745503 0.479805 0.084 Uiso 0.37(3) 1 calc R U P A 2
C6 C 0.1738(3) 0.6652(4) 0.45302(16) 0.0505(11) Uani 1 1 d . . . . .
C7 C 0.0805(4) 0.6600(7) 0.4845(2) 0.122(3) Uani 1 1 d . . . . .
H7 H 0.000765 0.674812 0.462728 0.146 Uiso 1 1 calc R U . . .
C8 C 0.0970(4) 0.6334(7) 0.5483(2) 0.113(3) Uani 1 1 d . . . . .
H8 H 0.026799 0.630407 0.567524 0.136 Uiso 1 1 calc R U . . .
C9 C 0.250000 0.9711(5) 0.750000 0.0444(14) Uani 1 2 d S T P . .
C10 C 0.2441(3) 1.0341(4) 0.69323(19) 0.0543(11) Uani 1 1 d . . . . .
H10 H 0.239952 0.991878 0.654896 0.065 Uiso 1 1 calc R U . . .
C11 C 0.2444(3) 0.1601(4) 0.6940(2) 0.0514(10) Uani 1 1 d . . . . .
H11 H 0.240740 0.202136 0.655622 0.062 Uiso 1 1 calc R U . . .
C12 C 0.250000 0.2261(5) 0.750000 0.0397(12) Uani 1 2 d S T P . .
C13 C 0.250000 0.8331(5) 0.750000 0.0436(13) Uani 1 2 d S T P . .
C14 C 0.250000 0.3630(5) 0.750000 0.0424(13) Uani 1 2 d S T P . .
C15 C -0.1234(2) 0.5942(3) 0.74880(16) 0.0378(9) Uani 1 1 d . . . . .
C16 C -0.1666(3) 0.5940(4) 0.80609(17) 0.0466(10) Uani 1 1 d . . . . .
H16 H -0.110468 0.593657 0.844239 0.056 Uiso 1 1 calc R U . . .
C17 C -0.2073(3) 0.5943(4) 0.69250(16) 0.0461(10) Uani 1 1 d . . . . .
H17 H -0.179335 0.594661 0.653540 0.055 Uiso 1 1 calc R U . . .
C18 C 0.0147(3) 0.5964(3) 0.74769(18) 0.0379(9) Uani 1 1 d . . . . .
loop_
_atom_site_aniso_label
_atom_site_aniso_U_11
_atom_site_aniso_U_22
_atom_site_aniso_U_33
_atom_site_aniso_U_23
_atom_site_aniso_U_13
_atom_site_aniso_U_12
Zn1 0.0250(2) 0.0279(3) 0.0326(2) 0.00026(18) 0.00650(14) -0.00038(15)
S1 0.0473(5) 0.1044(11) 0.0339(5) -0.0024(6) 0.0033(4) -0.0162(6)
S2 0.0446(5) 0.0992(11) 0.0369(5) 0.0028(6) 0.0025(4) 0.0039(5)
O1 0.0672(16) 0.0271(17) 0.0704(18) -0.0022(15) 0.0128(13) -0.0017(12)
O2 0.0514(15) 0.0252(17) 0.0763(18) 0.0080(15) 0.0061(13) 0.0021(11)
O3 0.0247(11) 0.059(2) 0.0574(16) 0.0030(15) 0.0148(10) 0.0015(10)
O4 0.0189(10) 0.063(2) 0.0583(15) 0.0031(14) 0.0058(10) 0.0009(10)
N1 0.0355(15) 0.059(3) 0.0373(16) 0.0033(16) 0.0078(13) 0.0010(14)
C1 0.046(2) 0.072(3) 0.035(2) -0.003(2) 0.0063(15) -0.0054(19)
C2 0.044(2) 0.081(4) 0.042(2) 0.001(2) 0.0076(16) 0.002(2)
C3 0.0477(19) 0.054(3) 0.0325(18) 0.003(2) 0.0029(13) 0.0014(18)
C4 0.062(6) 0.174(19) 0.050(5) 0.019(8) 0.020(4) 0.052(8)
C5 0.057(5) 0.156(17) 0.053(5) 0.016(8) 0.026(4) 0.036(7)
C4' 0.050(7) 0.13(2) 0.037(7) 0.012(11) -0.004(5) -0.037(10)
C5' 0.066(8) 0.11(2) 0.034(7) 0.010(10) 0.011(5) -0.030(11)
C6 0.0418(19) 0.070(3) 0.038(2) 0.000(2) 0.0036(16) -0.0040(19)
C7 0.051(3) 0.263(9) 0.050(3) 0.038(4) 0.003(2) 0.008(4)
C8 0.045(3) 0.243(9) 0.053(3) 0.038(4) 0.010(2) 0.000(3)
C9 0.032(2) 0.027(3) 0.074(4) 0.000 0.008(2) 0.000
C10 0.070(2) 0.039(3) 0.056(2) 0.003(2) 0.0150(19) 0.005(2)
C11 0.066(2) 0.024(2) 0.064(3) 0.014(2) 0.0100(19) 0.0056(18)
C12 0.036(2) 0.026(3) 0.058(3) 0.000 0.009(2) 0.000
C13 0.036(3) 0.027(4) 0.068(4) 0.000 0.012(2) 0.000
C14 0.024(2) 0.028(3) 0.076(4) 0.000 0.008(2) 0.000
C15 0.0211(15) 0.040(2) 0.053(2) -0.0008(19) 0.0083(14) 0.0013(14)
C16 0.0258(16) 0.068(3) 0.045(2) 0.005(2) 0.0042(14) -0.0027(16)
C17 0.0286(17) 0.068(3) 0.044(2) -0.001(2) 0.0127(14) -0.0002(17)
C18 0.0242(16) 0.036(2) 0.055(2) -0.0035(19) 0.0109(16) 0.0036(14)
loop_
_atom_type_symbol
_atom_type_description
_atom_type_scat_dispersion_real
_atom_type_scat_dispersion_imag
_atom_type_scat_source
C C 0.0033 0.0016 'International Tables Vol C Tables 4.2.6.8 and 6.1.1.4'
H H 0.0000 0.0000 'International Tables Vol C Tables 4.2.6.8 and 6.1.1.4'
N N 0.0061 0.0033 'International Tables Vol C Tables 4.2.6.8 and 6.1.1.4'
O O 0.0106 0.0060 'International Tables Vol C Tables 4.2.6.8 and 6.1.1.4'
S S 0.1246 0.1234 'International Tables Vol C Tables 4.2.6.8 and 6.1.1.4'
Zn Zn 0.2839 1.4301 'International Tables Vol C Tables 4.2.6.8 and 6.1.1.4'
loop_
_geom_angle_atom_site_label_1
_geom_angle_atom_site_label_2
_geom_angle_atom_site_label_3
_geom_angle
_geom_angle_site_symmetry_1
_geom_angle_site_symmetry_3
_geom_angle_publ_flag
N1 Zn1 O1 95.78(12) . . ?
N1 Zn1 O3 100.49(10) . . ?
O1 Zn1 O3 88.89(10) . . ?
N1 Zn1 O4 99.70(10) . . ?
O1 Zn1 O4 88.68(10) . . ?
O3 Zn1 O4 159.81(10) . . ?
N1 Zn1 O2 104.10(13) . . ?
O1 Zn1 O2 160.11(12) . . ?
O3 Zn1 O2 87.47(10) . . ?
O4 Zn1 O2 88.03(10) . . ?
N1 Zn1 Zn1 175.10(9) . 2_556 ?
O1 Zn1 Zn1 79.93(8) . 2_556 ?
O3 Zn1 Zn1 81.89(8) . 2_556 ?
O4 Zn1 Zn1 77.94(8) . 2_556 ?
O2 Zn1 Zn1 80.20(8) . 2_556 ?
C3 S1 C1 94.55(16) . . ?
C2 S2 C3 93.74(16) . . ?
C13 O1 Zn1 127.0(3) . . ?
C14 O2 Zn1 126.6(3) . . ?
C18 O3 Zn1 124.4(2) . . ?
C18 O4 Zn1 129.5(2) 2_556 . ?
C8 N1 C4 112.8(6) . . ?
C8 N1 C4' 107.9(9) . . ?
C8 N1 Zn1 124.1(3) . . ?
C4 N1 Zn1 122.5(5) . . ?
C4' N1 Zn1 116.0(7) . . ?
C2 C1 C6 125.1(3) . . ?
C2 C1 S1 116.2(3) . . ?
C6 C1 S1 118.7(2) . . ?
C1 C2 S2 119.2(3) . . ?
C3 C3 S1 124.0(3) 2 . ?
C3 C3 S2 121.9(3) 2 . ?
S1 C3 S2 114.01(19) . . ?
N1 C4 C5 122.6(8) . . ?
C6 C5 C4 120.7(8) . . ?
C5' C4' N1 122.8(12) . . ?
C4' C5' C6 118.6(13) . . ?
C7 C6 C5 112.4(6) . . ?
C7 C6 C5' 108.9(9) . . ?
C7 C6 C1 124.2(3) . . ?
C5 C6 C1 122.0(5) . . ?
C5' C6 C1 118.8(7) . . ?
C6 C7 C8 122.0(4) . . ?
N1 C8 C7 125.0(4) . . ?
C10 C9 C10 120.2(6) . 2_556 ?
C10 C9 C13 119.9(3) . . ?
C10 C9 C13 119.9(3) 2_556 . ?
C11 C10 C9 119.3(4) 1_565 . ?
C10 C11 C12 122.1(4) 1_545 . ?
C11 C12 C11 117.1(5) . 2_556 ?
C11 C12 C14 121.4(3) . . ?
C11 C12 C14 121.4(3) 2_556 . ?
O1 C13 O1 126.2(5) . 2_556 ?
O1 C13 C9 116.9(3) . . ?
O1 C13 C9 116.9(3) 2_556 . ?
O2 C14 O2 126.2(5) . 2_556 ?
O2 C14 C12 116.9(3) . . ?
O2 C14 C12 116.9(3) 2_556 . ?
C16 C15 C17 119.2(3) . . ?
C16 C15 C18 120.4(3) . . ?
C17 C15 C18 120.4(3) . . ?
C15 C16 C17 120.8(3) . 2_456 ?
C15 C17 C16 120.1(3) . 2_456 ?
O3 C18 O4 126.2(3) . 2_556 ?
O3 C18 C15 116.9(3) . . ?
O4 C18 C15 117.0(3) 2_556 . ?
loop_
_geom_bond_atom_site_label_1
_geom_bond_atom_site_label_2
_geom_bond_distance
_geom_bond_site_symmetry_2
_geom_bond_publ_flag
Zn1 N1 2.026(3) . ?
Zn1 O1 2.029(3) . ?
Zn1 O3 2.036(2) . ?
Zn1 O4 2.037(2) . ?
Zn1 O2 2.038(3) . ?
Zn1 Zn1 2.9338(9) 2_556 ?
S1 C3 1.746(3) . ?
S1 C1 1.748(3) . ?
S2 C2 1.721(4) . ?
S2 C3 1.764(3) . ?
O1 C13 1.247(3) . ?
O2 C14 1.257(3) . ?
O3 C18 1.245(4) . ?
O4 C18 1.247(4) 2_556 ?
N1 C8 1.271(5) . ?
N1 C4 1.298(9) . ?
N1 C4' 1.376(15) . ?
C1 C2 1.333(4) . ?
C1 C6 1.471(5) . ?
C3 C3 1.331(7) 2 ?
C4 C5 1.402(14) . ?
C5 C6 1.358(10) . ?
C4' C5' 1.37(2) . ?
C5' C6 1.408(16) . ?
C6 C7 1.314(5) . ?
C7 C8 1.368(6) . ?
C9 C10 1.380(5) . ?
C9 C10 1.380(5) 2_556 ?
C9 C13 1.509(7) . ?
C10 C11 1.378(6) 1_565 ?
C11 C12 1.384(5) . ?
C12 C14 1.496(7) . ?
C15 C16 1.378(5) . ?
C15 C17 1.379(4) . ?
C15 C18 1.517(4) . ?
C16 C17 1.386(4) 2_456 ?
loop_
_geom_torsion_atom_site_label_1
_geom_torsion_atom_site_label_2
_geom_torsion_atom_site_label_3
_geom_torsion_atom_site_label_4
_geom_torsion
_geom_torsion_site_symmetry_1
_geom_torsion_site_symmetry_2
_geom_torsion_site_symmetry_3
_geom_torsion_site_symmetry_4
_geom_torsion_publ_flag
C3 S1 C1 C2 -8.6(4) . . . . ?
C3 S1 C1 C6 171.8(4) . . . . ?
C6 C1 C2 S2 178.9(4) . . . . ?
S1 C1 C2 S2 -0.7(5) . . . . ?
C3 S2 C2 C1 9.5(4) . . . . ?
C1 S1 C3 C3 -164.87(17) . . . 2 ?
C1 S1 C3 S2 14.7(3) . . . . ?
C2 S2 C3 C3 164.66(17) . . . 2 ?
C2 S2 C3 S1 -14.9(3) . . . . ?
C8 N1 C4 C5 19.9(19) . . . . ?
Zn1 N1 C4 C5 -168.7(9) . . . . ?
N1 C4 C5 C6 -4.8(19) . . . . ?
C8 N1 C4' C5' -30(2) . . . . ?
Zn1 N1 C4' C5' -174.2(15) . . . . ?
N1 C4' C5' C6 2(3) . . . . ?
C4 C5 C6 C7 -13.0(17) . . . . ?
C4 C5 C6 C1 -179.7(9) . . . . ?
C4' C5' C6 C7 28(2) . . . . ?
C4' C5' C6 C1 178.3(13) . . . . ?
C2 C1 C6 C7 -15.7(8) . . . . ?
S1 C1 C6 C7 163.9(5) . . . . ?
C2 C1 C6 C5 149.5(13) . . . . ?
S1 C1 C6 C5 -31.0(14) . . . . ?
C2 C1 C6 C5' -161.0(17) . . . . ?
S1 C1 C6 C5' 18.6(17) . . . . ?
C5 C6 C7 C8 15.1(15) . . . . ?
C5' C6 C7 C8 -30.3(18) . . . . ?
C1 C6 C7 C8 -178.5(6) . . . . ?
C4 N1 C8 C7 -18.4(16) . . . . ?
C4' N1 C8 C7 29.6(17) . . . . ?
Zn1 N1 C8 C7 170.3(6) . . . . ?
C6 C7 C8 N1 0.6(12) . . . . ?
C10 C9 C10 C11 0.1(2) 2_556 . . 1_565 ?
C13 C9 C10 C11 -179.9(2) . . . 1_565 ?
C10 C11 C12 C11 0.1(2) 1_545 . . 2_556 ?
C10 C11 C12 C14 -179.9(2) 1_545 . . . ?
Zn1 O1 C13 O1 1.03(11) . . . 2_556 ?
Zn1 O1 C13 C9 -178.97(11) . . . . ?
C10 C9 C13 O1 -5.9(2) . . . . ?
C10 C9 C13 O1 174.1(2) 2_556 . . . ?
C10 C9 C13 O1 174.1(2) . . . 2_556 ?
C10 C9 C13 O1 -5.9(2) 2_556 . . 2_556 ?
Zn1 O2 C14 O2 2.42(10) . . . 2_556 ?
Zn1 O2 C14 C12 -177.58(10) . . . . ?
C11 C12 C14 O2 9.9(2) . . . . ?
C11 C12 C14 O2 -170.1(2) 2_556 . . . ?
C11 C12 C14 O2 -170.1(2) . . . 2_556 ?
C11 C12 C14 O2 9.9(2) 2_556 . . 2_556 ?
C17 C15 C16 C17 -0.2(6) . . . 2_456 ?
C18 C15 C16 C17 178.8(3) . . . 2_456 ?
C16 C15 C17 C16 -0.1(5) . . . 2_456 ?
C18 C15 C17 C16 -179.1(4) . . . 2_456 ?
Zn1 O3 C18 O4 1.4(6) . . . 2_556 ?
Zn1 O3 C18 C15 -178.3(2) . . . . ?
C16 C15 C18 O3 -178.1(4) . . . . ?
C17 C15 C18 O3 0.8(5) . . . . ?
C16 C15 C18 O4 2.2(5) . . . 2_556 ?
C17 C15 C18 O4 -178.9(4) . . . 2_556 ?
