#------------------------------------------------------------------------------
#$Date: 2021-01-03 21:48:43 +0200 (Sun, 03 Jan 2021) $
#$Revision: 260395 $
#$URL: file:///home/coder/svn-repositories/cod/cif/4/51/83/4518397.cif $
#------------------------------------------------------------------------------
#
# This file is available in the Crystallography Open Database (COD),
# http://www.crystallography.net/
#
# All data on this site have been placed in the public domain by the
# contributors.
#
data_4518397
loop_
_publ_author_name
'Du, Ze-Yu'
'Yu, Yan-Zhao'
'Hong, Ya-Lin'
'Li, Ning-Fang'
'Han, Ye-Min'
'Cao, Jia-Peng'
'Sun, Qi'
'Mei, Hua'
'Xu, Yan'
_publ_section_title
;
 Polyoxometalate-Based Metal-Organic Frameworks with Unique
 High-Nuclearity Water Clusters.
;
_journal_issue                   51
_journal_name_full               'ACS applied materials &amp; interfaces'
_journal_page_first              57174
_journal_page_last               57181
_journal_paper_doi               10.1021/acsami.0c18970
_journal_volume                  12
_journal_year                    2020
_chemical_formula_sum            'C72 H112 Cu12 Mo11 O130 P V'
_chemical_formula_weight         4957.34
_space_group_crystal_system      cubic
_space_group_IT_number           225
_space_group_name_Hall           '-F 4 2 3'
_space_group_name_H-M_alt        'F m -3 m'
_atom_sites_solution_hydrogens   mixed
_audit_creation_method           SHELXL-2018/3
_cell_angle_alpha                90
_cell_angle_beta                 90
_cell_angle_gamma                90
_cell_formula_units_Z            4
_cell_length_a                   26.454(15)
_cell_length_b                   26.454(15)
_cell_length_c                   26.454(15)
_cell_measurement_reflns_used    2049
_cell_measurement_temperature    296(2)
_cell_measurement_theta_max      22.09
_cell_measurement_theta_min      2.55
_cell_volume                     18513(18)
_computing_cell_refinement       'SAINT (Bruker, 2005)'
_computing_data_collection       'APEX2 (Bruker, 2005)'
_computing_data_reduction        SAINT
_computing_molecular_graphics    SHELXL
_computing_publication_material  SHELXL
_computing_structure_refinement  'SHELXL-2018/3 (Sheldrick, 2018)'
_computing_structure_solution    'SHELXL-2018/3 (Sheldrick, 2018)'
_diffrn_ambient_temperature      296(2)
_diffrn_measured_fraction_theta_full 0.987
_diffrn_measured_fraction_theta_max 0.986
_diffrn_measurement_device_type  'Bruker Apex2 CCD'
_diffrn_measurement_method       '\w scans'
_diffrn_radiation_type           MoK\a
_diffrn_radiation_wavelength     0.71073
_diffrn_reflns_av_R_equivalents  0.0706
_diffrn_reflns_av_unetI/netI     0.0309
_diffrn_reflns_Laue_measured_fraction_full 0.987
_diffrn_reflns_Laue_measured_fraction_max 0.986
_diffrn_reflns_limit_h_max       31
_diffrn_reflns_limit_h_min       -19
_diffrn_reflns_limit_k_max       23
_diffrn_reflns_limit_k_min       -31
_diffrn_reflns_limit_l_max       21
_diffrn_reflns_limit_l_min       -22
_diffrn_reflns_number            10812
_diffrn_reflns_point_group_measured_fraction_full 0.987
_diffrn_reflns_point_group_measured_fraction_max 0.986
_diffrn_reflns_theta_full        25.242
_diffrn_reflns_theta_max         25.499
_diffrn_reflns_theta_min         1.333
_exptl_absorpt_coefficient_mu    2.223
_exptl_absorpt_correction_T_max  0.776
_exptl_absorpt_correction_T_min  0.717
_exptl_absorpt_correction_type   multi-scan
_exptl_absorpt_process_details   '(SADABS; Sheldrick, 2003)'
_exptl_crystal_colour            green
_exptl_crystal_density_diffrn    1.779
_exptl_crystal_description       block-shaped
_exptl_crystal_F_000             9728
_exptl_crystal_size_max          0.160
_exptl_crystal_size_mid          0.120
_exptl_crystal_size_min          0.120
_refine_diff_density_max         1.160
_refine_diff_density_min         -1.770
_refine_diff_density_rms         0.166
_refine_ls_extinction_method     none
_refine_ls_goodness_of_fit_ref   1.069
_refine_ls_hydrogen_treatment    mixed
_refine_ls_matrix_type           full
_refine_ls_number_parameters     69
_refine_ls_number_reflns         911
_refine_ls_number_restraints     24
_refine_ls_restrained_S_all      1.068
_refine_ls_R_factor_all          0.0865
_refine_ls_R_factor_gt           0.0602
_refine_ls_shift/su_max          0.000
_refine_ls_shift/su_mean         0.000
_refine_ls_structure_factor_coef Fsqd
_refine_ls_weighting_details
'w=1/[\s^2^(Fo^2^)+(0.1130P)^2^+334.7371P] where P=(Fo^2^+2Fc^2^)/3'
_refine_ls_weighting_scheme      calc
_refine_ls_wR_factor_gt          0.1635
_refine_ls_wR_factor_ref         0.1840
_reflns_Friedel_coverage         0.000
_reflns_number_gt                688
_reflns_number_total             911
_reflns_threshold_expression     'I > 2\s(I)'
_cod_data_source_file            am0c18970_si_002.cif
_cod_data_source_block           a01_sq
_cod_original_cell_volume        18512(31)
_cod_database_code               4518397
_shelx_shelxl_version_number     2018/3
_shelx_space_group_comment
;
The symmetry employed for this shelxl refinement is uniquely defined
by the following loop, which should always be used as a source of
symmetry information in preference to the above space-group names.
They are only intended as comments.
;
_shelx_estimated_absorpt_t_min   0.717
_shelx_estimated_absorpt_t_max   0.776
_shelx_res_file
;
TITL a01 in Fm-3m
    a01_sq.res
    created by SHELXL-2018/3 at 10:07:10 on 12-Nov-2020
CELL 0.71073  26.4538  26.4538  26.4538  90.000  90.000  90.000
ZERR  4.00   0.0150   0.0150   0.0150   0.000   0.000   0.000
LATT  4
SYMM -X, -Y, Z
SYMM -X, Y, -Z
SYMM X, -Y, -Z
SYMM Z, X, Y
SYMM Z, -X, -Y
SYMM -Z, -X, Y
SYMM -Z, X, -Y
SYMM Y, Z, X
SYMM -Y, Z, -X
SYMM Y, -Z, -X
SYMM -Y, -Z, X
SYMM Y, X, -Z
SYMM -Y, -X, -Z
SYMM Y, -X, Z
SYMM -Y, X, Z
SYMM X, Z, -Y
SYMM -X, Z, Y
SYMM -X, -Z, -Y
SYMM X, -Z, Y
SYMM Z, Y, -X
SYMM Z, -Y, X
SYMM -Z, Y, X
SYMM -Z, -Y, -X
SFAC C H O P V CU MO
UNIT 288 448 520 4 4 48 44
TEMP 23.000
abin
free o4 h3wb
dfix 2.4 0.03 h2wa o1
eqiv $1 -x, 0.5-y, 0.5-z

dfix 1.8 0.02 h3wb o4_$1

omit     0   2   2
omit     1   3   3
omit     3   3   9
omit     2   6   8
omit     9   9   9
omit     2   4   8
omit     5   5  11
omit     6   6  12
omit     0   8  20
omit     0   6  18
omit     3   7  13
omit     1   5   7

L.S. 12 0   12
BOND $H
FMAP 2
PLAN 60
omit 0 51
size 0.12 0.12 0.16
simu 0.01 0.02 5 o2w o3w
acta
dfix 2.7 0.02 o2w o3w
dfix 0.85 0.02 o2w h2wa o3w h3wa o3w h3wb

isor 0.01 o1w o2w
exyz mo1 v1
eadp mo1 v1

ACTA

WGHT    0.113000  334.737091
FVAR       0.01530
CU1   6    0.000000    0.285124    0.214876    10.25000    0.02247    0.02252 =
         0.02252    0.00355    0.00000    0.00000
MO1   7    0.000000    0.404925    0.404925    10.22917    0.05668    0.04563 =
         0.04563   -0.02036    0.00000    0.00000
V1    5    0.000000    0.404925    0.404925    10.02083    0.05668    0.04563 =
         0.04563   -0.02036    0.00000    0.00000
P1    4    0.000000    0.500000    0.500000    10.02083    0.02422    0.02422 =
         0.02422    0.00000    0.00000    0.00000
O1    3    0.052470    0.243424    0.183224    11.00000    0.03926    0.03188 =
         0.03617    0.00521    0.01042    0.00753
O2    3    0.000000    0.360864    0.360864    10.25000    0.10515    0.05127 =
         0.05127   -0.02215    0.00000    0.00000
PART   1
O3    3   -0.034055    0.465945    0.465945    10.08333    0.03554    0.03554 =
         0.03554    0.00192    0.00192    0.00192
PART   2
O4    3   -0.050183    0.379213    0.449817    10.50000    0.09317    0.08800 =
         0.09317    0.05142    0.05265    0.05142
PART   0
C1    1    0.134382    0.198672    0.134382    10.50000    0.03243    0.02510 =
         0.03243    0.00958    0.00044    0.00958
AFIX  43
H1A   2    0.119789    0.227132    0.119787    10.50000   -1.20000
AFIX   0
C2    1    0.112546    0.177712    0.177712    10.50000    0.03650    0.02752 =
         0.02752    0.00239    0.00118    0.00118
C3    1    0.069704    0.203112    0.203112    10.50000    0.02047    0.03361 =
         0.03361    0.00575   -0.00046   -0.00046
O1W   3    0.000000    0.343805    0.156195    10.25000    0.09296    0.08405 =
         0.08405    0.04779    0.00000    0.00000
O2W   3    0.000000    0.245133    0.075136    10.50000    0.22023    0.23560 =
         0.18734   -0.00342    0.00000    0.00000
H2WA  2    0.019461    0.232264    0.098029    11.00000   -1.50000
O3W   3    0.000000    0.178699    0.000000    10.12500    0.21154    0.24106 =
         0.21154    0.00000    0.00000    0.00000
H3WA  2    0.000000    0.210852    0.000000    10.12500   -1.50000
H3WB  2    0.000000    0.160433    0.026621    10.12500   -1.50000

HKLF 4




REM  a01 in Fm-3m
REM wR2 = 0.1840, GooF = S = 1.069, Restrained GooF = 1.068 for all data
REM R1 = 0.0602 for 688 Fo > 4sig(Fo) and 0.0865 for all 911 data
REM 69 parameters refined using 24 restraints

END

WGHT      0.1086    367.8451

REM Highest difference peak  1.160,  deepest hole -1.770,  1-sigma level  0.166
Q1    1   0.0000  0.4536  0.0158  10.50000  0.05    0.69
Q2    1   0.0000  0.3536  0.1765  10.50000  0.05    0.59
Q3    1   0.0000  0.1968  0.0000  10.12500  0.05    0.52
Q4    1   0.0000  0.4687  0.0678  10.50000  0.05    0.50
Q5    1   0.0000  0.4231  0.0769  10.25000  0.05    0.49
Q6    1  -0.0189  0.3290  0.1482  11.00000  0.05    0.48
Q7    1   0.0411  0.4589  0.0411  10.16667  0.05    0.47
Q8    1   0.0000  0.4626  0.0000  10.12500  0.05    0.47
Q9    1   0.0000  0.4192  0.0310  10.50000  0.05    0.45
Q10   1   0.0255  0.3417  0.1583  10.50000  0.05    0.45
Q11   1   0.0787  0.3797  0.1203  10.50000  0.05    0.43
Q12   1   0.2019  0.2825  0.2019  10.50000  0.05    0.43
Q13   1  -0.0561  0.3491  0.4538  11.00000  0.05    0.41
Q14   1   0.1246  0.1692  0.1867  11.00000  0.05    0.41
Q15   1   0.1325  0.1863  0.1560  11.00000  0.05    0.41
Q16   1   0.0866  0.2400  0.0866  10.50000  0.05    0.41
Q17   1   0.0000  0.4214  0.4590  10.50000  0.05    0.41
Q18   1   0.0156  0.4422  0.0291  11.00000  0.05    0.39
Q19   1   0.2500  0.2500  0.2500  10.04167  0.05    0.39
Q20   1  -0.0444  0.3980  0.4556  10.50000  0.05    0.39
Q21   1  -0.0591  0.3331  0.0591  10.50000  0.05    0.39
Q22   1   0.0469  0.2203  0.1790  11.00000  0.05    0.38
Q23   1  -0.0452  0.2697  0.0616  11.00000  0.05    0.38
Q24   1  -0.0280  0.5000  0.4177  10.50000  0.05    0.38
Q25   1   0.1707  0.3114  0.1886  10.50000  0.05    0.38
Q26   1   0.0582  0.2750  0.1627  11.00000  0.05    0.37
Q27   1   0.0000  0.3855  0.3552  10.50000  0.05    0.36
Q28   1   0.1352  0.2146  0.1352  10.50000  0.05    0.36
Q29   1   0.1095  0.3372  0.1095  10.50000  0.05    0.35
Q30   1  -0.0422  0.4722  0.4722  10.50000  0.05    0.35
Q31   1  -0.0706  0.3736  0.1121  11.00000  0.05    0.35
Q32   1   0.0977  0.3286  0.1088  11.00000  0.05    0.35
Q33   1   0.0562  0.1943  0.2029  11.00000  0.05    0.34
Q34   1   0.0000  0.2991  0.0971  10.50000  0.05    0.34
Q35   1   0.1215  0.3316  0.1373  11.00000  0.05    0.33
Q36   1   0.0325  0.2434  0.1892  11.00000  0.05    0.33
Q37   1   0.1200  0.3385  0.1200  10.50000  0.05    0.33
Q38   1   0.2107  0.2203  0.2203  10.50000  0.05    0.32
Q39   1  -0.0739  0.3656  0.4618  11.00000  0.05    0.32
Q40   1  -0.0405  0.3749  0.3970  11.00000  0.05    0.32
Q41   1   0.0861  0.4139  0.1401  10.50000  0.05    0.32
Q42   1  -0.0327  0.3800  0.3800  10.50000  0.05    0.32
Q43   1   0.0000  0.2500  0.2500  10.12500  0.05    0.31
Q44   1   0.0418  0.2564  0.1794  11.00000  0.05    0.31
Q45   1   0.0489  0.2511  0.2105  11.00000  0.05    0.31
Q46   1   0.1818  0.3182  0.1540  10.50000  0.05    0.30
Q47   1   0.0325  0.2749  0.0695  11.00000  0.05    0.30
Q48   1   0.2003  0.2400  0.2003  10.50000  0.05    0.30
Q49   1   0.0000  0.1337  0.0484  10.50000  0.05    0.30
Q50   1   0.0468  0.3927  0.3927  10.50000  0.05    0.30
Q51   1   0.0682  0.2522  0.1806  11.00000  0.05    0.29
Q52   1  -0.0457  0.2687  0.0457  10.50000  0.05    0.28
Q53   1  -0.0391  0.3595  0.1405  10.50000  0.05    0.28
Q54   1   0.0329  0.3981  0.0610  11.00000  0.05    0.28
Q55   1   0.0000  0.4543  0.1343  10.50000  0.05    0.28
Q56   1   0.0000  0.2572  0.0000  10.12500  0.05    0.28
Q57   1   0.0000  0.3127  0.3127  10.25000  0.05    0.27
Q58   1  -0.0585  0.3928  0.4153  11.00000  0.05    0.27
Q59   1   0.0763  0.2393  0.0763  10.50000  0.05    0.27
Q60   1   0.0554  0.2981  0.2019  10.50000  0.05    0.27
;
_shelx_res_checksum              50197
_shelx_hkl_file
;
   1   1  -1  509.84   14.75
   1  -1  -1  495.46   14.74
   0  -2   0  103.57    3.09
   2   0   0   98.74    3.08
   0  -2  -2    5.17    0.36
   0  -2   2    6.45    0.39
   2  -2   0    6.08    0.47
   2   0  -2    6.86    0.41
   2   0   2    5.78    0.33
   2   2   0    6.47    0.44
   2  -2   2 1000.00   28.85
   2   2  -2  983.45   28.86
   2  -2  -2  973.22   28.85
   1   1  -3   10.63    0.55
   1   3  -1   11.88    0.68
   1  -3   1   11.46    0.69
   3  -1   1   11.16    0.63
   3   1  -1   10.69    0.66
   1  -1   3   10.36    0.52
   3  -1  -1   11.42    0.66
   1  -1  -3   10.06    0.52
   1  -3  -1   10.48    0.70
   3   1   1    9.78    0.59
  -1  -3  -3    5.73    0.49
   3   3  -1    7.95    0.66
   1  -3   3    6.47    0.51
   1   3  -3    7.67    0.60
   3   1  -3    8.34    0.56
   3  -3   1    8.38    0.68
   3  -1   3    6.12    0.47
   3  -1  -3    7.30    0.56
   3   1   3    7.06    0.49
   1  -3  -3    7.20    0.60
   3  -3  -1    8.51    0.60
   3   3   1    7.47    0.53
   3   3  -3  134.80    4.27
   3  -3   3  130.35    4.22
   3  -3  -3  133.58    4.24
   3   3   3  135.77    4.15
   0  -4   0  213.11    6.28
   0   0  -4  203.68    6.07
   0   0   4  196.52    6.06
   4   0   0  213.16    6.28
   4  -2   0   84.57    2.74
   4   2   0   78.17    2.71
   2   0   4   83.83    2.51
   2   0  -4   83.11    2.62
   0  -4  -2   84.35    2.69
   0  -4   2   84.06    2.74
   4   0  -2   85.21    2.74
   2   4   0   79.41    2.72
   2  -4   0   84.34    2.77
   0  -2  -4   83.91    2.54
   2  -4   2   62.93    2.14
   4   2  -2   60.85    2.12
   2   4  -2   61.86    2.12
   2  -2   4   62.77    2.00
   2   2  -4   60.40    2.05
   4  -2   2   61.79    2.09
   2   2   4   59.38    1.89
   2  -4  -2   58.51    2.10
   2   4   2   58.88    2.03
   4  -2  -2   58.33    2.10
   2  -2  -4   61.75    2.00
   0  -4  -4   55.54    1.87
   0  -4   4   56.38    1.95
   4  -4   0   53.60    2.03
   4   0  -4   51.90    1.94
   4   0   4   53.41    1.82
   4   4   0   52.55    1.99
   4   4  -2   25.59    1.26
   2  -4   4   28.19    1.21
   2   4  -4   24.46    1.21
   4   2  -4   24.03    1.19
   4  -4   2   27.28    1.25
   4  -2  -4   24.72    1.14
   4  -4  -2   23.53    1.24
   4   2   4   24.24    1.04
   2  -4  -4   25.98    1.18
   4   4   2   23.36    1.14
   4   4  -4  502.22   15.20
   4  -4   4  522.78   15.18
   4  -4  -4  521.20   15.18
   4   4   4  487.05   15.05
  -1  -5  -1   62.70    2.14
   1   1  -5   60.30    1.96
   5  -1   1   60.93    2.12
   5   1  -1   60.01    2.15
   1  -5   1   64.09    2.17
  -1  -5   1   59.38    2.14
   1  -5  -1   63.39    2.16
   5  -1  -1   62.62    2.16
   5   1   1   50.67    2.07
   5  -3   1   39.05    1.65
   5   3  -1   41.70    1.64
   3  -1   5   41.27    1.42
   3   1  -5   38.32    1.51
   1  -5   3   39.09    1.62
  -1  -5  -3   41.70    1.57
   5   3   1   39.37    1.60
   5  -3  -1   40.31    1.65
   3  -1  -5   41.36    1.53
   1  -5  -3   41.65    1.62
   5   1  -3   39.97    1.61
   1   3  -5   41.30    1.52
   3  -5   1   38.68    1.64
   3   5  -1   39.43    1.62
   1  -3   5   38.33    1.46
  -1  -3  -5   39.57    1.34
   3  -5  -1   36.94    1.63
   3   5   1   39.22    1.59
   1  -3  -5   40.94    1.43
   5  -1  -3   39.71    1.60
   5  -3   3   44.41    1.73
   3  -5   3   45.30    1.78
   3  -3   5   42.68    1.64
   3   3  -5   43.91    1.72
   5   3  -3   41.99    1.77
   3   5  -3   41.87    1.76
   5  -3  -3   43.83    1.76
   3  -5  -3   41.22    1.73
   3   3   5   42.55    1.50
   3  -3  -5   43.94    1.64
  -1  -5  -5  124.70    3.82
   5   1  -5  117.70    3.93
   1  -5   5  122.59    3.95
   5  -1   5  116.90    3.82
   5  -5   1  118.43    4.02
   5   5  -1  122.47    4.03
   5  -5  -1  114.35    4.02
   5  -1  -5  120.69    3.94
   1  -5  -5  129.48    3.88
   5   5   1  116.20    3.97
   3  -5   5  538.91   15.71
   3   5  -5  515.98   15.72
   5   5  -3  518.18   15.77
   5  -5   3  531.96   15.76
   5   3  -5  524.37   15.74
   5  -3  -5  543.14   15.71
   5  -5  -3  529.91   15.77
   5   3   5  543.13   15.57
   3  -5  -5  535.12   15.68
   5   5   3  475.15   15.63
   5   5  -5    4.06    0.69
   5  -5   5    3.67    0.64
   5  -5  -5    3.41    0.63
   5   5   5    2.58    0.51
   0  -6   0    4.45    0.59
   6   0   0    4.10    0.57
   6  -2   0  159.59    4.96
   6   2   0  149.78    4.92
   2   0  -6  150.97    4.72
   0  -6   2  154.60    4.95
   0  -6  -2  158.32    4.92
   6  -4   0  131.89    4.32
   6   4   0  127.25    4.27
   0  -6  -4  131.47    4.18
   0  -6   4  128.90    4.26
   4   0   6  129.67    3.98
   4   0  -6  128.44    4.14
   0  -2  -6  147.34    4.62
   2  -6   0  154.72    4.98
   6   0  -2  160.64    4.98
   6   0   2  160.03    4.93
   2   6  -2    1.27    0.49
  -2  -6  -2    0.71    0.47
   6  -2   2    0.87    0.47
   6   2  -2    0.94    0.45
   2  -2   6    1.20    0.33
   2   2  -6    0.90    0.38
   2  -6   2    1.03    0.54
   6   2   2    0.63    0.41
   2  -6  -2    1.55    0.55
   6  -2  -2    0.41    0.50
   2  -2  -6    0.66    0.33
   2  -6   4    9.65    0.86
   2   6  -4   10.36    0.88
   6  -4   2   10.87    0.89
  -2  -6  -4    8.71    0.75
   4   2  -6   10.26    0.79
   6   4  -2    9.73    0.88
   4  -2   6    9.09    0.67
   6   4   2    9.75    0.84
   6  -4  -2    8.83    0.85
   4   2   6    8.99    0.64
   2  -6  -4   10.14    0.82
   4  -2  -6   12.88    0.90
   4   6   0  126.17    4.20
   4  -6   0  126.22    4.26
   6   0  -4  129.96    4.22
   0  -4  -6  128.22    3.96
  -2  -4  -6    9.23    0.70
   6   2  -4   10.01    0.86
   4   6  -2    9.88    0.88
   2   4  -6   10.18    0.80
   2  -4   6   10.50    0.77
   4  -6   2   11.29    0.94
   4  -6  -2    9.29    0.89
   6   2   4    9.73    0.75
   4   6   2   11.44    0.87
   2  -4  -6    9.75    0.71
   6  -2  -4    8.51    0.82
   4  -6   4  171.57    5.43
   6   4  -4  165.70    5.44
   4  -4   6  164.49    5.27
   4   4  -6  168.87    5.37
   4   6  -4  166.28    5.43
   6  -4   4  168.02    5.38
   4   4   6  170.60    5.16
   4  -6  -4  167.20    5.41
   6  -4  -4  168.32    5.41
   4  -4  -6  166.64    5.29
   0  -6  -6   69.79    2.52
   0  -6   6   72.99    2.65
   6  -6   0   73.58    2.77
   6   0  -6   75.82    2.66
   6   0   6   72.15    2.48
   6   6   0   72.45    2.72
  -2  -6  -6   22.16    1.10
   2  -6   6   19.54    1.22
   2   6  -6   20.36    1.28
   6   2  -6   21.12    1.25
   6  -2   6   20.77    1.11
   6  -6   2   23.78    1.38
   6   6  -2   23.53    1.35
   6  -6  -2   22.07    1.37
   6   2   6   23.32    1.07
   6  -2  -6   20.59    1.19
   2  -6  -6   20.92    1.19
   6   6   2   23.21    1.32
   6   4  -6   51.83    2.11
   6   6  -4   50.86    2.15
   4  -6   6   46.05    2.03
   4   6  -6   50.85    2.10
   6  -6   4   46.90    2.08
   6  -4  -6   48.06    2.02
   4   6   6   49.43    1.88
   4  -6  -6   52.31    2.04
   6  -6  -4   47.36    2.08
   6   4   6   47.48    1.87
   6  -6   6  891.33   26.43
   6   6  -6  879.31   26.50
   6  -6  -6  874.77   26.44
   6   6   6  912.94   26.30
  -1  -7  -1   -0.18    0.50
   7   1  -1    0.42    0.48
   1   1  -7    0.18    0.31
   7  -1   1    0.00    0.52
   1  -1   7   -0.12    0.26
   1  -7   1    0.24    0.52
   1  -7  -1    0.29    0.51
   1  -1  -7    0.14    0.26
   7  -1  -1    1.33    0.55
  -1  -7   1   -0.78    0.46
   7   1   1   -0.32    0.49
  -1  -7  -3    4.13    0.63
   7  -3   1    4.64    0.73
   7   3  -1    3.05    0.61
   1  -7   3    5.16    0.70
   3   1  -7    4.30    0.52
   3  -1   7    4.00    0.40
   3  -1  -7    3.77    0.52
   7   3   1    5.43    0.65
   1  -7  -3    3.50    0.64
   7  -3  -1    3.77    0.63
  -1  -7   3    3.82    0.66
   7   5  -1    0.76    0.50
  -1  -7  -5    0.28    0.46
   5  -1   7    0.83    0.38
   7  -5   1    1.19    0.58
   5   1  -7    0.99    0.44
   1  -7   5    0.59    0.53
   5  -1  -7    0.97    0.45
   7   5   1    1.20    0.49
  -1  -7   5    0.62    0.50
   7  -5  -1    0.18    0.51
   5   1   7    0.73    0.35
   1  -7  -5    0.53    0.51
   7  -1   3    4.65    0.63
   1   3  -7    4.91    0.56
   3  -7   1    3.73    0.66
   3   7  -1    5.00    0.71
   7   1  -3    5.78    0.72
   1  -3   7    4.78    0.51
   3   7   1    3.81    0.64
   3  -7  -1    4.65    0.70
   7  -1  -3    4.02    0.65
   7   1   3    4.46    0.62
   1  -3  -7    4.56    0.44
   3  -7   3   21.97    1.32
   7  -3   3   22.22    1.26
   3  -3   7   23.86    1.13
   3   7  -3   22.45    1.34
   3   3  -7   21.93    1.19
   7   3  -3   23.30    1.32
   7  -3  -3   20.93    1.26
   3  -3  -7   21.96    1.08
   3  -7  -3   22.94    1.33
   7   3   3   25.06    1.24
  -3  -7  -5  105.62    3.61
   5   3  -7  109.21    3.70
   3   7  -5  107.84    3.76
   7  -5   3  107.85    3.77
   7   5  -3  109.27    3.81
   5  -3   7  108.08    3.57
   3  -7   5  112.19    3.76
   5   3   7  110.35    3.43
   5  -3  -7  108.64    3.63
   7  -5  -3  107.70    3.78
   7   5   3  110.13    3.70
   3  -7  -5  105.91    3.70
   7  -1   5    1.08    0.44
   1  -5   7    0.39    0.28
   5  -7   1    0.25    0.55
   7   1  -5    0.47    0.47
  -1  -5  -7    0.84    0.38
   5   7  -1    1.29    0.54
   5  -7  -1    1.01    0.57
   1  -5  -7    1.43    0.40
   7   1   5   -0.39    0.42
   5   7   1    1.50    0.52
   7  -1  -5    0.81    0.49
  -3  -5  -7  110.77    3.46
   7   3  -5  110.76    3.78
   5   7  -3  104.50    3.79
   5  -7   3  110.89    3.82
   3  -5   7  107.33    3.63
   3   5  -7  103.56    3.67
   7   3   5  115.47    3.63
   5  -7  -3  107.75    3.80
   5   7   3  108.12    3.71
   7  -3  -5  108.90    3.74
   3  -5  -7  109.83    3.61
   7  -5   5  221.96    7.00
   7   5  -5  223.94    7.08
   5  -7   5  219.93    7.01
   5   7  -5  220.21    7.06
   5  -5   7  200.87    6.86
   5   5  -7  225.00    7.01
   5  -5  -7  214.19    6.90
   5   7   5  225.31    6.88
   7  -5  -5  225.05    7.03
   5  -7  -5  221.90    7.01
   5   5   7  221.43    6.74
   7   5   5  221.38    6.88
  -1  -7  -7   31.47    1.51
   7   7  -1   35.66    1.80
   1  -7   7   34.85    1.71
   7   1  -7   37.47    1.72
   7  -7   1   36.20    1.85
   7  -1   7   36.64    1.52
   7  -1  -7   34.62    1.66
  -1  -7   7   37.45    1.69
   7  -7  -1   34.60    1.81
   7   1   7   37.21    1.52
   1  -7  -7   36.84    1.61
   7   7   1   37.86    1.79
  -3  -7  -7  114.12    3.90
   7   3  -7  119.35    4.10
   7   7  -3  123.59    4.21
   3  -7   7  113.94    4.06
   3   7  -7  114.84    4.09
   7  -3   7  120.98    3.98
   7  -7   3  119.33    4.20
   7  -7  -3  119.78    4.20
   7  -3  -7  124.07    4.10
   3  -7  -7  113.57    3.99
   7   3   7  124.58    3.89
   7   7   3  124.38    4.12
   7   5  -7  258.81    8.26
   7   7  -5  263.89    8.31
   5  -7   7  259.24    8.20
   5   7  -7  255.89    8.24
   7  -7   5  264.76    8.26
   7  -5  -7  253.06    8.18
   5   7   7  259.98    8.01
   5  -7  -7  261.13    8.18
   7  -7  -5  259.18    8.27
   7   5   7  264.28    8.01
   7   7  -7  254.38    8.17
   7  -7   7  256.23    8.09
   7  -7  -7  248.71    8.08
   7   7   7  255.83    7.91
   0  -8   0   33.39    1.67
   8   0   0   38.14    1.69
   0  -8   2   20.10    1.21
   2   0  -8   19.37    0.93
   8  -2   0   21.64    1.26
   8   2   0   19.74    1.23
   0  -8  -2   20.17    1.23
   4   0  -8   45.81    1.79
   0  -8   4   45.68    2.00
   8  -4   0   47.29    2.04
   8   4   0   45.69    2.00
   4   0   8   47.98    1.57
   0  -8  -4   47.40    1.95
   8  -6   0    2.10    0.63
   6   0  -8    2.75    0.60
   0  -8  -6    3.32    0.61
   0  -8   6    0.98    0.63
   8   6   0    1.51    0.61
   6   0   8    2.02    0.48
  -2  -8   0   19.30    1.24
   2  -8   0   20.03    1.30
   8   0   2   21.72    1.28
   8   0  -2   21.85    1.28
   2  -2   8  131.82    4.09
   2   2  -8  136.15    4.19
   2  -8   2  131.46    4.43
   8  -2   2  131.34    4.39
  -2  -8  -2  123.82    4.36
   8   2  -2  133.33    4.44
   8   2   2  130.99    4.38
   8  -2  -2  132.38    4.44
  -2  -8   2  135.34    4.47
   2  -8  -2  128.35    4.40
   2  -2  -8  136.57    4.11
   2  -8   4    2.57    0.65
   4  -2   8    2.99    0.44
   8  -4   2    3.31    0.65
   8   4  -2    2.48    0.62
   4   2  -8    3.53    0.55
  -2  -8  -4    2.35    0.61
   2  -8  -4    3.80    0.66
   8   4   2    2.66    0.60
   4  -2  -8    4.12    0.54
   8  -4  -2    3.60    0.67
  -2  -8   4    3.49    0.68
   6   2  -8    7.58    0.79
   8  -6   2    7.17    0.89
   2  -8   6    6.81    0.83
   8   6  -2    6.90    0.88
   6  -2   8    7.90    0.67
  -2  -8  -6    6.64    0.73
   2  -8  -6    6.26    0.76
   6  -2  -8    6.21    0.75
   8  -6  -2    6.71    0.86
   6   2   8    6.32    0.55
   8   6   2    6.55    0.80
   4   8   0   47.37    2.00
   4  -8   0   48.46    2.07
   0  -4  -8   46.44    1.60
   8   0  -4   50.30    2.03
   8   0   4   37.10    1.76
   0  -4   8   46.88    1.77
   4  -8   2    2.84    0.63
  -2  -4  -8    2.38    0.36
   2   4  -8    3.63    0.56
   4   8  -2    2.98    0.67
   2  -4   8    3.46    0.52
   8   2  -4    3.04    0.64
   8  -2   4    2.70    0.57
   2  -4  -8    3.32    0.45
   8  -2  -4    5.01    0.70
   4   8   2    3.13    0.64
   4  -8  -2    3.88    0.70
   8  -4   4    1.92    0.58
   8   4  -4    2.73    0.64
   4   4  -8    2.31    0.57
   4  -8   4    1.99    0.67
   4   8  -4    2.59    0.68
   4  -4   8    2.23    0.50
   4  -4  -8    1.84    0.52
   4   4   8    2.23    0.37
   4  -8  -4    1.39    0.63
   8  -4  -4    2.32    0.66
  -4  -8  -6    0.09    0.49
   8   6  -4    0.52    0.56
   6  -4   8    0.87    0.53
   6   4  -8    0.19    0.53
   4   8  -6    1.34    0.62
   4  -8   6    0.16    0.60
   8  -6   4    0.02    0.59
   6   4   8    0.06    0.34
   4  -8  -6    0.04    0.56
   6  -4  -8    0.09    0.48
   8   6   4    0.43    0.48
   8  -6  -4    0.34    0.59
   0  -6  -8    2.05    0.47
   8   0   6    2.99    0.56
   8   0  -6    2.33    0.63
   6  -8   0    2.02    0.69
   6   8   0    2.61    0.67
   8  -2   6    7.37    0.77
  -2  -6  -8    7.14    0.60
   2  -6   8    5.26    0.61
   6   8  -2    7.18    0.87
   8   2  -6    6.86    0.85
   2   6  -8    6.97    0.80
   6  -8   2    7.74    0.92
   6  -8  -2    6.49    0.86
   8   2   6    6.44    0.68
   2  -6  -8    8.17    0.70
   8  -2  -6    8.25    0.89
   6   8   2    6.90    0.82
   4  -6   8   -0.24    0.46
   4   6  -8    0.55    0.54
  -4  -6  -8    1.16    0.43
   8  -4   6    0.30    0.41
   8   4  -6    0.02    0.56
   6  -8   4    0.75    0.64
   6   8  -4   -0.63    0.53
   6  -8  -4   -0.42    0.60
   4  -6  -8   -0.14    0.51
   8   4   6   -0.41    0.42
   8  -4  -6    1.04    0.56
   6   8   4   -0.29    0.49
   8   6  -6  130.46    4.60
   6  -8   6  128.41    4.55
   6   8  -6  132.77    4.61
   8  -6   6  129.99    4.53
   6   6  -8  130.85    4.55
   6  -6  -8  128.16    4.44
   6   8   6  130.75    4.40
   8  -6  -6  134.05    4.57
   6  -8  -6  134.67    4.58
   6   6   8  133.47    4.25
   8   6   6  131.73    4.41
   0  -8  -8   19.12    1.18
   0  -8   8   19.07    1.28
   8  -8   0   19.47    1.42
   8   0  -8   17.65    1.24
   8   0   8   18.74    1.13
   8   8   0   21.52    1.43
  -2  -8  -8   25.88    1.33
   8   2  -8   26.60    1.50
   2  -8   8   25.34    1.44
   8   8  -2   26.40    1.61
   8  -8   2   26.07    1.62
   8  -2   8   26.58    1.34
   8  -2  -8   27.60    1.52
  -2  -8   8   27.55    1.49
   8   2   8   27.39    1.29
   2  -8  -8   21.09    1.33
   8  -8  -2   21.64    1.56
   8   8   2   26.40    1.55
  -4  -8  -8    1.05    0.50
   8   4  -8    1.21    0.60
   4  -8   8    0.92    0.64
   4   8  -8    1.63    0.63
   8  -4   8    0.61    0.56
   8   8  -4    1.05    0.62
   8  -8   4    1.23    0.67
   8  -4  -8    0.31    0.53
   4  -8  -8    0.68    0.57
   8   4   8    1.25    0.46
   8  -8  -4    0.38    0.67
   8   8   4    1.31    0.59
   8   6  -8   45.04    2.20
   8   8  -6   49.70    2.30
   6  -8   8   43.42    2.13
   6   8  -8   45.26    2.19
   8  -8   6   45.91    2.21
   8  -6  -8   48.77    2.17
   6   8   8   47.62    1.97
   6  -8  -8   48.05    2.15
   8  -8  -6   44.71    2.20
   8   6   8   43.32    1.91
   8   8   6   47.81    2.07
   8   8  -8   84.83    3.34
   8  -8   8   82.22    3.22
   8  -8  -8   79.68    3.25
   8   8   8   79.68    3.03
  -1  -9  -1  132.69    4.40
   9   1  -1  134.36    4.41
   1   1  -9  129.36    4.01
   1  -9   1  121.66    4.35
   9  -1   1  131.61    4.39
   1  -1   9  126.19    3.93
   1  -9  -1  133.35    4.39
  -1  -9   1  128.47    4.40
   9  -1  -1  140.52    4.43
   1  -1  -9  121.26    3.93
   9   1   1  121.30    4.34
   9  -3   1   23.07    1.41
   9   3  -1   24.89    1.45
  -1  -9  -3   22.06    1.38
   3   1  -9   25.13    1.18
   1  -9   3   23.78    1.44
   3  -1   9   26.32    0.99
   3  -1  -9   24.33    1.12
   1  -9  -3   24.81    1.45
   9   3   1   23.68    1.40
  -1  -9   3   24.47    1.45
   9  -3  -1   25.89    1.47
   1  -9   5   90.05    3.29
  -1  -9  -5   88.92    3.19
   5   1  -9   88.42    3.09
   9  -5   1   84.41    3.29
   5  -1   9   87.90    2.87
   9   5  -1   88.02    3.31
   5   1   9   95.50    2.81
   9  -5  -1   87.69    3.31
   1  -9  -5   89.84    3.23
   9   5   1   82.58    3.24
  -1  -9   5   93.62    3.35
   5  -1  -9   87.23    3.07
   1  -9   7   13.51    1.14
   7  -1   9   14.04    0.92
   7   1  -9   14.56    1.10
  -1  -9  -7   12.97    1.00
   9   7  -1   12.87    1.14
   9  -7   1   14.45    1.24
   7   1   9   13.74    0.88
   9  -7  -1   11.96    1.16
  -1  -9   7   14.10    1.16
   9   7   1   12.55    1.13
   1  -9  -7   14.02    1.08
   7  -1  -9   13.86    1.07
   3  -9   1   25.13    1.48
   1   3  -9   25.26    1.21
   1  -3   9   25.85    1.15
  -3  -9  -1   22.99    1.38
   9   1  -3   24.93    1.45
   9  -1   3   26.78    1.45
   3  -9  -1   24.98    1.47
   9   1   3   21.98    1.36
   1  -3  -9   26.25    1.03
   9  -1  -3   25.09    1.47
   3  -9   3    4.21    0.73
   9   3  -3    4.91    0.77
   9  -3   3    4.45    0.75
   3  -3   9    4.07    0.51
   3   3  -9    4.90    0.64
  -3  -9  -3    3.76    0.68
   9  -3  -3    5.74    0.77
   3  -9  -3    3.71    0.73
   3  -3  -9    5.57    0.58
   9   3   3    3.99    0.69
   5   3  -9    0.34    0.48
   5  -3   9    0.10    0.43
   9   5  -3   -0.21    0.51
  -3  -9  -5   -0.97    0.50
   9  -5   3   -0.01    0.56
   3  -9   5    0.14    0.60
   5   3   9   -0.08    0.26
   3  -9  -5    0.36    0.57
   9   5   3   -0.14    0.46
   9  -5  -3    0.64    0.62
   5  -3  -9    0.30    0.45
   7  -3   9   -0.51    0.46
   7   3  -9   -0.31    0.48
   9  -7   3    0.94    0.66
   9   7  -3    1.03    0.60
  -3  -9  -7    0.37    0.53
   3  -9   7   -0.55    0.50
   3  -9  -7    0.29    0.56
   7  -3  -9    0.28    0.50
   7   3   9    0.39    0.39
   9   7   3   -0.17    0.50
   9  -7  -3   -0.49    0.60
  -1  -5  -9   83.60    2.77
   5  -9   1   87.12    3.25
   1  -5   9   87.61    2.99
   9   1  -5   89.52    3.24
   5   9  -1   83.66    3.22
   9  -1  -5   88.04    3.23
   1  -5  -9   86.56    2.85
   5  -9  -1   81.13    3.22
   5   9   1   89.13    3.21
   3   5  -9    0.35    0.47
   5  -9   3   -0.45    0.59
   5   9  -3   -0.64    0.51
   9  -3   5   -0.22    0.56
   3  -5   9    0.17    0.41
   9   3  -5    0.12    0.53
  -3  -5  -9    0.01    0.32
   5  -9  -3    0.64    0.64
   9   3   5    0.31    0.30
   9  -3  -5    0.07    0.53
   3  -5  -9    0.87    0.43
   5   9   3    0.23    0.50
   9   5  -5  190.19    6.20
   9  -5   5  180.44    6.08
   5  -9   5  187.81    6.17
   5  -5   9  191.59    5.94
   5   5  -9  185.34    6.04
   5   9  -5  189.94    6.19
   5   5   9  183.76    5.70
   5  -9  -5  177.32    6.11
   5  -5  -9  185.99    5.94
   9  -5  -5  187.05    6.16
   7   5  -9   17.52    1.29
   7  -5   9   14.86    1.17
  -5  -9  -7   16.15    1.16
   5   9  -7   17.43    1.38
   9  -7   5   16.42    1.34
   5  -9   7   17.74    1.35
   9   7  -5   15.12    1.30
   9  -7  -5   16.16    1.32
   7  -5  -9   14.71    1.18
   5  -9  -7   17.04    1.31
   7   5   9   15.74    1.01
  -1  -7  -9   14.31    0.97
   9  -1   7   11.62    0.99
   9   1  -7   14.05    1.17
   7  -9   1   14.86    1.26
   7   9  -1   14.04    1.23
   7   9   1   14.79    1.20
   9  -1  -7   14.29    1.15
   7  -9  -1   13.81    1.23
   9   1   7   12.29    1.03
   1  -7  -9   12.90    0.98
   9   3  -7   -0.30    0.53
  -3  -7  -9    0.16    0.43
   7  -9   3   -0.06    0.60
   7   9  -3    0.66    0.60
   3  -7   9    0.20    0.41
   3   7  -9   -1.04    0.51
   9  -3   7   -0.19    0.51
   7  -9  -3    0.85    0.64
   3  -7  -9   -0.17    0.49
   7   9   3    0.30    0.55
   9  -3  -7    0.46    0.54
   9   3   7   -0.79    0.45
  -5  -7  -9   16.41    1.00
   9   5  -7   17.23    1.36
   5  -7   9   13.42    1.11
   7  -9   5   18.04    1.41
   7   9  -5   17.09    1.39
   9  -5   7   12.25    1.09
   5   7  -9   17.06    1.29
   7   9   5   14.57    1.16
   9  -5  -7   16.34    1.27
   9   5   7   14.99    1.17
   5  -7  -9   14.84    1.18
   7  -9  -5   17.44    1.44
   9  -7   7   25.80    1.64
   9   7  -7   22.21    1.65
   7  -9   7   28.66    1.71
   7   9  -7   24.15    1.68
   7   7  -9   21.38    1.63
   7  -7  -9   26.56    1.58
   7   9   7   25.61    1.53
   9  -7  -7   22.43    1.59
   7  -9  -7   23.47    1.64
   7   7   9   23.72    1.36
   9   7   7   25.65    1.51
  -1  -9  -9    1.92    0.61
   9   9  -1    2.66    0.74
   1  -9   9    1.89    0.68
   9   1  -9    2.55    0.67
   9  -9   1    2.02    0.78
   9  -1   9    3.46    0.64
   9  -1  -9    3.07    0.73
  -1  -9   9    2.78    0.72
   9  -9  -1    2.62    0.81
   9   1   9    2.92    0.59
   1  -9  -9    2.10    0.65
   9   9   1    2.54    0.74
  -3  -9  -9   -0.67    0.50
   3  -9   9   -0.62    0.53
   9   3  -9    0.75    0.58
   9   9  -3    0.54    0.67
   9  -3   9   -0.35    0.53
   9  -9   3   -0.11    0.65
   9  -9  -3    0.48    0.69
   9  -3  -9   -0.31    0.55
   9   3   9   -0.73    0.44
   3  -9  -9   -0.62    0.55
   9   9   3   -0.42    0.57
  -5  -9  -9  519.20   15.13
   9   9  -5  504.38   15.50
   5  -9   9  486.00   15.29
   5   9  -9  477.31   15.33
   9   5  -9  490.47   15.38
   9  -5   9  509.69   15.24
   9  -9   5  512.72   15.48
   9  -5  -9  502.15   15.33
   9  -9  -5  512.85   15.49
   9   5   9  494.38   15.05
   5  -9  -9  491.88   15.25
   9   9   5  505.81   15.30
   7  -9   9   34.99    2.03
   7   9  -9   39.70    2.08
   9   9  -7   36.00    2.11
   9   7  -9   38.10    2.09
   9  -9   7   36.80    2.12
   9  -7  -9   40.11    2.05
   9  -9  -7   37.18    2.10
   9   7   9   35.80    1.75
   7  -9  -9   36.31    2.02
   9   9   7   37.17    1.90
   9   9  -9    0.44    0.74
   9  -9   9    0.96    0.80
   9  -9  -9    1.38    0.79
   9   9   9   -0.60    0.58
   0 -10   0  462.83   13.35
  10   0   0  405.76   13.26
   0 -10   2   20.12    1.38
   2   0 -10   20.44    1.00
  10  -2   0   19.71    1.37
  10   2   0   21.56    1.39
   0 -10  -2   20.98    1.36
  10  -4   0   14.39    1.20
  10   4   0   15.56    1.25
   4   0 -10   15.26    0.97
   0 -10  -4   15.17    1.17
   0 -10   4   15.44    1.22
  10   6   0   38.68    2.00
  10  -6   0   42.68    2.05
   6   0  10   42.70    1.54
   0 -10   6   37.17    1.95
   6   0 -10   44.94    1.84
   0 -10  -6   40.95    1.92
   0 -10   8   74.27    2.99
   8   0 -10   77.97    2.92
   8   0  10   74.81    2.64
  10  -8   0   70.85    3.06
  10   8   0   74.64    3.08
   0 -10  -8   77.84    2.90
   0  -2  10   20.21    0.98
  10   0  -2   22.64    1.41
  10   0   2   18.69    1.32
  -2 -10   0   20.21    1.39
   2 -10   0   22.47    1.43
  10  -2   2    1.19    0.63
   2 -10   2    0.67    0.62
  -2 -10  -2    0.04    0.58
   2  -2  10    0.73    0.34
   2   2 -10    0.36    0.41
  10   2  -2    1.93    0.64
   2  -2 -10    1.20    0.35
  -2 -10   2    2.02    0.64
  10  -2  -2    0.82    0.61
  10   2   2    1.09    0.60
   2 -10  -2    1.11    0.62
  10  -4   2    1.38    0.67
  -2 -10  -4    0.78    0.60
   4   2 -10    1.20    0.49
   4  -2  10    0.89    0.40
  10   4  -2    0.79    0.58
   2 -10   4    1.26    0.64
   4  -2 -10    0.45    0.41
  -2 -10   4    0.81    0.59
  10   4   2    1.83    0.63
   2 -10  -4    1.62    0.67
  10  -4  -2    0.68    0.64
   6   2 -10   64.71    2.53
  10  -6   2   68.63    2.77
  10   6  -2   66.41    2.76
  -2 -10  -6   60.96    2.56
   6  -2  10   64.24    2.30
   2 -10   6   64.64    2.68
   6  -2 -10   64.35    2.50
   6   2  10   69.76    2.19
   2 -10  -6   68.78    2.69
  -2 -10   6   62.19    2.67
  10   6   2   67.14    2.72
  10  -6  -2   68.25    2.78
  10  -8   2    3.74    0.85
   8  -2  10    3.61    0.65
   8   2 -10    2.80    0.69
   2 -10   8    3.87    0.79
  -2 -10  -8    2.85    0.62
  10   8  -2    2.31    0.75
   2 -10  -8    3.41    0.78
  -2 -10   8    2.88    0.72
  10  -8  -2    2.52    0.81
   8  -2 -10    3.51    0.73
   8   2  10    1.73    0.48
  10   8   2    2.96    0.76
  10   0  -4   16.69    1.30
   0  -4  10   15.94    0.99
   4 -10   0   16.51    1.28
  10   0   4   14.58    1.16
   4 -10   2    1.29    0.66
   2  -4  10    0.55    0.41
  10  -2   4    0.87    0.60
  10   2  -4    0.40    0.59
   2   4 -10    0.73    0.48
  -4 -10  -2    0.10    0.54
   4 -10  -2    1.39    0.69
   2  -4 -10    1.33    0.39
  10  -2  -4    1.28    0.68
  10   2   4    1.30    0.60
  10   4  -4   96.04    3.63
   4  10  -4   99.92    3.67
   4  -4  10   99.82    3.29
   4   4 -10  101.67    3.42
  -4 -10  -4   92.09    3.50
   4 -10   4   95.39    3.61
  10  -4   4   93.60    3.55
   4 -10  -4  100.79    3.63
   4  -4 -10  100.92    3.31
  10  -4  -4   96.06    3.59
  10   4   4   95.73    3.50
   4 -10   6   97.58    3.60
   4  10  -6   95.97    3.65
  10  -6   4   91.88    3.57
  -4 -10  -6   93.41    3.45
   6   4 -10   95.67    3.46
   6  -4  10   98.29    3.30
  10   6  -4   95.79    3.66
  10  -6  -4   99.97    3.67
  10   6   4   99.05    3.56
   6  -4 -10   87.75    3.34
   6   4  10   96.47    3.08
   4 -10  -6   96.67    3.58
  10  -8   4   14.27    1.32
  -4 -10  -8   13.59    1.09
   8   4 -10   13.66    1.21
   8  -4  10   12.38    1.04
  10   8  -4   10.77    1.22
   4 -10   8   13.61    1.23
   4 -10  -8   14.14    1.23
  10   8   4   11.68    1.15
   8  -4 -10   14.49    1.17
  10  -8  -4   12.34    1.23
   8   4  10   12.97    0.95
   6  10   0   43.27    2.08
  10   0  -6   44.04    2.07
   0  -6 -10   43.84    1.66
   0  -6  10   44.13    1.87
   6 -10   0   41.74    2.14
   2  -6  10   62.86    2.47
  10   2  -6   65.32    2.70
   6 -10   2   64.57    2.76
  -2  -6 -10   65.99    2.25
   6  10  -2   68.23    2.78
   2  -6 -10   64.70    2.37
  10   2   6   63.20    2.54
   6 -10  -2   68.82    2.78
   6  10   2   67.70    2.70
  10  -2  -6   70.41    2.76
   6  10  -4   99.83    3.70
   4  -6  10   95.31    3.37
   4   6 -10   97.85    3.47
  10  -4   6   99.01    3.54
  10   4  -6   96.54    3.62
   6 -10   4   95.89    3.62
  -4  -6 -10   95.41    3.12
  10  -4  -6   95.41    3.59
  10   4   6   92.42    3.42
   4  -6 -10   94.87    3.33
   6 -10  -4   95.74    3.64
   6  10   4   94.86    3.53
   6 -10   6   -0.90    0.62
  10  -6   6   -0.20    0.62
   6   6 -10    0.20    0.60
   6  10  -6   -0.79    0.63
   6  -6  10    0.06    0.53
  10   6  -6   -0.59    0.63
  10   6   6    0.38    0.50
   6  -6 -10    0.11    0.52
   6 -10  -6    0.45    0.66
  10  -6  -6   -0.65    0.60
   6   6  10   -0.16    0.39
  10   8  -6   44.78    2.37
   6 -10   8   48.02    2.33
   6  10  -8   46.01    2.32
   8   6 -10   46.14    2.24
  10  -8   6   45.63    2.32
  -6 -10  -8   44.11    2.05
   8  -6  10   46.83    2.13
   6 -10  -8   42.64    2.21
   8  -6 -10   46.20    2.14
   8   6  10   43.41    1.87
  10  -8  -6   45.67    2.30
  10   0   8   72.64    2.79
  10   0  -8   75.72    3.00
   8 -10   0   74.86    3.11
   8  10   0   74.45    3.05
   0  -8 -10   76.13    2.72
  -2  -8 -10    2.88    0.54
  10   2  -8    1.79    0.68
   8 -10   2    4.47    0.92
   8  10  -2    2.46    0.74
  10  -2   8    3.91    0.67
   8  10   2    3.64    0.80
  10  -2  -8    2.59    0.74
  10   2   8    3.26    0.62
   8 -10  -2    3.38    0.90
   2  -8 -10    2.94    0.64
  -2  -8  10    2.95    0.68
   8  10  -4   12.11    1.28
  10   4  -8   12.13    1.21
  -4  -8 -10   11.17    0.88
  10  -4   8   14.96    1.18
   4  -8  10   10.68    0.99
   4   8 -10   13.26    1.21
   8 -10   4   12.53    1.22
   8 -10  -4   11.57    1.24
   4  -8 -10   13.93    1.09
   8  10   4   12.83    1.22
  10  -4  -8   13.67    1.26
  10   4   8   14.05    1.11
  -6  -8 -10   47.74    1.86
   8  10  -6   42.74    2.23
  10  -6   8   36.18    1.98
  10   6  -8   45.05    2.30
   6  -8  10   37.83    1.95
   6   8 -10   42.89    2.19
   8 -10   6   46.20    2.28
   8 -10  -6   43.03    2.27
  10   6   8   49.01    2.03
  10  -6  -8   45.43    2.18
   6  -8 -10   41.64    2.04
  10  -8   8   12.56    1.26
  10   8  -8   13.48    1.36
   8 -10   8   12.91    1.34
   8  10  -8   11.60    1.29
   8   8 -10   11.88    1.29
   8  -8 -10   12.18    1.23
   8  10   8   13.43    1.19
  10  -8  -8   11.06    1.27
   8 -10  -8   13.65    1.36
   8   8  10   13.11    1.04
  10   8   8   13.02    1.16
   0 -10 -10  434.41   12.98
   0 -10  10  416.17   13.17
  10 -10   0  432.08   13.39
  10   0 -10  422.10   13.17
  10   0  10  424.74   12.92
  10  10   0  420.91   13.30
  -2 -10 -10   24.55    1.57
  10  10  -2   29.34    1.90
   2 -10  10   26.95    1.72
  10   2 -10   30.23    1.76
  10 -10   2   31.06    1.96
  10  -2  10   27.25    1.54
  10  -2 -10   23.83    1.72
  -2 -10  10   27.43    1.76
  10 -10  -2   29.51    1.93
  10   2  10   27.94    1.46
   2 -10 -10   25.83    1.59
  10  10   2   28.50    1.82
  -4 -10 -10   13.70    1.10
  10   4 -10   12.79    1.29
   4 -10  10   13.89    1.30
  10  10  -4   14.37    1.44
  10  -4  10   14.65    1.18
  10 -10   4   13.97    1.43
  10  -4 -10   14.25    1.32
  10 -10  -4   16.95    1.53
   4 -10 -10   14.57    1.24
  10   4  10   16.22    1.14
  10  10   4   13.53    1.29
  -6 -10 -10    0.44    0.64
  10  10  -6   -0.48    0.73
   6 -10  10    1.15    0.81
   6  10 -10    0.80    0.80
  10   6 -10    0.46    0.74
  10  -6  10    1.93    0.79
  10 -10   6   -1.05    0.70
  10  -6 -10    1.30    0.77
  10 -10  -6    0.73    0.85
  10   6  10    0.00    0.53
   6 -10 -10    1.05    0.76
  10  10   6    0.00    0.57
   8 -10  10    5.90    1.04
   8  10 -10    5.53    1.10
  10  10  -8    5.47    1.11
  10   8 -10    4.99    1.07
  10 -10   8    4.67    1.08
  10  -8 -10    4.16    0.98
  10 -10  -8    4.54    1.05
  10   8  10    5.97    0.86
   8 -10 -10    5.32    1.03
  10  10   8    5.73    0.96
  10  10 -10  463.30   14.53
  10 -10  10  459.25   14.40
  10 -10 -10  460.79   14.42
  10  10  10  456.30   14.11
  -1 -11  -1   80.83    3.10
  11  -1   1   77.93    3.08
   1   1 -11   79.51    2.61
   1 -11   1   77.78    3.09
  11   1  -1   84.73    3.14
   1  -1  11   77.01    2.53
   1 -11  -1   79.73    3.09
  11  -1  -1   83.21    3.15
  -1 -11   1   77.47    3.07
   1  -1 -11   76.57    2.53
  11   1   1   81.53    3.10
  11  -3   1    2.64    0.67
  11   3  -1    2.51    0.69
   1 -11   3    3.35    0.73
   3   1 -11    2.39    0.49
  -1 -11  -3    1.78    0.67
  11  -3  -1    1.71    0.72
  -1 -11   3    3.32    0.77
  11   3   1    1.64    0.67
   1 -11  -3    2.55    0.78
   3  -1 -11    2.86    0.46
   5   1 -11    3.70    0.59
  -1 -11  -5    4.27    0.75
   1 -11   5    3.93    0.78
  11  -5   1    3.83    0.78
   5  -1  11    4.02    0.43
  11   5  -1    3.83    0.80
  11  -5  -1    5.21    0.83
   5  -1 -11    4.14    0.58
  11   5   1    2.94    0.69
  -1 -11   5    4.42    0.82
   1 -11  -5    3.56    0.77
  -1 -11  -7    3.64    0.77
   7   1 -11    4.45    0.69
   1 -11   7    3.64    0.84
  11  -7   1    2.65    0.81
  11   7  -1    2.83    0.80
   7  -1  11    2.54    0.52
   7  -1 -11    4.41    0.69
   7   1  11    2.16    0.44
  11   7   1    3.76    0.81
   1 -11  -7    2.92    0.79
  -1 -11   7    2.47    0.81
  11  -7  -1    4.12    0.83
   9   1 -11  188.53    6.24
  -1 -11  -9  193.31    6.18
   9  -1  11  191.68    5.98
  11  -9   1  170.44    6.40
  11   9  -1  189.57    6.47
   1 -11   9  186.59    6.34
   1 -11  -9  182.54    6.18
  11   9   1  195.32    6.45
  -1 -11   9  193.32    6.40
   9   1  11  186.42    5.92
   9  -1 -11  187.96    6.23
  11  -9  -1  183.68    6.47
  -3 -11  -1    2.63    0.76
  11   1  -3    2.78    0.70
   3 -11   1    2.21    0.73
   1  -3  11    2.35    0.45
   1   3 -11    2.00    0.49
  11  -1   3    2.73    0.70
  -3 -11   1    2.81    0.76
  11  -1  -3    3.22    0.70
   3 -11  -1    3.76    0.75
  11   1   3    2.10    0.70
   1  -3 -11    3.36    0.38
  11  -3   3   43.05    2.06
   3 -11   3   43.96    2.11
  11   3  -3   41.76    2.06
   3  -3  11   42.61    1.68
   3   3 -11   43.67    1.79
  -3 -11  -3   46.59    2.12
   3 -11  -3   39.79    2.06
   3  -3 -11   43.07    1.68
  11  -3  -3   44.45    2.09
  11   3   3   44.90    2.06
  -3 -11   3   48.75    2.17
  11  -5   3    9.15    1.06
  -3 -11  -5    9.41    1.00
   5  -3  11    8.68    0.73
   5   3 -11   11.06    0.94
  11   5  -3    9.11    1.05
   3 -11   5   10.22    1.09
   5  -3 -11   11.64    0.90
  11   5   3    9.10    1.01
   3 -11  -5   10.34    1.09
  11  -5  -3   12.80    1.19
  -3 -11   5   10.69    1.11
  11   7  -3  170.76    6.04
   3 -11   7  172.86    5.96
  11  -7   3  183.51    6.09
   7   3 -11  178.06    5.85
  -3 -11  -7  173.03    5.84
   7  -3  11  179.75    5.61
  -3 -11   7  176.69    6.04
  11  -7  -3  162.38    6.00
  11   7   3  176.74    5.97
   7  -3 -11  180.49    5.79
   7   3  11  180.89    5.44
   3 -11  -7  182.47    5.95
   3 -11   9   26.33    1.70
   9   3 -11   24.81    1.57
  -3 -11  -9   20.89    1.48
  11   9  -3   24.62    1.78
   9  -3  11   22.97    1.38
  11  -9   3   22.03    1.76
  11  -9  -3   24.80    1.75
   9  -3 -11   21.77    1.54
  -3 -11   9   22.77    1.68
   3 -11  -9   21.45    1.56
  11   9   3   23.22    1.67
   9   3  11   22.19    1.22
   5 -11   1    5.00    0.89
  11   1  -5    3.92    0.78
   1  -5  11    4.40    0.61
  11  -1   5    3.53    0.74
   5  11  -1    3.58    0.80
  11   1   5    2.83    0.72
   1  -5 -11    3.52    0.46
  -1  -5  11    4.67    0.63
  11  -1  -5    3.80    0.76
   5 -11  -1    2.57    0.77
   5  11  -3    9.28    1.12
   5 -11   3   10.00    1.13
   3   5 -11    9.79    0.91
  11   3  -5    9.53    1.07
   3  -5  11    9.27    0.81
  11  -3   5   11.01    1.07
   3  -5 -11    9.85    0.77
  11   3   5   10.80    0.98
   5 -11  -3    9.85    1.11
  11  -3  -5   10.14    1.08
   5  -5  11    5.64    0.73
  11   5  -5    4.80    0.87
   5 -11   5    5.56    0.94
  11  -5   5    6.30    0.91
  -5 -11  -5    6.93    0.88
   5   5 -11    7.00    0.86
   5  11  -5    6.37    1.00
   5 -11  -5    4.61    0.88
   5  -5 -11    6.68    0.77
  11  -5  -5    5.21    0.90
  11   5   5    5.94    0.83
   5 -11   7    5.73    0.96
  -5 -11  -7    6.10    0.90
  11  -7   5    6.14    0.97
   5  11  -7    4.23    1.00
   7   5 -11    5.56    0.88
  11   7  -5    4.14    0.92
   7  -5  11    4.76    0.75
   7  -5 -11    4.36    0.78
   7   5  11    5.49    0.58
  11  -7  -5    3.81    0.90
  11   7   5    5.53    0.89
   5 -11  -7    3.88    0.91
   5 -11   9    2.12    0.82
   5  11  -9    2.83    0.92
   9  -5  11    1.46    0.71
  11  -9   5    1.81    0.90
  11   9  -5    2.01    0.83
   9   5 -11    1.66    0.77
  -5 -11  -9    0.66    0.70
  11   9   5    1.30    0.75
  11  -9  -5    3.07    0.91
   5 -11  -9    2.43    0.84
   9  -5 -11    4.09    0.83
   9   5  11    1.90    0.52
   1  -7  11    3.02    0.65
  11  -1   7    3.32    0.73
   7 -11   1    2.88    0.87
   7  11  -1    2.98    0.80
  11   1  -7    2.05    0.70
  -1  -7 -11    3.73    0.50
   7  11   1    3.67    0.84
   1  -7 -11    3.25    0.54
  11   1   7    2.94    0.72
  11  -1  -7    2.57    0.77
   7 -11  -1    2.03    0.82
  -1  -7  11    3.03    0.65
  -3  -7 -11  182.13    5.48
   3  -7  11  177.63    5.75
   3   7 -11  178.52    5.83
  11   3  -7  174.62    5.99
   7 -11   3  171.72    6.05
   7  11  -3  171.45    6.03
   7 -11  -3  174.23    6.05
  11  -3  -7  177.50    6.00
   7  11   3  174.32    5.94
   3  -7 -11  178.62    5.64
  11   5  -7    5.91    0.99
   7  11  -5    6.22    1.05
  11  -5   7    6.30    0.94
   7 -11   5    6.39    1.00
  -5  -7 -11    5.67    0.62
   5   7 -11    6.03    0.92
   5  -7  11    6.18    0.89
   5  -7 -11    5.21    0.80
  11  -5  -7    6.82    1.01
   7  11   5    5.79    0.94
  11   5   7    5.38    0.84
   7 -11  -5    4.44    0.96
   7 -11   7  131.90    4.72
   7   7 -11  125.60    4.56
   7  -7  11  126.80    4.44
  11  -7   7  126.32    4.63
  11   7  -7  125.25    4.72
   7  11  -7  123.47    4.71
   7 -11  -7  125.43    4.68
  11  -7  -7  133.34    4.70
  11   7   7  129.68    4.48
   7  -7 -11  126.57    4.47
  -7 -11  -9    7.95    0.96
  11  -9   7    8.02    1.20
   7  11  -9    8.12    1.21
   7 -11   9    7.37    1.12
  11   9  -7    7.13    1.15
   9  -7  11    8.13    1.04
   9   7 -11    7.80    1.14
   9   7  11    7.19    0.81
   9  -7 -11    7.37    1.05
  11  -9  -7    6.84    1.17
   7 -11  -9    7.01    1.12
  11   9   7    6.77    0.95
  11   1  -9  182.33    6.22
  -1  -9 -11  180.83    5.86
   9  11  -1  180.68    6.31
  11  -1   9  190.69    6.03
   9 -11   1  185.79    6.41
  11  -1  -9  181.85    6.23
   9  11   1  191.56    6.31
   9 -11  -1  177.76    6.35
  11   1   9  185.97    6.00
  -1  -9  11  179.27    6.13
   1  -9 -11  182.84    5.90
   9 -11   3   23.57    1.82
  11  -3   9   22.35    1.51
  11   3  -9   25.29    1.66
   9  11  -3   21.37    1.72
  -3  -9 -11   19.04    1.31
   9 -11  -3   25.75    1.83
   9  11   3   22.77    1.65
  11  -3  -9   21.53    1.67
   3  -9 -11   23.30    1.45
  11   3   9   23.15    1.41
  11  -5   9    2.07    0.75
  -5  -9 -11    1.06    0.59
   9 -11   5    1.17    0.82
  11   5  -9    1.64    0.77
   5  -9  11    0.82    0.60
   5   9 -11    0.96    0.80
   9  11  -5    2.49    0.91
   9 -11  -5    2.91    0.97
   5  -9 -11    2.17    0.71
  11  -5  -9    1.11    0.78
  11   5   9    1.95    0.63
   9  11   5    2.16    0.79
   7  -9  11    6.86    0.97
   7   9 -11    8.05    1.12
   9 -11   7    6.51    1.09
   9  11  -7    8.93    1.23
  -7  -9 -11    7.55    0.84
  11  -7   9    7.29    1.01
  11   7  -9    8.14    1.16
  11   7   9    5.89    0.89
   9  11   7    4.83    0.80
   9 -11  -7    8.38    1.25
  11  -7  -9    8.80    1.19
   7  -9 -11    7.02    1.01
  11   9  -9   33.86    2.20
   9 -11   9   34.20    2.20
  11  -9   9   32.25    2.15
   9  11  -9   33.72    2.20
   9   9 -11   35.41    2.23
   9   9  11   35.38    1.82
   9  11   9   36.68    2.03
  11  -9  -9   35.05    2.19
   9  -9 -11   33.04    2.11
   9 -11  -9   32.79    2.18
  11   9   9   31.00    1.93
  -1 -11 -11  159.03    5.63
  11  11  -1  171.50    6.07
   1 -11  11  172.06    5.88
  11   1 -11  174.75    5.91
  11 -11   1  166.76    6.08
  11  -1  11  181.01    5.65
  11  -1 -11  171.84    5.89
  11 -11  -1  171.26    6.11
   1 -11 -11  159.60    5.66
  11   1  11  173.31    5.59
  -1 -11  11  173.61    5.95
  11  11   1  171.19    6.02
  -3 -11 -11   13.38    1.17
  11  -3  11   13.99    1.17
   3 -11  11   12.21    1.28
  11   3 -11   12.68    1.31
  11  11  -3   11.50    1.40
  11 -11   3   16.05    1.59
  11  -3 -11   12.30    1.30
  11 -11  -3   12.71    1.47
  -3 -11  11   14.14    1.39
  11   3  11   13.61    1.07
   3 -11 -11   12.20    1.21
  11  11   3   16.32    1.49
  -5 -11 -11    3.07    0.81
  11   5 -11    1.85    0.92
  11  11  -5    2.73    0.99
   5 -11  11    2.84    0.90
  11 -11   5    3.86    1.08
  11  -5  11    2.28    0.83
  11  -5 -11    2.86    0.94
  11 -11  -5    4.31    1.11
   5 -11 -11    1.93    0.86
  11   5  11    2.20    0.67
  11  11   5    1.60    0.90
  -7 -11 -11   43.34    2.10
  11  11  -7   42.71    2.44
   7 -11  11   41.58    2.36
   7  11 -11   44.41    2.44
  11   7 -11   46.88    2.51
  11  -7  11   43.86    2.27
  11 -11   7   43.18    2.51
  11  -7 -11   40.88    2.34
  11 -11  -7   44.02    2.48
  11   7  11   40.58    2.04
   7 -11 -11   44.18    2.34
   9 -11  11  150.54    5.53
   9  11 -11  149.01    5.63
  11  11  -9  150.95    5.70
  11 -11   9  159.46    5.69
  11   9 -11  156.35    5.69
  11 -11  -9  155.98    5.65
  11  -9 -11  155.69    5.57
  11   9  11  148.40    5.23
   9 -11 -11  153.94    5.56
  11  11   9  151.81    5.42
  11  11 -11  104.54    4.36
  11 -11  11  102.82    4.24
  11 -11 -11  102.87    4.27
  11  11  11  103.53    3.96
   0 -12   0   63.03    2.66
  12   0   0   62.92    2.67
   2   0 -12    7.55    0.61
  12  -2   0    8.82    1.02
  12   2   0    7.92    0.98
   0 -12   2    9.17    1.03
   0 -12  -2    9.31    1.04
  12  -4   0   38.36    1.98
  12   4   0   40.13    1.99
   4   0 -12   36.22    1.56
   0 -12  -4   36.66    1.90
   0 -12   4   36.28    1.97
  12  -6   0   46.84    2.34
   6   0 -12   46.31    1.98
  12   6   0   49.46    2.33
   0 -12  -6   47.50    2.24
   6   0  12   44.14    1.64
   0 -12   6   50.47    2.34
  12  -8   0   -0.99    0.72
   8   0 -12    0.95    0.61
   0 -12  -8    0.77    0.72
   8   0  12    0.18    0.46
   0 -12   8    0.26    0.69
  12   8   0   -0.39    0.73
  10   0 -12   56.44    2.55
  12  10   0   57.33    2.79
  10   0  12   54.39    2.25
   0 -12 -10   57.54    2.54
   0 -12  10   57.45    2.70
  12 -10   0   53.78    2.80
  -2 -12   0    6.88    0.96
  12   0   2    9.18    1.03
   0  -2  12    8.36    0.62
   2 -12   0    7.01    0.94
  12   0  -2    8.50    1.01
  12  -2   2   61.01    2.67
   2   2 -12   64.01    2.29
   2 -12   2   63.74    2.72
  12   2  -2   65.78    2.74
  -2 -12  -2   63.60    2.69
  12  -2  -2   58.76    2.65
   2 -12  -2   65.27    2.72
  12   2   2   68.52    2.73
  -2 -12   2   66.42    2.77
  -2 -12  -4   16.08    1.38
  12   4  -2   17.94    1.46
  12  -4   2   20.12    1.45
   2 -12   4   17.91    1.44
   4  -2  12   18.99    0.94
   4   2 -12   20.96    1.19
  12  -4  -2   17.55    1.37
  -2 -12   4   19.23    1.48
  12   4   2   18.96    1.41
   4  -2 -12   18.50    1.08
   2 -12  -4   20.26    1.50
   6  -2  12   15.90    0.96
  12   6  -2   17.93    1.47
   2 -12   6   17.93    1.45
   6   2 -12   17.84    1.24
  -2 -12  -6   16.22    1.33
  12  -6   2   17.21    1.48
   6  -2 -12   14.98    1.14
  12   6   2   16.92    1.40
  -2 -12   6   17.00    1.45
  12  -6  -2   15.44    1.40
   2 -12  -6   15.33    1.35
  12   8  -2   55.76    2.70
  12  -8   2   56.68    2.71
  -2 -12  -8   55.19    2.48
   8  -2  12   56.88    2.18
   2 -12   8   58.23    2.62
   8   2 -12   57.75    2.45
   2 -12  -8   57.86    2.56
   8  -2 -12   53.94    2.39
  12   8   2   56.76    2.63
   8   2  12   57.68    2.03
  12  -8  -2   57.76    2.73
  -2 -12   8   54.78    2.61
  10  -2  12   21.46    1.40
  10   2 -12   21.68    1.63
  -2 -12 -10   21.18    1.63
  12  10  -2   21.79    1.83
  12 -10   2   25.92    1.92
   2 -12  10   21.44    1.66
   2 -12 -10   21.03    1.70
  10   2  12   22.69    1.28
  12 -10  -2   22.69    1.86
  -2 -12  10   21.53    1.75
  10  -2 -12   21.42    1.61
  12  10   2   21.94    1.79
   0  -4  12   38.22    1.61
  -4 -12   0   36.69    1.97
   4 -12   0   37.90    2.02
  12   0   4   37.51    1.92
  12   0  -4   36.94    1.98
  12  -2   4   18.24    1.42
   4 -12   2   18.63    1.43
  12   2  -4   18.25    1.46
   2  -4  12   19.37    1.08
  -4 -12  -2   21.99    1.47
   2   4 -12   16.86    1.17
   2  -4 -12   18.47    0.97
   4 -12  -2   18.81    1.49
  -4 -12   2   18.87    1.39
  12   2   4   18.93    1.35
  12  -2  -4   17.84    1.45
   4 -12   4    6.22    0.97
  12  -4   4    6.97    0.97
  -4 -12  -4    6.57    0.94
   4   4 -12    7.23    0.80
  12   4  -4    5.23    0.92
   4  -4  12    4.15    0.60
  12  -4  -4    5.46    0.90
   4 -12  -4    5.17    0.93
   4  -4 -12    5.81    0.66
  -4 -12   4    4.52    0.93
  12   4   4    5.44    0.85
   4 -12   6   36.81    2.05
   6  -4  12   40.27    1.70
  12  -6   4   34.40    2.02
  12   6  -4   36.89    2.12
   6   4 -12   38.84    1.87
  -4 -12  -6   37.08    2.00
  -4 -12   6   37.06    2.08
  12  -6  -4   36.72    2.06
   4 -12  -6   37.88    2.12
  12   6   4   43.21    2.10
   6  -4 -12   36.90    1.77
   4 -12   8   15.54    1.47
  12  -8   4   18.30    1.58
   8   4 -12   17.40    1.43
  12   8  -4   15.51    1.51
   8  -4  12   17.31    1.24
  -4 -12  -8   16.99    1.40
   4 -12  -8   17.90    1.46
   8  -4 -12   19.32    1.43
  -4 -12   8   17.69    1.53
  12   8   4   19.77    1.52
  12  -8  -4   16.83    1.55
   8   4  12   17.98    1.03
  10  -4  12   27.94    1.60
  12 -10   4   26.62    2.03
   4 -12  10   23.37    1.76
  -4 -12 -10   24.69    1.64
  12  10  -4   27.05    1.99
  10   4 -12   23.87    1.78
   4 -12 -10   25.95    1.79
  10  -4 -12   23.73    1.72
  12  10   4   27.32    1.92
  12 -10  -4   26.06    1.98
  -4 -12  10   27.42    1.84
  10   4  12   25.49    1.40
   0  -6 -12   46.59    1.68
   6  12   0   41.03    2.25
   0  -6  12   48.63    2.00
   6 -12   0   42.13    2.29
  12   0  -6   45.64    2.25
   6  12  -2   14.28    1.39
  12  -2   6   16.18    1.32
   6 -12   2   20.15    1.55
  12   2  -6   18.04    1.46
   2  -6 -12   16.18    1.03
   6 -12  -2   15.67    1.44
  12  -2  -6   14.07    1.36
  12   4  -6   36.11    2.02
  12  -4   6   39.36    2.02
   6 -12   4   34.90    2.11
   6  12  -4   38.26    2.14
   4   6 -12   37.63    1.86
   4  -6  12   35.90    1.71
   4  -6 -12   36.78    1.67
   6 -12  -4   33.61    2.05
  12  -4  -6   35.25    2.03
   6  12  -6    0.75    0.78
   6 -12   6   -0.27    0.75
   6  -6  12    0.35    0.62
  12  -6   6    1.64    0.80
  12   6  -6    0.71    0.74
  -6 -12  -6    0.89    0.70
   6   6 -12    0.88    0.67
  -6  -6 -12    0.53    0.40
  12   6   6    0.34    0.29
   6 -12  -6    0.88    0.82
   6  -6 -12    1.02    0.63
  12  -6  -6    0.07    0.72
   6  12  -8    2.57    0.95
  12  -8   6    5.26    1.03
  12   8  -6    3.83    0.94
   6 -12   8    3.12    0.93
  -6 -12  -8    3.09    0.84
   8   6 -12    4.21    0.92
   8  -6  12    1.82    0.78
  12  -8  -6    4.93    1.07
   6 -12  -8    4.68    0.99
  12   8   6    2.58    0.76
   8   6  12    3.21    0.58
   8  -6 -12    2.00    0.74
   6 -12  10   20.79    1.73
  10   6 -12   19.12    1.64
  12 -10   6   20.47    1.81
  12  10  -6   23.81    1.93
  10  -6  12   18.36    1.55
   6  12 -10   18.16    1.72
  -6 -12 -10   20.11    1.60
  10   6  12   19.41    1.32
   6 -12 -10   19.58    1.66
  12 -10  -6   20.67    1.80
  12  10   6   18.20    1.60
   0  -8  12    0.04    0.57
  12   0  -8   -0.94    0.62
  12   0   8   -0.86    0.60
   8 -12   0    0.77    0.81
   8  12   0    0.53    0.77
   0  -8 -12    0.32    0.49
  12  -2   8   55.16    2.35
  12   2  -8   54.75    2.52
   8  12  -2   54.35    2.63
   8 -12   2   53.32    2.60
   2  -8  12   53.94    2.33
  -2  -8 -12   53.24    2.01
   8  12   2   56.37    2.60
  -2  -8  12   46.63    2.21
  12   2   8   48.64    2.26
   2  -8 -12   52.52    2.14
  12  -2  -8   56.13    2.53
   8 -12  -2   50.69    2.58
   4  -8  12   17.00    1.35
  12   4  -8   18.69    1.57
   8  12  -4   20.72    1.70
  -4  -8 -12   19.48    1.13
   4   8 -12   20.07    1.51
   8 -12   4   17.99    1.63
   8  12   4   18.38    1.53
  12  -4  -8   19.21    1.59
   8 -12  -4   16.96    1.57
   4  -8 -12   20.00    1.35
  12   4   8   20.32    1.42
   6  -8  12    3.22    0.79
   8 -12   6    3.03    1.01
  -6  -8 -12    3.10    0.60
  12   6  -8    3.89    0.97
   6   8 -12    4.76    0.95
   8  12  -6    5.19    1.06
  12  -6   8    3.30    0.90
   8  12   6    1.81    0.82
  12   6   8    2.62    0.77
  12  -6  -8    3.56    0.95
   6  -8 -12    3.08    0.79
   8 -12  -6    3.14    1.00
   8   8 -12   19.83    1.66
   8  12  -8   18.61    1.74
   8  -8  12   18.78    1.50
   8 -12   8   22.97    1.85
  12   8  -8   23.66    1.86
  12  -8   8   21.82    1.77
   8  -8 -12   19.65    1.59
  12  -8  -8   19.64    1.73
   8 -12  -8   19.15    1.69
  12   8   8   21.35    1.60
   8  12 -10   -0.90    0.87
  10   8 -12   -0.19    0.84
  -8 -12 -10   -1.15    0.73
   8 -12  10   -0.52    0.90
  12 -10   8   -1.18    0.88
  12  10  -8   -0.66    0.86
  10  -8  12   -0.65    0.79
  10  -8 -12    0.63    0.83
   8 -12 -10   -0.21    0.93
  12  10   8    0.27    0.77
  12 -10  -8    0.56    0.92
  10   8  12   -1.54    0.57
  12   0  10   53.32    2.32
  10  12   0   52.67    2.68
   0 -10 -12   54.41    2.25
  10 -12   0   47.26    2.61
  12   0 -10   52.38    2.54
  12  -2  10   24.74    1.57
  10  12  -2   25.11    1.90
  -2 -10 -12   23.01    1.48
  10 -12   2   24.27    1.91
  12   2 -10   21.07    1.68
  10  12   2   21.81    1.79
  12  -2 -10   21.52    1.79
  10 -12  -2   26.40    1.96
  12   2  10   21.21    1.50
  -2 -10  12   21.12    1.67
   2 -10 -12   23.84    1.52
  10  12  -4   24.37    1.91
  10 -12   4   28.66    2.02
  12   4 -10   28.54    1.91
  12  -4  10   26.83    1.69
  -4 -10 -12   25.11    1.51
  12  -4 -10   24.56    1.82
  10 -12  -4   26.83    2.03
   4 -10 -12   24.99    1.66
  12   4  10   26.36    1.59
  10  12   4   23.86    1.91
  -6 -10 -12   18.44    1.38
  10  12  -6   20.79    1.81
  12   6 -10   20.40    1.72
  10 -12   6   19.11    1.73
   6 -10  12   19.15    1.53
   6  10 -12   18.85    1.68
  12  -6  10   18.92    1.54
   6 -10 -12   18.98    1.49
  12  -6 -10   20.71    1.72
  10 -12  -6   18.40    1.74
  10  12   6   16.70    1.55
  12   6  10   18.69    1.49
  12   8 -10   -2.91    0.82
   8 -10  12   -0.39    0.68
   8  10 -12    0.33    0.91
  10 -12   8   -0.30    0.94
  12  -8  10    0.38    0.76
  -8 -10 -12   -0.30    0.65
  10  12  -8   -0.05    0.89
   8 -10 -12   -0.48    0.77
  12   8  10   -1.26    0.71
  10 -12  -8   -0.13    0.93
  12  -8 -10    0.27    0.92
  10  12   8    0.22    0.78
  12  10 -10   49.59    2.85
  10 -12  10   51.27    2.77
  12 -10  10   53.34    2.78
  10  12 -10   55.67    2.90
  10  10 -12   55.08    2.87
  10  10  12   51.23    2.45
  12 -10 -10   54.14    2.86
  10 -10 -12   51.69    2.74
  10 -12 -10   51.43    2.87
  12  10  10   56.23    2.60
   0 -12 -12   44.93    2.27
   0 -12  12   45.64    2.47
  12 -12   0   45.11    2.62
  12   0 -12   44.51    2.42
  12   0  12   42.25    2.10
  12  12   0   43.88    2.55
  -2 -12 -12  346.21   10.73
  12  -2  12  360.81   10.75
  12  12  -2  335.07   11.17
  12   2 -12  348.45   11.03
   2 -12  12  341.08   10.97
  12 -12   2  344.46   11.25
  12 -12  -2  343.42   11.26
  -2 -12  12  337.18   11.03
  12  -2 -12  334.75   10.98
   2 -12 -12  340.44   10.78
  12  12   2  348.40   11.15
  -4 -12 -12   18.45    1.57
  12  -4  12   22.05    1.63
  12  12  -4   23.82    1.92
  12   4 -12   23.34    1.84
   4 -12  12   22.06    1.77
  12 -12   4   21.91    1.92
  12 -12  -4   20.11    1.87
  12  -4 -12   21.55    1.81
  -4 -12  12   23.96    1.90
   4 -12 -12   22.96    1.77
  12   4  12   23.47    1.49
  12  12   4   20.72    1.78
  -6 -12 -12   -0.44    0.75
  12  12  -6   -0.09    0.92
   6 -12  12   -1.05    0.86
   6  12 -12    2.02    1.01
  12   6 -12   -0.86    0.83
  12  -6  12    1.26    0.86
  12 -12   6   -0.37    0.92
  12  -6 -12   -0.08    0.85
  12 -12  -6   -0.52    0.95
  12   6  12    0.02    0.63
   6 -12 -12   -0.42    0.82
  12  12   6   -0.12    0.82
  -8 -12 -12   62.29    2.70
  12  12  -8   61.24    3.14
   8 -12  12   60.29    2.97
   8  12 -12   60.59    3.04
  12   8 -12   57.47    3.04
  12  -8  12   59.19    2.87
  12 -12   8   58.81    3.03
  12  -8 -12   59.76    2.94
  12 -12  -8   62.08    3.11
  12   8  12   63.22    2.64
   8 -12 -12   63.93    2.97
  12  12   8   52.32    2.70
  12  10 -12    5.91    1.30
  12  12 -10    8.94    1.47
  10 -12  12    5.79    1.28
  10  12 -12    6.98    1.35
  12 -12  10    6.68    1.32
  12 -12 -10    4.96    1.29
  12 -10 -12    5.45    1.24
  10 -12 -12    7.69    1.34
  12  10  12    5.82    1.01
  12  12  10    8.02    1.17
  12  12 -12   76.28    3.65
  12 -12  12   74.92    3.52
  12 -12 -12   69.16    3.53
  12  12  12   79.58    3.25
  -1 -13  -1    0.69    0.69
   1   1 -13    0.83    0.39
  13   1  -1    1.11    0.70
  13  -1   1    1.72    0.78
   1 -13   1    1.10    0.71
   1 -13  -1    1.56    0.70
  -1 -13   1    0.51    0.64
  13  -1  -1    1.41    0.75
  13   1   1    0.92    0.68
   3   1 -13    0.91    0.45
   1 -13   3    1.84    0.72
  13  -3   1    0.77    0.72
  13   3  -1    1.01    0.71
  -1 -13  -3    2.02    0.78
   1 -13  -3    2.02    0.79
  13  -3  -1    1.31    0.77
   3  -1 -13    1.71    0.43
  -1 -13   3    0.45    0.70
  13   3   1    1.58    0.78
   5   1 -13   42.15    1.86
  13   5  -1   47.03    2.32
  -1 -13  -5   42.67    2.20
   1 -13   5   41.92    2.24
  13  -5   1   41.37    2.24
  13   5   1   44.37    2.27
  -1 -13   5   41.07    2.21
  13  -5  -1   42.21    2.22
   1 -13  -5   43.48    2.22
   5  -1 -13   43.31    1.81
   7  -1  13    1.66    0.47
   7   1 -13    1.83    0.62
  -1 -13  -7   -0.46    0.72
  13   7  -1    0.76    0.79
   1 -13   7    2.12    0.77
  13  -7   1    0.61    0.82
  13  -7  -1    0.75    0.83
  13   7   1    1.78    0.81
   7  -1 -13    1.16    0.59
   1 -13  -7    1.53    0.80
  -1 -13   7    1.63    0.79
   1 -13   9    4.45    1.00
  13   9  -1    4.19    1.04
  -1 -13  -9    5.24    1.01
  13  -9   1    4.92    1.11
   9  -1  13    5.82    0.69
   9   1 -13    6.37    0.95
  13   9   1    3.48    1.00
   9  -1 -13    5.98    0.92
   9   1  13    4.21    0.61
  -1 -13   9    4.23    0.96
   1 -13  -9    5.09    1.02
  13  -9  -1    5.87    1.14
  11  -1  13   50.12    2.20
  13  11  -1   53.47    2.79
   1 -13  11   50.03    2.57
  13 -11   1   48.41    2.72
  11   1 -13   52.02    2.52
  -1 -13 -11   49.54    2.46
  11   1  13   47.80    2.11
  -1 -13  11   52.40    2.68
   1 -13 -11   48.71    2.50
  11  -1 -13   49.25    2.48
  13 -11  -1   53.49    2.83
  13  11   1   50.98    2.76
  -3 -13  -1    1.12    0.69
   1  -3  13    1.75    0.44
  13  -1   3    1.29    0.76
  13   1  -3    1.85    0.77
   3 -13   1    1.16    0.77
  13  -1  -3    1.51    0.75
  13   1   3    2.47    0.80
   3 -13  -1    0.68    0.76
  -3 -13   1    1.21    0.72
   3 -13   3    5.83    0.97
  -3 -13  -3    5.39    1.00
   3   3 -13    7.13    0.76
  13   3  -3    7.42    1.05
  13  -3   3    8.04    1.05
   3  -3  13    6.29    0.62
   3 -13  -3    5.57    0.97
  13   3   3    5.81    0.98
  13  -3  -3    9.71    1.14
  -3 -13   3    6.55    1.01
   3  -3 -13    6.09    0.61
  13  -5   3    9.11    1.11
  13   5  -3    9.05    1.14
   5   3 -13    9.62    0.94
  -3 -13  -5    9.15    1.09
   3 -13   5    9.67    1.19
   5  -3  13    8.42    0.70
  13   5   3    8.05    1.08
   3 -13  -5    7.98    1.11
  13  -5  -3    9.82    1.18
  -3 -13   5   10.61    1.23
   5  -3 -13    8.71    0.83
  13   7  -3   -0.19    0.73
   3 -13   7    0.41    0.79
  13  -7   3    0.34    0.80
  -3 -13  -7   -0.29    0.73
   7  -3  13    0.07    0.51
   7   3 -13    0.92    0.65
  -3 -13   7    0.84    0.76
   7  -3 -13    0.68    0.58
  13  -7  -3    0.46    0.86
   3 -13  -7   -0.26    0.75
  13   7   3    1.59    0.79
  13  -9   3    4.70    1.09
   9  -3  13    4.69    0.74
   9   3 -13    4.17    0.91
  13   9  -3    3.28    0.96
  -3 -13  -9    3.66    0.93
   3 -13   9    4.55    1.03
   9   3  13    3.66    0.56
  13   9   3    3.11    0.96
   3 -13  -9    3.55    1.01
  -3 -13   9    3.50    0.98
  13  -9  -3    4.31    1.12
   9  -3 -13    3.89    0.85
  13  11  -3    3.18    1.09
  11  -3  13   -0.62    0.73
  11   3 -13    1.34    0.85
   3 -13  11    1.64    0.91
  -3 -13 -11    1.06    0.88
  13 -11   3    3.81    1.07
  13 -11  -3    2.14    1.07
  11   3  13    0.43    0.57
   3 -13 -11    3.25    0.95
  11  -3 -13    1.59    0.84
  -3 -13  11    2.18    0.96
  13  11   3    1.75    1.00
  -5 -13  -1   45.13    2.27
   1  -5  13   47.62    1.89
  13  -1   5   45.98    2.24
  13   1  -5   44.16    2.28
   5 -13   1   43.69    2.32
  13  -1  -5   42.42    2.24
   5 -13  -1   42.32    2.29
  -5 -13   1   40.45    2.22
  13   1   5   40.86    2.17
   1  -5 -13   44.75    1.65
  -1  -5  13   45.08    1.92
  -5 -13  -3    8.43    1.11
   3   5 -13    9.88    0.95
   3  -5  13    8.24    0.80
  13  -3   5   10.04    1.13
  13   3  -5    9.02    1.13
   5 -13   3    9.67    1.20
  13   3   5    9.99    1.08
   5 -13  -3    8.49    1.12
   3  -5 -13    8.25    0.75
  13  -3  -5    8.19    1.11
  -5 -13  -5    1.03    0.78
  13   5  -5    2.01    0.82
   5   5 -13    1.83    0.70
   5  -5  13    1.45    0.60
   5 -13   5    0.59    0.76
  13  -5   5    0.10    0.77
   5 -13  -5    2.89    0.93
  13  -5  -5    1.54    0.83
  13   5   5    0.79    0.72
   5  -5 -13    1.86    0.60
  13  -7   5   21.11    1.75
  13   7  -5   26.07    1.89
   7  -5  13   22.05    1.39
  -5 -13  -7   20.89    1.62
   5 -13   7   24.46    1.78
   7   5 -13   22.52    1.60
   7  -5 -13   24.09    1.51
   5 -13  -7   23.92    1.78
  13   7   5   25.48    1.80
  13  -7  -5   24.05    1.83
  13   9  -5   42.65    2.54
   5 -13   9   41.17    2.39
   9   5 -13   47.26    2.37
  -5 -13  -9   47.12    2.33
   9  -5  13   44.36    2.12
  13  -9   5   46.84    2.57
   9  -5 -13   47.49    2.29
  13   9   5   48.14    2.44
   5 -13  -9   45.22    2.48
  13  -9  -5   47.87    2.61
   9   5  13   45.19    1.85
  11  -5  13    5.16    0.91
  13 -11   5    9.76    1.43
  11   5 -13    8.90    1.23
  -5 -13 -11    7.44    1.07
  13  11  -5    6.90    1.28
   5 -13  11    5.91    1.17
  11  -5 -13    6.62    1.13
  13 -11  -5    8.82    1.40
  -5 -13  11    3.85    1.09
  11   5  13    7.37    0.82
   5 -13 -11    7.61    1.18
  13  11   5    8.64    1.23
  13   1  -7    0.64    0.77
  -1  -7 -13    0.41    0.44
  13  -1   7   -0.18    0.32
   7 -13   1   -0.26    0.78
   7  13  -1    1.49    0.87
   1  -7  13    1.21    0.62
   1  -7 -13    0.66    0.44
  13  -1  -7    1.17    0.79
  -1  -7  13    0.47    0.59
   7  13   1    1.34    0.86
   7 -13  -1    0.20    0.86
  13   1   7    0.53    0.42
   7 -13   3    1.03    0.89
  13   3  -7    0.69    0.74
  13  -3   7    0.71    0.74
   3  -7  13    1.51    0.61
   7  13  -3    0.77    0.81
   3  -7 -13    0.56    0.54
  13  -3  -7   -0.18    0.75
   7 -13  -3    2.31    0.88
  13   3   7   -0.02    0.57
   7  13  -5   22.67    1.86
  -5  -7 -13   22.26    1.10
   7 -13   5   22.05    1.80
  13   5  -7   24.17    1.80
  13  -5   7   25.90    1.80
   5  -7  13   23.15    1.52
   5   7 -13   24.38    1.67
   5  -7 -13   23.04    1.44
  13   5   7   23.72    1.51
   7 -13  -5   23.07    1.80
  13  -5  -7   22.62    1.77
  13  -7   7    5.71    1.13
   7 -13   7    4.99    1.08
  13   7  -7    5.70    1.16
  -7 -13  -7    6.89    1.06
   7  -7  13    5.08    0.88
   7   7 -13    4.66    0.99
   7  13  -7    5.63    1.14
  -7  -7 -13    5.49    0.63
  13   7   7    1.97    0.59
  13  -7  -7    6.82    1.18
   7 -13  -7    5.70    1.12
   7  -7 -13    5.65    0.90
   9   7 -13   12.10    1.39
   7 -13   9   13.50    1.50
   7  13  -9   12.33    1.53
   9  -7  13   11.46    1.22
  -7 -13  -9   13.50    1.33
  13  -9   7   14.90    1.53
  13   9  -7   11.01    1.43
   9  -7 -13   14.17    1.35
  13  -9  -7   12.91    1.53
   9   7  13   14.67    1.15
   7 -13  -9   11.90    1.45
   7  13 -11    7.50    1.40
   7 -13  11    8.11    1.31
  13  11  -7    9.03    1.41
  11  -7  13   11.08    1.23
  -7 -13 -11    7.08    1.07
  11   7 -13    9.34    1.33
  13 -11   7    9.21    1.44
  13  11   7    5.03    1.00
   7 -13 -11    7.96    1.29
  13 -11  -7    9.33    1.39
  11  -7 -13    8.78    1.26
   1  -9  13    5.44    0.91
   9  13  -1    4.82    1.09
  13  -1   9    3.82    0.90
  13   1  -9    5.21    1.05
  -1  -9 -13    4.40    0.68
   9 -13   1    5.66    1.14
   9 -13  -1    3.72    1.14
  13   1   9    4.12    0.89
  -1  -9  13    3.24    0.83
  13  -1  -9    7.07    1.12
   9  13   1    4.07    1.04
   1  -9 -13    4.92    0.74
  -3  -9 -13    4.38    0.67
   3  -9  13    4.48    0.85
  13  -3   9    2.84    0.88
  13   3  -9    4.23    0.98
   9 -13   3    3.47    1.03
   9  13  -3    4.34    1.06
   3  -9 -13    3.91    0.76
  13  -3  -9    5.12    1.03
   9  13   3    3.54    0.99
   9 -13  -3    5.42    1.12
  13   3   9    2.78    0.80
   9 -13   5   48.45    2.59
   9  13  -5   43.88    2.54
  13   5  -9   47.66    2.51
   5   9 -13   43.93    2.39
   5  -9  13   46.42    2.29
  -5  -9 -13   48.00    1.96
   9 -13  -5   42.50    2.52
  13   5   9   46.82    2.23
   5  -9 -13   46.44    2.20
  13  -5  -9   46.12    2.46
   9  13   5   47.75    2.52
  13  -7   9   13.87    1.45
   9  13  -7   14.79    1.62
  13   7  -9   12.15    1.48
  -7  -9 -13   13.41    1.04
   7  -9  13   11.74    1.28
   7   9 -13   13.58    1.45
   9 -13   7   16.42    1.64
   9 -13  -7   13.53    1.55
  13   7   9   11.73    1.21
   7  -9 -13   12.69    1.30
  13  -7  -9   13.72    1.50
  13  -9   9    0.88    0.99
   9  13  -9   -0.27    0.95
   9 -13   9   -0.54    0.91
   9   9 -13    0.14    0.89
  13   9  -9    0.93    0.98
   9  -9  13    0.47    0.88
  13   9   9    0.46    0.83
   9 -13  -9   -1.99    0.95
  13  -9  -9    1.31    1.01
   9  -9 -13    0.89    0.85
   9  13 -11   23.41    2.01
   9 -13  11   23.85    2.01
  11   9 -13   23.75    1.99
  13 -11   9   27.12    2.16
  -9 -13 -11   22.27    1.74
  11  -9  13   20.83    1.77
  13  11  -9   19.25    1.97
   9 -13 -11   22.30    1.97
  11  -9 -13   24.15    1.90
  13  11   9   24.03    1.82
  13 -11  -9   22.64    2.02
  -1 -11 -13   47.75    2.27
  11 -13   1   49.92    2.79
  13  -1  11   54.60    2.41
  13   1 -11   50.20    2.59
  11  13  -1   51.40    2.74
  11  13   1   50.47    2.74
   1 -11 -13   48.04    2.25
  13  -1 -11   47.20    2.53
  11 -13  -1   43.38    2.68
  -1 -11  13   49.52    2.50
  11  13  -3    2.08    1.03
  -3 -11 -13    1.49    0.75
   3 -11  13    0.60    0.39
  13   3 -11    1.91    0.93
  13  -3  11    1.92    0.87
  11 -13   3    2.34    1.11
  13  -3 -11    2.45    0.98
  11  13   3    1.02    0.94
  11 -13  -3    2.98    1.13
  -3 -11  13    1.37    0.91
   3 -11 -13    0.50    0.74
  13   3  11    2.04    0.77
  13   5 -11    7.21    1.24
  11 -13   5    8.81    1.39
  11  13  -5    8.92    1.35
  13  -5  11    7.66    1.08
  -5 -11 -13    8.60    0.93
   5 -11  13    5.72    0.98
  11 -13  -5    8.19    1.41
  13  -5 -11    5.16    1.14
  13   5  11    6.17    0.93
   5 -11 -13    7.88    1.09
  11  13   5    5.48    1.18
   7 -11  13    7.51    1.17
   7  11 -13    9.56    1.36
  11 -13   7    9.34    1.41
  11  13  -7    9.61    1.44
  13   7 -11    7.07    1.26
  13  -7  11    8.88    1.26
  13  -7 -11    5.51    1.24
  13   7  11    7.90    1.06
  11  13   7   10.23    1.30
  11 -13  -7   10.91    1.54
   7 -11 -13    7.86    1.18
   9 -11  13   22.96    1.76
   9  11 -13   24.54    2.01
  13   9 -11   22.05    1.99
  11 -13   9   25.32    2.10
  11  13  -9   21.47    2.06
  13  -9  11   17.22    1.66
  11  13   9   23.34    1.89
  11 -13  -9   20.99    1.98
  13  -9 -11   21.15    1.89
  13   9  11   22.44    1.75
   9 -11 -13   23.46    1.87
  13  11 -11   -1.03    1.02
  11 -13  11    1.01    1.03
  13 -11  11    1.65    1.09
  11  13 -11   -0.35    1.04
  11 -11  13   -0.24    0.62
  11  11 -13    0.04    0.99
  13 -11 -11   -0.73    1.00
  11 -11 -13    0.90    0.98
  11 -13 -11    0.99    1.06
  13  11  11   -0.27    0.85
  -1 -13 -13    1.66    0.84
  13  13  -1    1.06    0.99
   1 -13  13   -1.88    0.83
  13   1 -13   -1.54    0.75
  13 -13   1    0.34    0.96
  13  -1  13   -1.72    0.69
  -1 -13  13   -0.91    0.82
  13  -1 -13    1.58    0.90
  13   1  13   -0.07    0.67
  13 -13  -1   -0.21    1.01
   1 -13 -13   -1.82    0.73
  13  13   1   -1.04    0.89
  -3 -13 -13    1.46    0.91
  13  -3  13    2.15    0.85
  13   3 -13    1.91    0.97
   3 -13  13    1.50    1.00
  13 -13   3    0.09    1.01
  13  13  -3    2.74    1.17
  13  -3 -13    2.73    1.01
  13 -13  -3    0.81    1.10
  -3 -13  13    1.29    0.93
  13   3  13    1.55    0.72
   3 -13 -13    2.84    0.94
  13  13   3    0.22    1.01
  -5 -13 -13   19.05    1.50
  13  13  -5   20.40    1.97
  13   5 -13   22.81    1.92
   5 -13  13   22.74    1.89
  13  -5  13   21.65    1.66
  13 -13   5   20.40    1.94
  13 -13  -5   21.21    2.00
  13  -5 -13   22.29    1.84
   5 -13 -13   19.67    1.67
  -5 -13  13   18.46    1.81
  13  13   5   20.95    1.86
  13   7 -13    1.86    1.03
   7 -13  13    0.65    1.01
   7  13 -13    3.00    1.20
  13  13  -7    2.06    1.14
  13 -13   7    3.64    1.22
  13  -7  13    1.16    0.88
  13  -7 -13    0.50    0.96
  13 -13  -7    2.21    1.16
   7 -13 -13    2.10    1.01
  13  13   7    2.58    1.05
  13  13  -9    0.96    1.09
   9 -13  13    1.16    0.97
   9  13 -13    0.12    1.06
  13   9 -13   -0.26    1.00
  13 -13   9    1.48    1.14
  13  -9  13    0.10    0.92
  13 -13  -9    0.57    1.12
  13  -9 -13   -1.23    0.90
   9 -13 -13    1.46    1.07
  13  13   9   -0.08    0.93
  13  13 -11    0.64    1.14
  11 -13  13    1.03    1.04
  11  13 -13   -0.10    1.14
  13  11 -13   -0.89    0.99
  13 -13  11    1.94    1.21
  13 -11  13   -0.39    0.43
  13 -13 -11    0.74    1.16
  13 -11 -13    0.82    1.10
  11 -13 -13   -0.59    1.03
  13  13  11    0.24    0.92
  13  13 -13    5.13    1.42
  13 -13  13    5.10    1.34
  13 -13 -13    3.78    1.28
   0 -14   0  108.13    4.19
  14   0   0  113.77    4.23
  14  -2   0   46.28    2.43
  14   2   0   52.58    2.50
   0 -14  -2   47.78    2.43
   0 -14   2   54.56    2.55
   2   0 -14   52.62    1.89
  14  -4   0   33.68    1.98
  14   4   0   29.53    1.93
   4   0 -14   30.11    1.49
   0 -14   4   30.28    1.94
   0 -14  -4   35.50    2.02
   0 -14  -6    1.40    0.84
   6   0 -14    1.93    0.61
   0 -14   6    1.67    0.86
  14   6   0    1.10    0.79
  14  -6   0    3.21    0.95
  14  -8   0   31.80    2.15
   0 -14  -8   32.15    1.99
   8   0 -14   30.32    1.73
   8   0  14   30.93    1.36
   0 -14   8   31.50    2.10
  14   8   0   30.49    2.11
   0 -14 -10  166.78    5.72
  10   0 -14  163.44    5.66
  14  10   0  163.31    5.98
   0 -14  10  162.82    5.87
  14 -10   0  158.93    6.00
   0 -14  12   12.99    1.55
  14  12   0   17.57    1.78
  14 -12   0   16.69    1.78
   0 -14 -12   15.79    1.46
  12   0 -14   15.39    1.53
  14   0  -2   52.76    2.54
  14   0   2   55.92    2.56
   2 -14   0   51.46    2.53
  -2 -14   0   51.60    2.54
   0  -2  14   52.35    1.93
   2 -14   2   29.16    1.88
  -2 -14  -2   27.87    1.84
  14   2  -2   28.78    1.85
   2   2 -14   25.36    1.35
  14  -2   2   30.02    1.85
  -2 -14   2   28.39    1.85
  14  -2  -2   28.08    1.83
  14   2   2   30.63    1.85
   2 -14  -2   29.28    1.87
   2  -2 -14   27.96    1.19
   2 -14   4   36.60    2.10
  -2 -14  -4   34.04    2.02
  14  -4   2   37.57    2.09
   4  -2  14   37.12    1.43
  14   4  -2   39.86    2.17
   4   2 -14   38.40    1.73
  -2 -14   4   40.96    2.23
  14  -4  -2   39.72    2.15
   2 -14  -4   42.90    2.19
  14   4   2   33.38    2.03
   4  -2 -14   34.91    1.59
   6   2 -14   19.93    1.44
  -2 -14  -6   24.99    1.75
  14   6  -2   24.54    1.81
   2 -14   6   19.64    1.67
   6  -2  14   22.76    1.11
  14  -6   2   24.57    1.81
  14  -6  -2   20.96    1.69
   6  -2 -14   21.30    1.35
   2 -14  -6   23.58    1.77
  14   6   2   20.15    1.68
  -2 -14   6   24.52    1.81
  14   8  -2   28.79    1.99
  14  -8   2   28.41    2.05
   8   2 -14   29.17    1.71
  -2 -14  -8   25.57    1.82
   2 -14   8   28.27    1.92
   8  -2  14   29.52    1.38
   8  -2 -14   29.13    1.70
   2 -14  -8   24.54    1.92
  14   8   2   30.62    2.03
  14  -8  -2   26.87    2.04
  -2 -14   8   26.13    1.95
  14 -10   2   39.65    2.40
  10   2 -14   38.16    2.08
  10  -2  14   36.96    1.75
  14  10  -2   38.95    2.45
  -2 -14 -10   31.78    2.06
   2 -14  10   40.17    2.32
  -2 -14  10   36.86    2.34
  14 -10  -2   34.59    2.39
  10  -2 -14   38.00    2.07
  14  10   2   37.97    2.43
   2 -14 -10   37.77    2.28
  14  12  -2   34.73    2.45
  14 -12   2   42.94    2.61
  12  -2  14   40.70    1.95
   2 -14  12   37.34    2.34
  -2 -14 -12   35.05    2.21
  12   2 -14   35.96    2.22
   2 -14 -12   37.58    2.23
  14 -12  -2   35.12    2.50
  -2 -14  12   33.41    2.35
  14  12   2   36.83    2.47
  12  -2 -14   39.77    2.24
   4 -14   0   31.46    2.02
  -4 -14   0   35.14    2.01
   0  -4  14   31.44    1.52
  14   0  -4   34.14    2.01
  14   0   4   32.12    1.94
   2   4 -14   36.23    1.76
  14  -2   4   42.80    2.17
  -4 -14  -2   42.17    2.22
   4 -14   2   37.94    2.17
   2  -4  14   36.64    1.61
  14   2  -4   36.09    2.12
   4 -14  -2   40.72    2.23
  14  -2  -4   34.69    2.07
   2  -4 -14   35.72    1.47
  -4 -14   2   40.77    2.16
  14   2   4   34.25    2.02
   4   4 -14  148.56    4.90
  14   4  -4  151.07    5.33
   4 -14   4  147.74    5.30
  14  -4   4  144.68    5.23
  -4 -14  -4  146.88    5.27
   4  -4  14  136.12    4.67
   4  -4 -14  144.42    4.73
  -4 -14   4  145.23    5.31
   4 -14  -4  146.05    5.31
  14  -4  -4  146.12    5.32
  14   4   4  148.91    5.21
   6   4 -14   76.84    2.98
  14   6  -4   77.37    3.31
   4 -14   6   72.04    3.24
  -4 -14  -6   72.80    3.14
   6  -4  14   74.64    2.71
  14  -6   4   70.49    3.22
  -4 -14   6   69.82    3.24
  14  -6  -4   73.20    3.25
   6  -4 -14   77.08    2.86
   4 -14  -6   79.38    3.29
  14   6   4   75.46    3.21
  -4 -14  -8   15.79    1.47
   8  -4  14   12.51    1.02
  14  -8   4   13.99    1.53
  14   8  -4   13.70    1.53
   4 -14   8   15.80    1.58
   8   4 -14   12.64    1.28
  14  -8  -4   14.48    1.53
   8  -4 -14   14.18    1.26
  -4 -14   8   14.17    1.52
   4 -14  -8   14.50    1.54
  14   8   4   13.30    1.41
   4 -14  10   20.40    1.75
  -4 -14 -10   21.46    1.72
  14 -10   4   20.14    1.91
  10  -4  14   20.70    1.44
  10   4 -14   22.79    1.77
  14  10  -4   21.31    1.89
   4 -14 -10   22.38    1.86
  -4 -14  10   20.44    1.81
  14 -10  -4   21.03    1.92
  14  10   4   21.27    1.80
  10  -4 -14   22.64    1.74
  14  12  -4   11.43    1.58
  12  -4  14   12.78    1.23
  12   4 -14   12.04    1.46
  14 -12   4   16.34    1.84
  -4 -14 -12   14.04    1.39
   4 -14  12   13.70    1.56
  -4 -14  12   11.12    1.45
   4 -14 -12   12.23    1.43
  14  12   4   10.79    1.47
  14 -12  -4    9.38    1.48
  12  -4 -14   11.65    1.43
  -6 -14   0    1.72    0.88
  14   0   6    2.72    0.89
   6 -14   0    1.69    0.88
  14   0  -6    1.86    0.90
   0  -6  14    3.06    0.69
  -6 -14  -2   25.04    1.75
   2  -6  14   21.02    1.38
   6 -14   2   22.67    1.81
  14   2  -6   23.63    1.77
  14  -2   6   22.56    1.63
   6 -14  -2   23.04    1.87
   2  -6 -14   23.37    1.19
  14  -2  -6   20.17    1.70
  14   2   6   22.78    1.67
   4   6 -14   71.89    2.93
  14   4  -6   73.01    3.24
  -6 -14  -4   73.07    3.19
  14  -4   6   76.02    3.16
   4  -6  14   72.93    2.77
   6 -14   4   69.78    3.23
   6 -14  -4   69.67    3.27
   4  -6 -14   73.44    2.74
  14  -4  -6   69.70    3.18
  14   4   6   78.93    3.13
  14   6  -6   59.43    2.90
  -6 -14  -6   55.02    2.72
   6 -14   6   56.39    2.82
  14  -6   6   58.78    2.86
   6  -6  14   60.79    2.41
   6   6 -14   58.02    2.61
  14  -6  -6   59.60    2.86
   6 -14  -6   54.85    2.86
   6  -6 -14   56.74    2.43
  14   6   6   54.87    2.66
   8   6 -14    1.28    0.86
  14   8  -6    1.35    0.94
  14  -8   6    1.31    1.02
  -6 -14  -8    1.14    0.88
   8  -6  14    0.21    0.70
   6 -14   8    0.35    0.93
   8  -6 -14    1.63    0.76
   6 -14  -8   -0.44    0.90
  14   8   6    0.99    0.87
  14  -8  -6    0.11    0.91
   6 -14  10   14.66    1.59
  -6 -14 -10   11.68    1.33
  14  10  -6   13.44    1.63
  10  -6  14   13.71    1.28
  14 -10   6   15.31    1.70
  10   6 -14   12.04    1.44
  10  -6 -14   16.81    1.47
  14 -10  -6   14.16    1.67
   6 -14 -10   14.39    1.58
  14  10   6   13.30    1.44
  -6 -14 -12   17.39    1.52
   6 -14  12   18.03    1.75
  14 -12   6   18.82    1.92
  12  -6  14   15.35    1.42
  14  12  -6   16.17    1.79
  12   6 -14   19.36    1.75
   6 -14 -12   15.93    1.65
  12  -6 -14   19.02    1.71
  14 -12  -6   18.75    1.91
  14  12   6   15.82    1.69
  14   0  -8   30.12    2.01
  14   0   8   30.25    1.82
   0  -8  14   32.14    1.77
   8 -14   0   27.72    2.10
   8  14   0   32.89    2.16
   8  14  -2   26.57    2.04
   2  -8  14   27.87    1.67
  14   2  -8   28.43    1.93
   8 -14   2   27.20    2.11
  -2  -8 -14   23.56    1.29
   2  -8 -14   28.71    1.47
  -2  -8  14   29.19    1.71
  14   2   8   26.92    1.76
   8  14   2   26.19    2.02
  14  -2  -8   27.79    1.92
   8 -14  -2   29.14    2.08
  14  -4   8   16.41    1.45
   4  -8  14   14.97    1.26
  14   4  -8   16.66    1.58
   8  14  -4   13.00    1.55
   8 -14   4   14.07    1.56
   4   8 -14   13.12    1.39
   8 -14  -4   13.44    1.56
   4  -8 -14   11.89    1.09
  14   4   8   12.63    1.29
  14  -4  -8   15.36    1.58
  14   6  -8    1.79    0.93
   8  14  -6   -0.27    0.92
   6   8 -14    1.72    0.90
   8 -14   6    2.71    1.08
  14  -6   8    0.16    0.91
   6  -8  14    0.51    0.75
   8 -14  -6   -0.43    0.93
   6  -8 -14    1.03    0.74
  14  -6  -8    0.20    0.88
  14   6   8    1.33    0.79
  14  -8   8    3.46    1.13
   8   8 -14    2.23    0.96
  14   8  -8    2.01    1.01
   8 -14   8    2.82    1.08
   8  -8  14    2.26    0.87
  -8 -14  -8    2.08    0.94
   8  14  -8    1.50    1.08
  14   8   8    1.58    0.83
   8  -8 -14    1.63    0.85
   8 -14  -8    1.73    1.10
  14  -8  -8    0.74    0.93
  14  10  -8   -0.81    0.97
   8  14 -10    0.74    1.11
  10   8 -14    0.26    0.93
  10  -8  14   -0.44    0.82
   8 -14  10    0.41    1.01
  14 -10   8   -2.01    0.95
  -8 -14 -10   -0.44    0.86
  10  -8 -14   -1.02    0.80
  14 -10  -8    0.04    1.04
   8 -14 -10    0.72    1.04
  14  10   8    0.28    0.75
  14 -12   8    5.88    1.39
   8 -14  12    5.67    1.27
  12   8 -14    5.28    1.25
  12  -8  14    4.94    1.03
  14  12  -8    7.80    1.39
  -8 -14 -12    4.26    1.07
   8  14 -12    3.36    1.26
  12  -8 -14    3.33    1.12
   8 -14 -12    8.08    1.37
  14 -12  -8    6.11    1.40
  10  14   0  163.60    5.93
  14   0  10  165.61    5.60
   0 -10 -14  162.63    5.30
   0 -10  14  162.70    5.61
  10 -14   0  155.15    5.94
  14   0 -10  158.23    5.80
  10  14  -2   37.71    2.41
  -2 -10 -14   35.82    1.80
   2 -10  14   41.00    2.06
  14  -2  10   35.10    2.05
  14   2 -10   35.74    2.25
  10 -14   2   35.61    2.45
   2 -10 -14   37.80    1.93
  10 -14  -2   35.79    2.43
  14  -2 -10   38.36    2.30
  10  14   2   37.32    2.34
  10  14  -4   25.84    2.08
  10 -14   4   22.72    1.90
   4 -10  14   19.32    1.54
  14  -4  10   21.07    1.68
  14   4 -10   20.60    1.82
  10 -14  -4   20.60    1.89
  14   4  10   18.49    1.57
   4 -10 -14   18.45    1.55
  14  -4 -10   20.06    1.78
  10  14   4   23.32    1.89
   6 -10  14   13.48    1.37
  10 -14   6   12.00    1.54
  10  14  -6   14.76    1.70
   6  10 -14   15.12    1.53
  14   6 -10   14.16    1.61
  10 -14  -6   16.31    1.75
  14  -6 -10   16.68    1.65
  14   6  10   12.32    1.30
   6 -10 -14   14.15    1.34
  10  14   6   15.86    1.59
  14  -8  10   -1.11    0.89
  10 -14   8    0.93    1.05
  10  14  -8   -0.48    1.03
   8  10 -14    0.26    0.97
  14   8 -10   -0.66    0.94
   8 -10  14   -0.45    0.86
  10 -14  -8   -0.55    1.01
  14  -8 -10   -0.31    0.95
  14   8  10   -0.18    0.81
   8 -10 -14    0.09    0.84
  10 -10  14   18.08    1.60
  10 -14  10   18.90    1.85
  10  14 -10   19.08    1.94
  10  10 -14   16.69    1.71
  14 -10  10   17.52    1.76
  14  10 -10   15.38    1.81
  14  10  10   14.57    1.46
  10 -14 -10   16.58    1.79
  14 -10 -10   16.81    1.77
  10 -10 -14   15.92    1.57
  14  12 -10   13.68    1.77
  12  10 -14   16.28    1.80
  14 -12  10   16.54    1.85
  12 -10  14   12.47    1.52
  10 -14  12   15.41    1.76
  10  14 -12   16.03    1.87
 -10 -14 -12   14.04    1.44
  14  12  10   12.44    1.51
  12 -10 -14   13.52    1.63
  14 -12 -10   14.76    1.76
  10 -14 -12   12.75    1.66
   0 -12  14    9.31    1.24
  12 -14   0   12.23    1.60
  14   0  12   12.13    1.25
  14   0 -12   13.14    1.51
  12  14   0   15.01    1.66
   0 -12 -14   16.37    1.27
  14   2 -12   35.68    2.29
  14  -2  12   34.90    2.04
  12 -14   2   37.61    2.55
  12  14  -2   36.03    2.47
  14   2  12   39.32    2.02
  12  14   2   33.70    2.38
   2 -12 -14   35.94    2.05
  14  -2 -12   37.53    2.28
  12 -14  -2   35.87    2.54
  -2 -12  14   35.98    2.27
  12  14  -4   13.47    1.69
  14  -4  12   11.33    1.29
  14   4 -12   13.90    1.55
  12 -14   4   13.38    1.68
  14   4  12   12.50    1.22
  -4 -12  14   13.42    1.53
  12  14   4   13.04    1.58
   4 -12 -14   12.94    1.36
  14  -4 -12   13.83    1.55
  12 -14  -4   10.32    1.58
  12 -14   6   17.87    1.88
  12  14  -6   15.87    1.79
   6 -12  14   15.51    1.55
  14   6 -12   16.70    1.76
  14  -6  12   21.32    1.70
   6 -12 -14   20.37    1.63
  12  14   6   13.54    1.59
  14   6  12   14.91    1.34
  12 -14  -6   17.26    1.93
  14  -6 -12   15.29    1.70
   8 -12  14    4.74    1.15
   8  12 -14    5.01    1.28
  14  -8  12    5.24    1.20
  12 -14   8    4.19    1.30
  12  14  -8    5.05    1.27
  14   8 -12    5.75    1.30
  12 -14  -8    6.06    1.33
   8 -12 -14    4.16    1.12
  14   8  12    4.99    0.97
  14  -8 -12    2.26    1.15
  10  12 -14   16.51    1.85
  10 -12  14   13.42    1.52
  14  10 -12   14.21    1.74
  12 -14  10   13.51    1.69
  12  14 -10   13.99    1.80
  14 -10 -12   13.70    1.68
  12 -14 -10   15.54    1.82
  10 -12 -14   13.00    1.60
  12  14  10   14.52    1.59
  14  12 -12   12.55    1.76
  12 -14  12   11.59    1.65
  14 -12  12   11.87    1.62
  12  14 -12    8.10    1.62
  12 -12  14    4.84    1.13
  12  12 -14    7.63    1.51
  14 -12 -12    6.85    1.46
  12 -12 -14    6.94    1.39
  12 -14 -12    7.72    1.48
   0 -14 -14  268.89    8.41
   0 -14  14  258.01    8.67
  14 -14   0  258.83    9.00
  14   0 -14  243.15    8.58
  14  14   0  252.42    8.84
  14  14  -2   13.69    1.74
   2 -14  14   13.54    1.58
  14   2 -14   15.19    1.64
  14 -14   2   11.02    1.65
  14 -14  -2   16.46    1.90
  14  -2 -14   13.17    1.56
   2 -14 -14   12.30    1.40
  -2 -14  14   12.48    1.64
  14  14   2   11.57    1.61
  14  14  -4   98.75    4.39
  14   4 -14   97.73    4.16
   4 -14  14   97.72    4.10
  14  -4  14   98.86    3.83
  14 -14   4   95.57    4.41
  14 -14  -4   99.71    4.42
  14  -4 -14  101.26    4.14
   4 -14 -14  104.56    4.03
  -4 -14  14   93.46    4.14
  14  14   4  104.00    4.30
  14  14  -6   36.34    2.53
  14   6 -14   37.74    2.47
   6 -14  14   36.61    2.38
  14  -6  14   34.85    2.13
  14 -14   6   33.23    2.53
  14 -14  -6   33.10    2.61
  14  -6 -14   35.40    2.35
   6 -14 -14   38.11    2.36
  -6 -14  14   36.18    2.44
  14  14   6   39.06    2.47
  14  14  -8    0.69    1.15
  14   8 -14    0.59    1.03
   8 -14  14    1.18    1.02
  14  -8  14   -0.69    0.89
  14 -14   8    0.90    1.15
  14 -14  -8    3.28    1.21
  14  -8 -14    0.38    1.09
   8 -14 -14    0.95    1.05
  14  14   8    0.90    0.94
  14  14 -10   12.34    1.75
  10 -14  14   14.69    1.73
  10  14 -14   10.16    1.68
  14  10 -14   11.94    1.69
  14 -14  10   12.10    1.78
  14 -10  14   16.00    1.65
  14 -14 -10   15.46    1.85
  14 -10 -14   11.61    1.61
  10 -14 -14   13.33    1.64
  14  14  10   11.89    1.52
  14  14 -12   37.86    2.66
  12 -14  14   32.91    2.42
  12  14 -14   34.93    2.65
  14  12 -14   33.09    2.57
  14 -14  12   37.34    2.55
  14 -14 -12   35.61    2.65
  14 -12 -14   34.17    2.46
  12 -14 -14   35.09    2.55
  14  14 -14   48.30    3.06
  14 -14  14   53.05    2.96
  14 -14 -14   45.17    2.99
  -1 -15  -1    9.82    1.25
  15  -1   1    8.52    1.19
  15   1  -1    9.98    1.24
   1 -15   1   10.65    1.29
   1 -15  -1   10.40    1.24
  15  -1  -1   11.83    1.34
  -1 -15   1   10.70    1.33
  15   1   1    9.85    1.24
   1 -15   3   17.06    1.62
   3   1 -15   18.19    1.13
  -1 -15  -3   18.65    1.62
  15  -3   1   18.20    1.61
  15   3  -1   17.72    1.59
   3  -1 -15   18.18    1.06
  15  -3  -1   16.25    1.56
  15   3   1   15.53    1.52
   1 -15  -3   20.11    1.65
  -1 -15   3   17.07    1.60
   1 -15   5   16.34    1.62
   5   1 -15   15.57    1.17
  -1 -15  -5   16.61    1.51
  15   5  -1   15.40    1.49
  15  -5   1   15.68    1.53
  15  -5  -1   13.32    1.48
  15   5   1   17.13    1.58
  -1 -15   5   13.40    1.48
   5  -1 -15   14.98    1.12
   1 -15  -5   14.96    1.50
  -1 -15  -7    0.15    0.86
   7   1 -15    0.24    0.66
  15  -7   1    0.28    0.95
  15   7  -1    0.85    0.87
   1 -15   7    0.66    0.88
   7  -1 -15    0.27    0.63
  15  -7  -1    0.89    0.97
   1 -15  -7   -0.19    0.86
  -1 -15   7   -0.86    0.78
  15   7   1    1.16    0.88
  15  -9   1    6.17    1.24
  15   9  -1    4.78    1.18
   9   1 -15    4.94    0.96
   1 -15   9    5.14    1.16
  -1 -15  -9    2.94    1.03
   9  -1 -15    4.81    0.93
  15  -9  -1    2.55    1.15
  -1 -15   9    4.35    1.10
  15   9   1    3.68    1.08
   1 -15  -9    5.52    1.13
  15 -11   1   11.85    1.65
  15  11  -1   13.60    1.63
   1 -15  11   11.82    1.50
  11   1 -15   12.94    1.37
  -1 -15 -11   13.44    1.47
  11  -1 -15   14.74    1.42
  15 -11  -1   12.53    1.66
   1 -15 -11   15.60    1.51
  -1 -15  11   13.12    1.58
  15  11   1   12.12    1.58
  -1 -15 -13    1.97    1.02
   1 -15  13    1.49    1.06
  15 -13   1    0.82    1.17
  15  13  -1    2.17    1.19
  13   1 -15    1.24    0.96
  15  13   1    0.89    1.13
  15 -13  -1    0.26    1.13
  13  -1 -15    1.45    0.94
   1 -15 -13    0.46    1.05
  -1 -15  13    1.78    1.10
   3 -15   1   15.15    1.51
  15   1  -3   16.66    1.59
  15  -1   3   15.55    1.50
  -3 -15  -1   17.37    1.63
   1  -3  15   17.90    1.04
  -1  -3  15   16.08    1.06
  15  -1  -3   17.36    1.60
  15   1   3   20.99    1.66
  -3 -15   1   17.60    1.58
   3 -15  -1   18.62    1.61
  -3 -15  -3    4.31    0.98
   3 -15   3    3.01    0.92
   3   3 -15    4.02    0.69
   3  -3  15    3.33    0.54
  15  -3   3    6.05    1.04
  15   3  -3    4.10    1.03
   3  -3 -15    3.35    0.53
  -3 -15   3    4.10    1.01
  15  -3  -3    3.38    0.95
   3 -15  -3    2.94    0.96
  15   3   3    3.11    0.92
  15   5  -3   45.99    2.50
  15  -5   3   47.31    2.44
   5   3 -15   40.81    2.05
  -3 -15  -5   48.05    2.48
   5  -3  15   46.29    1.78
   3 -15   5   44.82    2.46
  15  -5  -3   45.95    2.46
  -3 -15   5   44.65    2.50
   5  -3 -15   46.11    1.94
  15   5   3   45.97    2.45
   3 -15  -5   42.04    2.44
   3 -15   7    5.28    1.14
  -3 -15  -7    5.90    1.16
  15   7  -3    6.19    1.24
   7   3 -15    6.13    0.95
  15  -7   3    5.92    1.12
   7  -3  15    5.31    0.66
  15  -7  -3    6.00    1.16
  -3 -15   7    5.50    1.21
   3 -15  -7    7.42    1.24
   7  -3 -15    5.23    0.85
  15   7   3    5.69    1.14
  15  -9   3    2.16    1.06
  15   9  -3    0.88    0.95
  -3 -15  -9    1.25    0.90
   9   3 -15    1.00    0.80
   3 -15   9    1.90    0.94
   3 -15  -9    1.98    1.00
   9  -3 -15    1.60    0.79
  -3 -15   9    0.57    0.97
  15  -9  -3    0.71    1.01
  15   9   3    1.55    0.95
  11   3 -15   18.53    1.65
  -3 -15 -11   17.81    1.62
  15 -11   3   17.66    1.81
  15  11  -3   15.13    1.73
   3 -15  11   17.62    1.73
  11  -3 -15   16.60    1.52
  15 -11  -3   14.74    1.75
  15  11   3   16.73    1.73
  -3 -15  11   18.89    1.85
   3 -15 -11   15.32    1.57
  15 -13   3    0.84    1.10
  15  13  -3    1.18    1.17
  13   3 -15    1.46    0.99
  -3 -15 -13    1.00    0.98
   3 -15  13    2.82    1.04
  13  -3 -15    0.19    0.94
   3 -15 -13    2.18    1.05
  15  13   3   -0.64    0.98
  15 -13  -3    1.99    1.19
  -3 -15  13    0.01    0.97
   5 -15   1   19.41    1.72
   1  -5  15   19.01    1.21
  15  -1   5   15.11    1.46
  -5 -15  -1   18.05    1.67
  15   1  -5   17.34    1.66
  -5 -15   1   17.16    1.60
   5 -15  -1   16.31    1.64
  -1  -5  15   15.70    1.19
  15  -1  -5   16.05    1.55
  15   1   5   18.06    1.56
  -5 -15  -3   46.97    2.49
   3   5 -15   43.60    2.12
  15   3  -5   45.90    2.49
   5 -15   3   45.04    2.51
   3  -5  15   44.93    1.96
  15  -3   5   46.62    2.48
   3  -5 -15   45.56    1.84
  15  -3  -5   47.60    2.54
   5 -15  -3   48.51    2.58
  15   3   5   45.29    2.44
  -5 -15   3   47.73    2.54
  15   5  -5   53.24    2.77
   5   5 -15   54.17    2.40
   5 -15   5   50.77    2.69
  -5 -15  -5   46.22    2.64
   5  -5  15   54.34    2.21
  15  -5   5   50.54    2.63
  -5 -15   5   54.23    2.79
   5 -15  -5   50.48    2.78
  15   5   5   57.22    2.70
   5  -5 -15   49.92    2.18
  15  -5  -5   55.58    2.79
  15  -7   5  148.65    5.55
  -5 -15  -7  155.92    5.48
   7   5 -15  146.86    5.23
  15   7  -5  153.42    5.64
   7  -5  15  149.76    4.96
   5 -15   7  146.32    5.54
  15  -7  -5  151.05    5.59
   5 -15  -7  155.73    5.62
  -5 -15   7  144.68    5.58
   7  -5 -15  148.27    5.11
  -5 -15  -9   23.01    1.88
   5 -15   9   24.19    1.97
   9  -5  15   23.13    1.50
  15  -9   5   20.75    1.92
   9   5 -15   20.64    1.70
  15   9  -5   22.58    1.98
   9  -5 -15   19.85    1.67
  15  -9  -5   20.39    1.95
  -5 -15   9   22.76    1.97
   5 -15  -9   22.25    1.90
  15   9   5   25.24    1.91
  15 -11   5   -0.89    0.98
  15  11  -5    0.78    1.00
  -5 -15 -11   -0.48    0.85
  11   5 -15    1.79    0.93
   5 -15  11    0.49    1.02
   5 -15 -11   -0.13    1.02
  11  -5 -15    0.03    0.86
  -5 -15  11    0.70    0.97
  15 -11  -5   -0.43    1.09
  15  11   5   -0.69    0.90
  15  13  -5    3.33    1.30
  15 -13   5    4.59    1.32
   5 -15  13    6.94    1.33
  13   5 -15    5.70    1.26
  13  -5 -15    4.88    1.18
   5 -15 -13    5.66    1.22
  15  13   5    5.95    1.31
  15 -13  -5    5.98    1.41
  -5 -15  13    3.89    1.18
  -7 -15  -1    0.38    0.81
  15   1  -7   -0.24    0.83
  15  -1   7   -0.14    0.79
   7 -15   1   -0.96    0.87
   1  -7  15   -0.07    0.61
  15   1   7    0.27    0.78
  -1  -7  15   -0.22    0.62
  15  -1  -7   -0.78    0.84
   7 -15  -1    0.24    0.95
   1  -7 -15    0.04    0.46
  15   3  -7    6.21    1.19
  15  -3   7    7.25    1.17
  -7 -15  -3    4.40    1.05
   3  -7  15    5.30    0.88
   7 -15   3    6.71    1.23
   3  -7 -15    5.04    0.74
   7 -15  -3    6.38    1.23
  15  -3  -7    7.52    1.21
  15   5  -7  148.44    5.53
   7 -15   5  149.48    5.55
   5   7 -15  146.91    5.21
   5  -7  15  146.45    5.04
  15  -5   7  153.66    5.47
  -7 -15  -5  155.90    5.52
   7 -15  -5  149.98    5.54
  15  -5  -7  141.17    5.47
   5  -7 -15  149.88    5.02
   7 -15   7   40.56    2.41
   7   7 -15   31.38    2.04
   7  -7  15   34.91    1.84
  -7 -15  -7   37.31    2.23
  15  -7   7   33.31    2.22
  15   7  -7   34.39    2.31
  15  -7  -7   29.00    2.20
   7 -15  -7   31.81    2.29
   7  -7 -15   29.59    1.87
   7 -15   9    9.02    1.46
   9   7 -15   11.00    1.37
   9  -7  15    8.57    1.09
  15  -9   7    7.50    1.39
  15   9  -7    9.30    1.44
  -7 -15  -9   10.98    1.39
  15   9   7    9.25    1.33
  15  -9  -7   11.44    1.55
   7 -15  -9    9.54    1.45
   9  -7 -15    8.30    1.19
  15  11  -7   14.92    1.76
  15 -11   7   12.70    1.71
   7 -15  11   12.51    1.63
  -7 -15 -11   13.73    1.46
  11  -7  15   13.78    1.35
  11   7 -15   13.63    1.58
  11  -7 -15   14.12    1.50
  15 -11  -7   18.22    1.95
   7 -15 -11   10.87    1.53
  15  11   7   15.65    1.63
  13  -7  15    5.78    1.13
   7 -15  13    7.16    1.42
  15  13  -7   10.69    1.69
  15 -13   7    7.61    1.58
  13   7 -15   11.43    1.50
  15  13   7    8.06    1.37
  13  -7 -15    8.38    1.41
  15 -13  -7    7.57    1.53
   7 -15 -13    8.51    1.43
   9  15  -1    4.69    1.22
   1  -9  15    5.86    0.98
   9 -15   1    5.78    1.16
  15  -1   9    4.73    1.03
  15   1  -9    5.05    1.14
  -1  -9  15    5.37    1.00
  15   1   9    7.74    1.12
   9 -15  -1    7.00    1.31
  15  -1  -9    4.94    1.18
   9  15   1    4.07    1.20
   9  15  -3   -0.60    0.93
   9 -15   3   -0.26    0.90
  15   3  -9    2.32    0.98
   3  -9  15    1.05    0.77
  15  -3  -9    1.59    0.98
  15   3   9    0.43    0.79
   9 -15  -3    2.07    1.05
  -3  -9  15    1.69    0.81
   3  -9 -15    2.31    0.73
  15   5  -9   20.20    1.83
   5   9 -15   20.38    1.73
   9 -15   5   22.79    2.01
  15  -5   9   23.76    1.77
   9  15  -5   22.11    2.02
   5  -9  15   21.84    1.66
  15  -5  -9   20.67    1.86
   9 -15  -5   27.27    2.15
  15   5   9   21.07    1.73
   5  -9 -15   21.15    1.58
  -9 -15  -7    6.63    1.27
   9 -15   7    7.89    1.42
   9  15  -7   11.31    1.56
   7   9 -15   10.91    1.42
  15  -7   9   12.29    1.50
   7  -9  15    9.52    1.23
  15   7  -9    6.91    1.37
   7  -9 -15    9.65    1.16
  15  -7  -9    8.09    1.37
   9 -15  -7    9.31    1.52
  15   7   9    8.44    1.21
   9   9 -15   46.79    2.55
  15  -9   9   41.76    2.54
  -9 -15  -9   45.02    2.46
   9  15  -9   41.24    2.70
   9 -15   9   42.68    2.65
   9  -9  15   45.44    2.38
  15   9  -9   44.14    2.69
   9 -15  -9   37.19    2.58
   9  -9 -15   44.13    2.40
  15  -9  -9   44.56    2.67
  15   9   9   45.40    2.50
  11  -9  15   -0.46    0.87
  15  11  -9    0.46    1.06
  -9 -15 -11    0.44    0.87
   9 -15  11    0.56    1.10
  11   9 -15   -0.60    0.97
   9  15 -11    0.85    1.22
  15 -11   9    0.39    1.07
  11  -9 -15   -0.69    0.91
  15 -11  -9    1.09    1.20
   9 -15 -11   -2.72    1.00
  15  11   9   -1.09    0.84
  13   9 -15    7.23    1.40
   9  15 -13    7.58    1.56
   9 -15  13    6.38    1.37
  15  13  -9    5.50    1.38
  15 -13   9    8.65    1.57
  13  -9  15    4.99    1.20
   9 -15 -13    5.74    1.38
  13  -9 -15    7.93    1.35
  15 -13  -9    8.56    1.60
  15  13   9    7.09    1.30
  15   1 -11   11.84    1.48
   1 -11  15   11.82    1.38
  15  -1  11   11.02    1.31
  11 -15   1   16.81    1.80
  11  15  -1   12.48    1.64
  15  -1 -11   12.09    1.50
  -1 -11  15   14.19    1.45
  11  15   1   14.37    1.69
  11 -15  -1   13.78    1.74
  15  -3  11   17.49    1.57
  15   3 -11   13.21    1.60
  11 -15   3   16.38    1.85
   3 -11  15   15.69    1.51
  11  15  -3   15.56    1.80
  11  15   3   12.99    1.65
  15  -3 -11   15.97    1.71
  15   3  11   16.26    1.44
   3 -11 -15   18.30    1.39
  11 -15  -3   19.46    1.93
  11  15  -5   -0.25    1.00
  15  -5  11   -1.06    0.84
  11 -15   5   -0.07    1.01
  15   5 -11    0.51    0.97
   5 -11  15    0.21    0.88
   5 -11 -15    1.43    0.84
  15   5  11    0.13    0.79
  11 -15  -5    0.93    1.10
  15  -5 -11   -0.12    0.93
  11  15   5    0.92    1.02
  11  15  -7   11.30    1.70
  11 -15   7   12.87    1.70
   7 -11  15   14.81    1.48
   7  11 -15   12.78    1.60
  15   7 -11   13.85    1.71
  15   7  11   12.70    1.33
  11 -15  -7   10.66    1.63
  15  -7 -11   14.52    1.65
   7 -11 -15   11.89    1.36
  11  15  -9    0.39    1.15
  15   9 -11   -0.67    1.03
  15  -9  11   -0.39    0.99
   9 -11  15    2.20    1.00
   9  11 -15   -0.84    1.03
  11 -15   9   -0.38    1.03
   9 -11 -15    1.50    0.95
  15  -9 -11    1.19    1.09
  11 -15  -9    3.05    1.22
  15   9  11   -0.65    0.81
  11 -15  11    5.78    1.37
  11  11 -15    3.94    1.26
  15 -11  11    5.34    1.34
  15  11 -11    4.63    1.32
 -11 -15 -11    3.72    1.07
  11 -11  15    5.22    1.20
  11  15 -11    5.41    1.42
  15 -11 -11    3.47    1.24
  11 -11 -15    5.27    1.19
  11 -15 -11    4.66    1.35
  15  11  11    4.67    1.11
  15  13 -11    0.92    1.22
  11 -15  13    1.50    1.18
  13 -11  15    1.38    1.10
  15 -13  11    3.49    1.31
  13  11 -15    3.05    1.20
  11  15 -13    1.89    1.30
  15  13  11    3.67    1.10
  15 -13 -11    3.79    1.35
  11 -15 -13    5.20    1.37
  13 -11 -15    2.32    1.16
  13  15  -1    1.15    1.15
   1 -13  15    0.62    0.50
  15   1 -13    3.14    1.12
  13 -15   1    1.60    1.24
  15  -1  13    0.99    0.88
  15   1  13    0.95    0.84
  15  -1 -13    1.81    1.09
  13 -15  -1    2.09    1.22
  13  15   1    2.16    1.20
  -1 -13  15    3.72    1.13
  15  -3  13    0.53    0.91
  13 -15   3    1.03    1.15
  15   3 -13    2.32    1.06
  13  15  -3    0.73    1.12
   3 -13  15    0.08    0.44
   3 -13 -15    1.73    0.89
  13  15   3    1.47    1.13
  15  -3 -13    0.80    1.01
  -3 -13  15    1.85    1.06
  13 -15  -3    0.42    1.11
   5 -13  15    6.37    1.12
  15   5 -13    4.10    1.21
  15  -5  13    4.59    1.09
  13  15  -5    4.65    1.37
  13 -15   5    4.72    1.39
  13  15   5    3.96    1.24
   5 -13 -15    5.04    1.14
  -5 -13  15    3.70    1.19
  13 -15  -5    5.26    1.43
  15  -5 -13    4.17    1.23
  13 -15   7    9.40    1.65
  15   7 -13    9.68    1.53
  15  -7  13    8.91    1.35
   7 -13  15    9.18    1.35
  13  15  -7    9.41    1.62
   7 -13 -15    6.64    1.26
  13  15   7    9.69    1.48
  15  -7 -13    6.31    1.34
  13 -15  -7    8.87    1.64
  15   9 -13    9.32    1.54
   9 -13  15    6.98    1.30
   9  13 -15    8.24    1.51
  15  -9  13    5.89    1.24
  13 -15   9    4.66    1.41
  13  15  -9    8.32    1.56
  13  15   9    4.88    1.20
   9 -13 -15    8.38    1.37
  15  -9 -13    7.35    1.42
  13 -15  -9    6.50    1.51
  11 -13  15    2.94    1.17
  13  15 -11    0.77    1.24
  15  11 -13    2.39    1.29
  15 -11  13    0.18    0.68
  13 -15  11    2.46    1.27
  11  13 -15    5.70    1.36
  15 -11 -13    2.35    1.22
  11 -13 -15    2.05    1.10
  13 -15 -11    1.84    1.30
  15  13 -13    8.55    1.61
  13 -15  13   11.98    1.72
  15 -13  13    9.71    1.63
  13  15 -13    9.19    1.77
  13 -13  15    6.42    1.36
  13  13 -15    7.25    1.60
  15 -13 -13    8.59    1.58
  13 -13 -15    7.73    1.47
  13 -15 -13    9.06    1.64
  15   1 -15    7.33    1.36
   1 -15  15    5.65    1.30
  15 -15   1    6.61    1.56
  15  15  -1    6.87    1.51
  15  -1 -15    8.26    1.35
  -1 -15  15    6.60    1.34
  15 -15  -1    6.65    1.55
  15  15   1    6.21    1.45
  15   3 -15    1.05    1.08
   3 -15  15    2.65    1.20
  15 -15   3    4.31    1.37
  15  15  -3    3.08    1.32
  15  -3 -15    4.18    1.19
  -3 -15  15    3.21    1.20
  15 -15  -3    3.20    1.36
  15  15   3    4.55    1.28
  15  15  -5   60.87    3.34
  15 -15   5   59.75    3.41
   5 -15  15   61.62    3.13
  15   5 -15   60.29    3.22
  15 -15  -5   63.92    3.43
  15  -5 -15   59.29    3.10
   5 -15 -15   65.97    3.09
  -5 -15  15   54.92    3.13
  15  15   5   55.03    3.22
  15  15  -7   37.22    2.67
  15 -15   7   37.41    2.71
   7 -15  15   38.63    2.45
  15   7 -15   36.26    2.52
  15 -15  -7   39.82    2.76
  15  -7 -15   36.05    2.49
   7 -15 -15   32.09    2.39
  -7 -15  15   33.50    2.48
  15  15   7   36.46    2.49
  15  15  -9    0.83    1.22
   9 -15  15    0.55    1.04
  15 -15   9   -0.13    1.13
  15   9 -15   -0.64    1.05
  15  -9 -15   -0.40    1.11
  15 -15  -9    1.28    1.34
   9 -15 -15    1.23    1.07
  15  15   9   -0.84    0.46
  15  11 -15   12.09    1.74
  11 -15  15    9.78    1.54
  11  15 -15    5.85    1.54
  15  15 -11    9.17    1.70
  15 -15  11   10.41    1.71
  15 -11  15    7.57    1.47
  15 -11 -15    7.48    1.52
  15 -15 -11   11.08    1.85
  11 -15 -15    7.79    1.52
  15  13 -15    0.09    1.19
  13 -15  15   -1.52    1.04
  13  15 -15   -0.41    1.18
  15  15 -13    0.12    1.29
  15 -15  13   -1.08    1.13
  15 -13  15   -0.86    0.74
  15 -13 -15    1.33    1.19
  15 -15 -13   -1.85    1.16
  13 -15 -15    1.29    1.27
  15  15 -15   57.00    3.50
  15 -15  15   54.87    3.27
  15 -15 -15   52.66    3.25
   0 -16   0   34.13    2.17
  16   0   0   32.12    2.14
  16  -2   0  134.18    5.02
  16   2   0  139.03    5.03
   2   0 -16  126.32    4.19
   0 -16   2  127.11    4.95
   0 -16  -2  134.42    4.96
  16  -4   0   46.21    2.54
   4   0 -16   43.12    1.88
  16   4   0   47.47    2.50
   0 -16   4   40.49    2.42
   0 -16  -4   42.53    2.48
   0 -16   6   67.12    3.16
  16  -6   0   61.27    3.07
  16   6   0   67.01    3.14
   0 -16  -6   66.12    3.07
   6   0 -16   63.67    2.60
   0 -16  -8  106.24    4.01
   0 -16   8   94.05    4.02
   8   0 -16   93.89    3.59
  16   8   0   96.08    4.08
  16  -8   0   84.95    3.97
  16 -10   0   91.83    4.06
   0 -16 -10   92.58    3.78
   0 -16  10   88.28    3.90
  10   0 -16   86.27    3.53
  16  10   0   85.49    3.91
  16  12   0   47.25    2.90
  16 -12   0   51.09    2.98
   0 -16 -12   51.69    2.73
  12   0 -16   47.91    2.58
   0 -16  12   51.83    2.88
  16  14   0   39.32    2.69
   0 -16  14   38.56    2.48
  14   0 -16   35.06    2.33
  16 -14   0   39.16    2.78
   0  -2  16  134.24    4.28
  16   0   2  131.00    5.00
  16   0  -2  129.65    5.00
   2 -16   0  139.42    5.07
  -2 -16   0  135.80    5.09
  16  -2   2   44.06    2.43
  -2 -16  -2   41.94    2.40
   2 -16   2   41.41    2.40
   2   2 -16   41.06    1.80
  16   2  -2   41.43    2.40
  16   2   2   43.06    2.39
  16  -2  -2   41.28    2.37
  -2 -16   2   41.98    2.42
   2 -16  -2   42.22    2.37
   2  -2 -16   40.35    1.59
  16   4  -2   -1.31    0.80
   2 -16   4    1.17    0.91
  16  -4   2    0.87    0.95
  -2 -16  -4    0.74    0.90
   4   2 -16    1.48    0.64
  -2 -16   4   -0.24    0.90
   2 -16  -4    0.74    0.97
  16   4   2   -0.76    0.86
  16  -4  -2    0.66    0.95
   4  -2 -16   -0.04    0.50
   6   2 -16   36.14    1.89
  -2 -16  -6   35.49    2.21
  16   6  -2   36.37    2.23
   2 -16   6   33.39    2.24
  16  -6   2   30.71    2.16
  16  -6  -2   37.70    2.33
  16   6   2   33.21    2.22
   2 -16  -6   35.08    2.35
   6  -2 -16   38.18    1.79
  -2 -16   6   38.29    2.35
  -2 -16  -8   27.39    2.01
  16  -8   2   26.04    2.10
   2 -16   8   26.84    2.04
  16   8  -2   23.84    2.07
   8   2 -16   26.75    1.74
  -2 -16   8   23.25    2.04
   2 -16  -8   24.24    2.00
  16   8   2   29.20    2.13
  16  -8  -2   22.43    2.00
   8  -2 -16   24.69    1.64
  16 -10   2    9.47    1.58
  16  10  -2    9.23    1.47
  -2 -16 -10    8.31    1.33
  10   2 -16    9.51    1.23
   2 -16  10   12.57    1.55
  16 -10  -2   10.09    1.52
  -2 -16  10   10.13    1.49
   2 -16 -10    9.41    1.41
  10  -2 -16    9.39    1.24
  16  10   2   11.67    1.52
  12   2 -16   68.16    3.11
   2 -16  12   69.44    3.35
  16  12  -2   70.44    3.48
  -2 -16 -12   62.04    3.11
  16 -12   2   77.60    3.61
  -2 -16  12   67.38    3.33
  16  12   2   64.73    3.37
  12  -2 -16   63.65    3.04
   2 -16 -12   64.13    3.20
  16 -12  -2   68.94    3.50
  14   2 -16    7.88    1.30
   2 -16  14    9.15    1.47
  16  14  -2    9.58    1.63
  16 -14   2    7.37    1.54
  14  -2 -16    6.34    1.26
  16  14   2    8.58    1.52
  16 -14  -2    9.94    1.65
  -2 -16  14    7.75    1.42
   2 -16 -14    9.92    1.42
   4 -16   0   45.82    2.49
  16   0   4   43.18    2.41
   0  -4  16   43.13    1.87
  -4 -16   0   44.18    2.49
  16   0  -4   41.68    2.45
   2  -4  16   -0.37    0.49
   4 -16   2   -0.24    0.91
  16   2  -4   -0.13    0.90
  -4 -16  -2    1.56    0.98
  16  -2   4   -0.82    0.86
  -4 -16   2   -0.73    0.91
   4 -16  -2   -2.16    0.82
  16   2   4    0.10    0.86
  16  -2  -4    2.50    0.91
  16  -4   4   49.04    2.67
  16   4  -4   51.18    2.74
  -4 -16  -4   50.41    2.66
   4 -16   4   49.47    2.63
   4   4 -16   50.70    2.28
  16   4   4   53.45    2.68
   4 -16  -4   49.92    2.78
   4  -4 -16   49.72    2.03
  -4 -16   4   52.85    2.78
  16  -4  -4   50.33    2.71
   4 -16   6   37.53    2.38
  -4 -16  -6   43.63    2.46
  16  -6   4   41.22    2.40
  16   6  -4   38.90    2.44
   6   4 -16   40.67    2.10
   6  -4 -16   37.07    1.88
  16  -6  -4   42.81    2.49
   4 -16  -6   39.58    2.50
  -4 -16   6   34.73    2.39
  16   6   4   38.10    2.31
   4 -16   8   -1.03    0.86
  16  -8   4    0.82    1.01
  16   8  -4   -0.02    0.96
  -4 -16  -8   -0.48    0.88
   8   4 -16    0.38    0.80
   8  -4 -16   -0.07    0.69
  -4 -16   8    0.05    0.94
  16  -8  -4   -0.57    0.95
   4 -16  -8   -0.56    0.90
  16   8   4   -0.53    0.84
  16 -10   4   21.57    2.10
  -4 -16 -10   27.28    2.11
   4 -16  10   27.90    2.14
  16  10  -4   24.80    2.21
  10   4 -16   29.10    1.97
  10  -4 -16   25.92    1.82
  -4 -16  10   29.22    2.19
  16 -10  -4   28.86    2.29
  16  10   4   27.66    2.19
   4 -16 -10   26.56    2.17
  16 -12   4    3.83    1.33
  16  12  -4    4.89    1.37
   4 -16  12    4.51    1.24
  12   4 -16    4.53    1.16
  -4 -16 -12    3.74    1.13
  16  12   4    4.26    1.27
  -4 -16  12    5.36    1.36
  12  -4 -16    3.60    1.04
  16 -12  -4    3.60    1.26
   4 -16 -12    4.36    1.23
  14   4 -16    4.71    1.22
  16 -14   4    6.69    1.45
  16  14  -4    2.54    1.33
   4 -16  14    2.99    1.15
  16  14   4    4.43    1.33
  16 -14  -4    3.22    1.35
  -4 -16  14    2.66    1.20
  14  -4 -16    4.96    1.15
   4 -16 -14    2.16    1.18
  -6 -16   0   66.11    3.17
   6 -16   0   65.48    3.22
  16   0   6   64.38    3.06
   0  -6  16   69.35    2.68
  16   0  -6   68.80    3.18
  16   2  -6   31.70    2.20
  -6 -16  -2   35.11    2.24
  16  -2   6   37.07    2.24
   6 -16   2   34.73    2.35
   2  -6  16   33.48    1.73
  16   2   6   32.54    2.09
   6 -16  -2   34.77    2.29
  -6 -16   2   34.97    2.28
  -2  -6  16   34.30    1.82
  16  -2  -6   33.40    2.23
   4  -6  16   40.75    1.93
   6 -16   4   37.66    2.45
  16   4  -6   38.08    2.37
   4   6 -16   37.68    2.10
  16  -4   6   37.83    2.26
  -6 -16  -4   34.39    2.33
   4  -6 -16   38.37    1.79
  16  -4  -6   37.91    2.39
   6 -16  -4   39.77    2.48
  16   4   6   38.51    2.32
  -6 -16   4   38.45    2.39
   6 -16   6  124.16    4.91
   6  -6  16  121.77    4.27
   6   6 -16  126.49    4.54
  16  -6   6  124.90    4.83
  16   6  -6  123.78    4.90
  -6 -16  -6  121.77    4.79
  16   6   6  126.57    4.74
  -6 -16   6  134.04    5.04
   6 -16  -6  116.01    4.85
   6  -6 -16  122.38    4.33
  16  -6  -6  126.52    4.94
  16   8  -6   35.77    2.52
   8   6 -16   36.29    2.15
  16  -8   6   37.49    2.44
   6 -16   8   36.85    2.46
  -6 -16  -8   36.60    2.34
  16  -8  -6   37.70    2.45
   8  -6 -16   34.90    2.04
  -6 -16   8   38.26    2.47
   6 -16  -8   38.22    2.51
  16   8   6   38.98    2.38
  16  10  -6   20.64    1.98
  10   6 -16   19.87    1.71
   6 -16  10   18.65    1.89
  16 -10   6   21.95    2.03
  -6 -16 -10   19.49    1.74
  16 -10  -6   21.96    2.05
  16  10   6   16.83    1.77
  10  -6 -16   20.14    1.64
  -6 -16  10   25.52    2.20
   6 -16 -10   18.56    1.89
  12   6 -16    8.24    1.38
  -6 -16 -12   12.38    1.39
  16 -12   6   11.41    1.66
  16  12  -6   11.70    1.74
   6 -16  12   12.01    1.66
  12  -6 -16    9.95    1.40
  -6 -16  12    8.58    1.52
   6 -16 -12   12.00    1.57
  16  12   6    9.63    1.49
  16 -12  -6    9.18    1.66
  14   6 -16    9.49    1.52
  16  14  -6    8.41    1.64
   6 -16  14   10.19    1.59
  16 -14   6   10.78    1.78
  16  14   6    8.38    1.51
  16 -14  -6    8.79    1.68
   6 -16 -14   11.25    1.56
  14  -6 -16   10.05    1.48
  -6 -16  14   12.42    1.66
   8 -16   0  100.29    4.28
   0  -8  16  100.00    3.73
  16   0  -8   98.40    4.12
   2  -8  16   27.37    1.68
  16   2  -8   24.22    1.96
   8 -16   2   25.32    2.15
  -8 -16  -2   26.63    2.00
  16  -2   8   23.85    1.88
  16  -2  -8   28.34    2.08
   8 -16  -2   29.82    2.25
  -2  -8  16   26.28    1.77
   8 -16   4   -1.80    0.92
  -8 -16  -4   -0.27    0.88
  16   4  -8    0.31    0.89
   4  -8  16    0.52    0.72
  16  -4   8    0.88    0.97
  16  -4  -8   -1.09    0.85
   8 -16  -4   -0.46    0.97
  16   4   8    0.56    0.55
   8 -16   6   33.71    2.39
  16  -6   8   36.53    2.39
  16   6  -8   35.64    2.43
   6   8 -16   39.87    2.25
   6  -8  16   40.82    2.06
  -8 -16  -6   36.07    2.34
   8 -16  -6   38.87    2.53
   6  -8 -16   36.01    2.03
  16  -6  -8   36.01    2.40
   8 -16   8    0.22    1.03
   8  -8  16   -0.13    0.78
  16  -8   8    1.21    1.09
  -8 -16  -8    1.73    0.98
   8   8 -16    0.92    0.93
  16   8  -8   -0.29    0.98
  16   8   8    0.20    0.39
  16  -8  -8    0.51    1.02
   8  -8 -16    0.98    0.80
   8 -16  -8    0.96    1.11
  16  10  -8    6.75    1.39
  10   8 -16    8.59    1.37
  16 -10   8    9.61    1.57
   8 -16  10   10.41    1.53
  -8 -16 -10    8.09    1.36
  10  -8 -16    9.96    1.33
   8 -16 -10   11.00    1.60
  16 -10  -8   11.32    1.58
  16  12  -8    3.47    1.32
   8 -16  12    3.04    1.24
  -8 -16 -12    3.84    1.12
  12   8 -16    1.34    1.08
  16 -12   8    1.95    1.19
  12  -8 -16    4.03    1.12
   8 -16 -12    2.08    1.20
  16  12   8    3.09    1.00
  16 -12  -8    0.54    1.15
   8 -16  14    0.69    1.11
  16 -14   8   -0.01    1.18
  16  14  -8   -0.14    1.16
  14   8 -16    0.37    1.07
   8 -16 -14    0.11    1.08
  14  -8 -16   -0.33    1.04
  16 -14  -8   -0.66    1.18
  16  14   8   -0.97    0.97
  16   0 -10   90.39    3.88
  10 -16   0   84.82    3.96
  10  16   0   89.62    3.98
  16   0  10   93.55    3.74
   0 -10  16   86.43    3.58
  16   2 -10   13.58    1.58
  10 -16   2    8.03    1.51
  16  -2  10    9.70    1.36
  10  16  -2   10.95    1.60
   2 -10  16   12.87    1.32
  -2 -10  16   12.91    1.40
  10 -16  -2   10.19    1.59
  10  16   2   10.98    1.57
  16  -2 -10   10.30    1.47
  10  16  -4   28.78    2.33
  16   4 -10   29.26    2.17
   4 -10  16   30.38    1.96
  10 -16   4   27.71    2.25
  16  -4 -10   26.04    2.14
  16   4  10   26.49    1.90
  -4 -10  16   28.84    1.96
  10 -16  -4   28.87    2.34
   6  10 -16   20.73    1.79
  16  -6  10   21.45    1.79
  16   6 -10   18.00    1.89
  10 -16   6   21.86    2.07
  10  16  -6   17.68    1.93
   6 -10  16   22.39    1.75
   6 -10 -16   19.40    1.54
  10 -16  -6   19.85    2.07
  16  -6 -10   20.94    1.97
  16  -8  10   11.61    1.52
  16   8 -10   10.14    1.53
  10 -16   8    8.39    1.51
 -10 -16  -8    8.66    1.34
   8 -10  16    9.62    1.26
  10  16  -8    8.66    1.55
   8  10 -16   10.77    1.47
   8 -10 -16   10.09    1.26
  16  -8 -10    8.25    1.52
  16   8  10    6.86    1.18
  10 -16  -8    9.31    1.57
  10  10 -16   14.38    1.66
  16 -10  10   14.69    1.77
 -10 -16 -10   12.11    1.49
  10 -10  16   13.16    1.47
  16  10 -10   12.87    1.76
  10  16 -10   13.74    1.83
  10 -16  10   11.60    1.71
  10 -10 -16   13.25    1.48
  16 -10 -10   15.54    1.85
  10 -16 -10   13.65    1.78
  16  10  10   14.19    1.54
  16  12 -10   12.44    1.75
  12  10 -16   10.07    1.57
  16 -12  10   12.74    1.81
  10 -16  12   11.02    1.61
  10  16 -12   10.70    1.77
  16 -12 -10   10.25    1.68
  12 -10 -16   13.04    1.55
  10 -16 -12    9.73    1.59
  16  12  10   11.88    1.48
  14  10 -16   10.89    1.66
  10 -16  14   13.20    1.72
  10  16 -14    9.57    1.79
  16 -14  10   10.29    1.76
  16  14 -10    9.52    1.66
  10 -16 -14   10.40    1.62
  16 -14 -10    8.74    1.68
  16  14  10   11.32    1.59
  14 -10 -16    8.29    1.47
   0 -12  16   51.58    2.68
  12 -16   0   48.50    2.99
  16   0  12   50.58    2.55
  12  16   0   46.71    2.88
  16   0 -12   49.85    2.75
  12 -16   2   65.62    3.51
  16  -2  12   67.89    3.13
   2 -12  16   71.16    3.16
  12  16  -2   68.58    3.49
  16   2 -12   65.09    3.25
  12 -16  -2   69.67    3.56
  16   2  12   71.15    3.05
  12  16   2   70.56    3.48
  16  -2 -12   68.25    3.30
  16  -4  12    4.89    1.15
   4 -12  16    4.12    1.08
  12  16  -4    0.95    1.19
  16   4 -12    5.00    1.26
  12 -16   4    4.04    1.29
  12  16   4    2.76    1.23
  -4 -12  16    1.26    0.84
  12 -16  -4    2.28    1.18
  16   4  12    4.52    1.00
  16  -4 -12    1.35    1.07
  12  16  -6    9.63    1.66
  16  -6  12    8.55    1.32
  16   6 -12    9.41    1.55
  12 -16   6    9.89    1.66
   6 -12  16   10.08    1.38
  16   6  12   10.17    1.24
  12  16   6   10.63    1.59
  16  -6 -12   10.23    1.57
  12 -16  -6    9.80    1.69
  16   8 -12    2.25    1.18
  16  -8  12    0.04    0.72
  12 -16   8    1.84    1.23
   8 -12  16    1.48    1.03
   8  12 -16    2.99    1.24
  12  16  -8    3.72    1.34
   8 -12 -16    4.16    1.05
  12 -16  -8    0.65    1.17
  16  -8 -12    4.18    1.25
  16  10 -12   11.94    1.70
  12 -16  10   10.46    1.65
  10  12 -16   10.77    1.63
  16 -10  12   11.78    1.55
  10 -12  16   10.06    1.40
  12  16 -10    9.92    1.67
  10 -12 -16    9.56    1.36
  12 -16 -10   11.58    1.72
  16 -10 -12    8.30    1.49
  12  12 -16   20.04    2.07
  12  16 -12   23.33    2.26
  12 -12  16   23.28    2.01
  12 -16  12   21.53    2.13
  16 -12  12   21.88    2.12
  16  12 -12   23.69    2.25
  16 -12 -12   20.04    2.06
  12 -12 -16   19.88    1.92
  12 -16 -12   19.30    2.13
  16  14 -12   13.51    1.95
  14  12 -16   17.40    2.03
  12 -16  14   19.23    2.08
  12  16 -14   20.80    2.21
  16 -14  12   17.73    2.02
  14 -12 -16   16.19    1.81
  16 -14 -12   15.67    2.01
  12 -16 -14   21.30    2.13
  14  16   0   35.26    2.67
  14 -16   0   41.61    2.84
  16   0 -14   37.96    2.51
  14 -16   2    8.70    1.62
  16   2 -14   10.12    1.50
  14  16  -2    9.12    1.69
  16  -2 -14    6.92    1.37
  14 -16  -2   10.39    1.71
  -2 -14  16    5.06    1.29
  14  16   2   11.21    1.70
   4 -14  16    4.12    0.97
  16   4 -14    3.40    1.23
  14  16  -4    4.40    1.46
  14 -16   4    3.90    1.39
  14 -16  -4    2.37    1.35
  -4 -14  16    5.35    1.27
  16  -4 -14    3.72    1.24
  14  16   4    3.98    1.31
  16   6 -14   13.32    1.72
   6 -14  16    9.79    1.51
  16  -6  14   10.05    1.37
  14  16  -6    9.41    1.68
  14 -16   6    9.93    1.73
  -6 -14  16   10.73    1.59
  14  16   6   12.15    1.68
  14 -16  -6   12.18    1.83
  16  -6 -14   11.44    1.59
   8 -14  16   -0.11    1.00
  14 -16   8   -0.45    1.12
  16  -8  14    1.53    1.04
  16   8 -14    0.06    1.11
  14  16  -8   -0.53    1.15
  14 -16  -8   -0.46    1.13
   8 -14 -16   -1.02    0.98
  14  16   8    0.95    1.08
  16  -8 -14   -1.62    1.04
  16  10 -14   10.47    1.68
  14 -16  10    9.93    1.68
  16 -10  14    8.53    1.44
  10 -14  16   10.08    1.48
  10  14 -16   12.67    1.78
  14  16 -10   10.88    1.79
  16 -10 -14    8.68    1.59
  10 -14 -16   10.04    1.54
  14 -16 -10   11.75    1.80
  14  16 -12   19.63    2.23
  16  12 -14   17.62    2.07
  14 -16  12   20.99    2.15
  12  14 -16   14.30    1.96
  12 -14  16   17.19    1.91
  14 -16 -12   19.04    2.16
  16 -12 -14   19.09    2.08
  12 -14 -16   13.89    1.77
  14 -16  14    2.12    1.31
  16  14 -14    3.77    1.47
  16 -14  14    1.86    1.35
  14 -14  16    1.96    1.23
  14  14 -16    1.60    1.38
  14  16 -14    2.82    1.40
  16 -14 -14    1.33    1.32
  14 -14 -16    1.80    1.28
  14 -16 -14    3.72    1.45
   0 -16  16    0.88    1.08
  16 -16   0    0.13    1.22
  16   0 -16   -1.27    0.97
  16  16   0    1.43    1.26
  16   2 -16   80.29    3.70
   2 -16  16   73.55    3.63
  16 -16   2   77.28    3.97
  16  16  -2   78.11    3.91
  16  -2 -16   76.93    3.63
  -2 -16  16   79.67    3.75
  16 -16  -2   71.55    3.92
  16  16   2   84.21    3.90
  16   4 -16   40.85    2.71
  16  16  -4   47.88    3.04
   4 -16  16   43.67    2.72
  16 -16   4   48.95    3.09
  16  -4 -16   48.97    2.78
  -4 -16  16   46.27    2.90
  16 -16  -4   44.31    2.99
  16  16   4   44.41    2.87
  16   6 -16  112.08    4.79
   6 -16  16  114.71    4.69
  16 -16   6  114.77    5.03
  16  16  -6  102.91    4.89
  16 -16  -6  114.97    5.06
  16  -6 -16  114.80    4.72
  -6 -16  16  109.66    4.73
  16  16   6  113.40    4.83
  16   8 -16   23.74    2.22
   8 -16  16   19.68    1.99
  16 -16   8   20.44    2.24
  16  16  -8   16.52    2.08
  16 -16  -8   25.68    2.48
  16  -8 -16   19.46    2.03
  -8 -16  16   19.97    2.10
  16  16   8   24.26    2.14
  16  16 -10    9.89    1.78
  10 -16  16   10.76    1.59
  16  10 -16    9.15    1.67
  16 -16  10   10.62    1.85
  16 -16 -10   13.24    2.02
  16 -10 -16   13.39    1.80
  10 -16 -16   10.51    1.65
  16  16  10    9.79    1.58
  16  12 -16   27.10    2.51
  12 -16  16   24.48    2.27
  12  16 -16   29.21    2.62
  16 -16  12   28.59    2.62
  16  16 -12   30.72    2.73
  16 -12 -16   24.54    2.37
  12 -16 -16   29.62    2.48
  16 -16 -12   28.82    2.61
  16  16 -14   -0.11    1.41
  14 -16  16    0.54    1.20
  14  16 -16    0.48    1.43
  16 -16  14   -0.56    1.30
  16  14 -16    0.73    1.42
  16 -14 -16   -0.04    1.25
  14 -16 -16   -0.87    1.29
  16 -16 -14   -0.55    1.33
  16  16 -16  163.89    6.88
  16 -16 -16  176.75    6.81
  -1 -17  -1    1.04    0.95
  17  -1   1   -0.72    0.88
  17   1  -1    0.23    0.87
   1 -17   1    0.49    0.93
   1 -17  -1   -1.05    0.88
  17  -1  -1    0.24    0.93
  -1 -17   1    0.87    0.88
  17   1   1   -0.85    0.90
   1 -17   3   15.92    1.67
  17  -3   1   11.42    1.46
   3   1 -17   12.69    0.97
  -1 -17  -3   14.84    1.61
  17   3  -1   12.34    1.51
   1 -17  -3   14.32    1.61
  -1 -17   3   15.63    1.63
  17  -3  -1   12.48    1.52
  17   3   1   13.30    1.52
  17   5  -1   -0.17    0.89
  17  -5   1    0.89    0.97
   5   1 -17   -0.59    0.58
   1 -17   5   -0.53    0.92
  -1 -17  -5   -0.37    0.88
  17   5   1    0.49    0.90
   1 -17  -5   -1.57    0.94
  17  -5  -1    0.46    0.99
   5  -1 -17    0.04    0.57
  -1 -17   5    0.29    0.94
   7   1 -17   15.44    1.28
  17  -7   1   13.65    1.66
  -1 -17  -7   17.73    1.72
   1 -17   7   14.64    1.70
  17   7  -1   13.54    1.64
   7  -1 -17   15.10    1.24
  17  -7  -1   15.82    1.71
  -1 -17   7   14.18    1.70
   1 -17  -7   15.99    1.69
  17   7   1   14.49    1.65
  17   9  -1    2.28    1.13
  -1 -17  -9    3.83    1.18
   1 -17   9    2.90    1.16
   9   1 -17    5.92    1.04
  17  -9   1    5.00    1.32
  17   9   1    3.79    1.20
  17  -9  -1    4.09    1.26
  -1 -17   9    4.12    1.27
   1 -17  -9    4.53    1.19
   9  -1 -17    2.99    0.91
  17 -11   1   -0.31    1.07
   1 -17  11    1.64    1.12
  11   1 -17    2.50    0.98
  17  11  -1    1.77    1.21
  -1 -17 -11    1.32    1.10
  17  11   1    1.78    1.17
  11  -1 -17    2.27    0.95
   1 -17 -11    0.95    1.08
  -1 -17  11    3.18    1.17
  17 -11  -1    0.49    1.19
  17  13  -1    1.35    1.20
   1 -17  13    3.08    1.20
  -1 -17 -13    0.91    1.07
  17 -13   1   -0.11    1.13
  13   1 -17   -0.60    0.92
  -1 -17  13    1.78    1.09
  17 -13  -1    0.06    1.19
  17  13   1    1.35    1.17
  13  -1 -17    0.53    0.91
   1 -17 -13    0.89    1.05
  17 -15   1    3.33    1.43
  17  15  -1    4.26    1.37
  15   1 -17    2.97    1.10
   1 -17  15    7.34    1.45
  15  -1 -17    5.75    1.29
  17  15   1    4.59    1.45
  17 -15  -1    6.71    1.59
  -1 -17  15    4.53    1.34
   3 -17   1   17.70    1.69
  17  -1   3   16.41    1.63
  -3 -17  -1   12.07    1.52
  17   1  -3   15.81    1.67
   3 -17  -1   13.20    1.54
  17  -1  -3   14.82    1.59
  17   1   3   10.99    1.42
  -3 -17   1   13.69    1.54
   3   3 -17    4.61    0.78
  17  -3   3    4.18    1.15
  -3 -17  -3    3.37    1.09
   3 -17   3    4.34    1.15
  17   3  -3    2.72    1.07
   3 -17  -3    3.62    1.20
  -3 -17   3    1.94    1.07
  17  -3  -3    5.33    1.18
  17   3   3    3.46    1.09
   3 -17   5   48.05    2.73
   5   3 -17   48.89    2.21
  17   5  -3   51.60    2.76
  -3 -17  -5   45.29    2.60
  17  -5   3   44.89    2.59
   3 -17  -5   48.25    2.74
   5  -3 -17   46.38    2.01
  -3 -17   5   45.96    2.74
  17  -5  -3   51.36    2.76
  17   5   3   48.39    2.66
   3 -17   7    4.00    1.24
  17  -7   3    7.06    1.33
  -3 -17  -7    7.67    1.28
   7   3 -17    6.62    1.04
  17   7  -3    7.79    1.38
  -3 -17   7    5.85    1.31
   7  -3 -17    5.91    0.93
   3 -17  -7    5.61    1.33
  17   7   3    5.44    1.23
  17  -7  -3    8.41    1.38
  17  -9   3    0.50    1.07
  17   9  -3    2.49    1.17
   9   3 -17    1.64    0.89
   3 -17   9    2.72    1.15
  -3 -17  -9    1.65    1.03
   9  -3 -17    0.59    0.77
  17   9   3    2.00    1.14
   3 -17  -9    1.90    1.10
  17  -9  -3    0.68    1.04
  -3 -17   9    0.90    1.04
  -3 -17 -11   29.66    2.25
  17  11  -3   29.75    2.45
  17 -11   3   29.40    2.45
  11   3 -17   33.69    2.16
   3 -17  11   29.29    2.36
  17  11   3   29.38    2.32
  17 -11  -3   30.11    2.39
   3 -17 -11   29.27    2.33
  -3 -17  11   33.69    2.41
  11  -3 -17   33.28    2.04
  -3 -17 -13    8.63    1.37
  13   3 -17   10.92    1.46
  17 -13   3   10.65    1.76
  17  13  -3    8.20    1.56
   3 -17  13   10.30    1.59
  13  -3 -17    9.32    1.34
  -3 -17  13    9.16    1.60
   3 -17 -13    8.12    1.38
  17 -13  -3    8.07    1.62
  17  13   3   11.43    1.65
  17  15  -3   14.02    1.90
  15   3 -17   15.39    1.78
   3 -17  15   16.36    1.84
  17 -15   3   14.63    1.97
  17 -15  -3   14.77    1.95
  -3 -17  15   12.49    1.77
  15  -3 -17   16.02    1.72
  17  15   3   15.96    1.91
  17  -1   5   -0.34    0.91
  17   1  -5    0.40    0.93
   5 -17   1   -0.59    0.90
   1  -5  17   -0.26    0.56
  -5 -17  -1   -0.46    0.89
  -5 -17   1   -0.15    0.87
  17  -1  -5   -0.85    0.85
  -1  -5  17    0.84    0.60
  17   1   5    0.30    0.91
   5 -17  -1    1.02    1.02
  -5 -17  -3   48.95    2.72
  17   3  -5   46.27    2.66
   5 -17   3   45.07    2.65
  17  -3   5   48.16    2.66
  -5 -17   3   49.91    2.73
  17  -3  -5   50.84    2.73
  17   3   5   46.67    2.60
   5 -17  -3   43.92    2.68
  17   5  -5  133.82    5.25
  -5 -17  -5  131.51    5.12
   5   5 -17  139.97    4.77
   5 -17   5  131.98    5.21
  17  -5   5  135.18    5.20
   5 -17  -5  130.75    5.21
  17  -5  -5  132.21    5.20
  17   5   5  142.89    5.18
  -5 -17   5  127.14    5.19
  17  -7   5   70.61    3.34
   5 -17   7   67.06    3.32
  -5 -17  -7   61.22    3.14
   7   5 -17   65.83    2.94
  17   7  -5   63.03    3.34
  17  -7  -5   65.04    3.32
  -5 -17   7   65.19    3.36
   5 -17  -7   73.33    3.46
   7  -5 -17   67.18    2.80
  17   7   5   69.95    3.26
   9   5 -17    1.56    0.92
  17   9  -5    1.12    1.07
  17  -9   5    2.31    1.20
   5 -17   9    3.14    1.21
  -5 -17  -9    0.06    1.02
   5 -17  -9   -0.02    1.04
  17   9   5    1.10    1.03
   9  -5 -17    2.82    0.90
  -5 -17   9    1.48    1.07
  17  -9  -5    1.60    1.10
  17 -11   5    0.09    1.11
   5 -17  11   -0.90    1.05
  11   5 -17    0.42    0.95
  -5 -17 -11    0.28    0.95
  17  11  -5   -0.04    1.15
  17 -11  -5   -0.34    1.08
   5 -17 -11   -0.96    1.01
  -5 -17  11    0.57    1.10
  11  -5 -17    0.08    0.84
  17  11   5   -0.31    1.01
  13   5 -17    6.07    1.27
   5 -17  13    4.60    1.34
  17  13  -5    5.35    1.44
  17 -13   5    6.38    1.53
   5 -17 -13    7.59    1.41
  -5 -17  13    6.82    1.43
  17  13   5    6.61    1.43
  13  -5 -17    7.32    1.24
  17 -13  -5    4.14    1.40
  17  15  -5   47.18    3.09
  15   5 -17   51.81    2.92
   5 -17  15   52.70    2.97
  17 -15   5   48.49    3.18
  17  15   5   48.10    3.01
  17 -15  -5   49.85    3.18
  -5 -17  15   50.07    2.99
  15  -5 -17   48.00    2.79
   7 -17   1   16.45    1.76
  -7 -17  -1   16.08    1.78
  17   1  -7   15.13    1.65
  17  -1   7   15.33    1.61
   1  -7  17   17.24    1.41
  -1  -7  17   18.38    1.47
  17   1   7   15.42    1.61
  -7 -17   1   11.34    1.53
   7 -17  -1   16.88    1.81
  17  -1  -7   14.32    1.64
   7 -17   3    7.50    1.39
   3  -7  17    6.22    0.92
  -7 -17  -3    3.82    1.17
  17  -3   7    5.00    1.20
  17   3  -7    6.46    1.27
  17  -3  -7    6.87    1.30
  -7 -17   3    5.39    1.26
  -3  -7  17    6.22    0.99
  17   3   7    7.08    1.23
   7 -17  -3    7.01    1.39
  17  -5   7   61.64    3.12
  17   5  -7   65.06    3.27
   7 -17   5   63.60    3.31
   5   7 -17   66.22    2.93
  -7 -17  -5   59.13    3.11
  17  -5  -7   69.79    3.31
   7 -17  -5   65.56    3.36
  17   5   7   65.56    3.12
  -7 -17   5   64.95    3.32
  -7 -17  -7   37.47    2.39
  17   7  -7   32.70    2.40
  17  -7   7   34.94    2.42
   7 -17   7   32.91    2.43
   7   7 -17   35.45    2.16
  -7 -17   7   29.60    2.34
   7 -17  -7   29.64    2.42
  17  -7  -7   31.83    2.35
  17   7   7   36.73    2.34
   9   7 -17   -0.26    0.91
  -7 -17  -9   -0.01    0.99
  17   9  -7    0.95    1.06
  17  -9   7    1.91    1.20
   7 -17   9    1.60    1.16
   9  -7 -17    0.43    0.84
   7 -17  -9    1.54    1.16
  -7 -17   9    1.05    1.09
  17  -9  -7    2.22    1.14
  17   9   7    1.81    1.01
  17 -11   7   41.62    2.71
  17  11  -7   46.17    2.84
  -7 -17 -11   40.25    2.53
  11   7 -17   43.69    2.54
   7 -17  11   36.48    2.63
  17  11   7   38.44    2.48
  -7 -17  11   40.22    2.71
  11  -7 -17   42.92    2.42
   7 -17 -11   38.79    2.69
  17 -11  -7   38.51    2.70
  17  13  -7    2.32    1.26
   7 -17  13    4.23    1.32
  17 -13   7    3.56    1.37
  13   7 -17    5.28    1.26
  13  -7 -17    2.96    1.07
  17  13   7    3.00    1.19
  17 -13  -7    0.79    1.22
  -7 -17  13    3.06    1.22
   7 -17 -13    4.55    1.31
   7 -17  15   12.74    1.74
  17 -15   7    8.40    1.70
  15   7 -17   12.05    1.69
  17  15  -7   10.21    1.77
  17 -15  -7   11.70    1.94
   7 -17 -15   12.80    1.72
  17  15   7   12.34    1.71
  15  -7 -17   10.21    1.56
  -7 -17  15    9.78    1.66
  17   1  -9    1.53    1.03
   1  -9  17    4.16    0.96
   9 -17   1    3.09    1.21
   9 -17  -1    4.23    1.25
  17   1   9    4.29    1.02
  -1  -9  17    4.32    0.96
  17  -1  -9    4.90    1.25
   3  -9  17    1.75    0.83
  -9 -17  -3    0.63    1.00
  17  -3   9   -0.15    0.88
   9 -17   3    1.30    1.15
  17   3  -9    1.95    1.07
  17  -3  -9    2.14    1.03
  -3  -9  17    1.46    0.81
  17   3   9    1.82    0.90
   9 -17  -3    0.89    1.11
   5  -9  17    0.88    0.82
  -9 -17  -5    0.14    0.91
  17  -5   9    1.28    1.01
   9 -17   5    1.40    1.12
  17   5  -9    0.00    1.00
  17   5   9    1.96    0.95
   9 -17  -5    1.86    1.17
  17  -5  -9    1.68    1.06
   7   9 -17    1.13    1.03
  -9 -17  -7    0.16    0.99
  17  -7   9    1.60    1.08
   9 -17   7   -0.82    1.03
  17   7  -9    0.30    1.01
   9 -17  -7    1.99    1.25
  17  -7  -9   -0.11    1.05
  17   7   9    0.56    0.94
   9 -17   9    5.76    1.43
  -9 -17  -9    3.83    1.20
  17  -9   9    5.44    1.38
   9   9 -17    7.01    1.29
  17   9  -9    3.57    1.27
  17   9   9    5.25    1.17
   9  -9 -17    5.95    1.13
   9 -17  -9    6.00    1.38
  17  -9  -9    5.72    1.45
   9 -17  11    3.20    1.27
  17 -11   9    3.40    1.31
  11   9 -17    2.97    1.19
  -9 -17 -11    1.10    1.03
  17  11  -9    1.90    1.18
   9 -17 -11    0.61    1.18
  11  -9 -17    3.37    1.03
  17 -11  -9    2.60    1.23
  17  11   9    3.34    1.03
  17 -13   9   -1.33    1.04
   9 -17  13    2.08    1.20
  17  13  -9    3.25    1.28
  13   9 -17    0.99    1.09
  13  -9 -17    0.08    1.00
   9 -17 -13   -0.92    1.17
  17 -13  -9    2.42    1.26
  17  13   9    0.00    0.55
  15   9 -17   -1.28    1.06
   9 -17  15    0.76    1.17
  17  15  -9    0.56    1.18
  17 -15   9   -0.31    1.09
  17 -15  -9    2.78    1.54
   9 -17 -15    0.26    1.16
  15  -9 -17    0.23    1.10
  17  15   9   -0.43    0.61
  -9 -17  15    0.57    1.06
  11  17  -1    4.18    1.39
  17  -1  11    1.37    0.97
  11 -17   1    2.74    1.28
  17   1 -11    3.10    1.14
   1 -11  17    3.45    1.01
  11  17   1    1.51    1.23
  17  -1 -11    1.72    1.09
  -1 -11  17    1.80    0.94
  17   1  11   -0.18    0.88
  11 -17  -1    1.93    1.27
  11 -17   3   34.67    2.58
  17   3 -11   27.48    2.24
  11  17  -3   33.79    2.54
   3 -11  17   34.08    2.09
  -3 -11  17   30.86    2.10
  17   3  11   33.01    2.13
  17  -3 -11   31.37    2.31
  11 -17  -3   37.28    2.63
  11  17  -5   -0.98    1.15
  17  -5  11   -0.74    0.89
   5 -11  17    0.99    0.92
  11 -17   5    0.36    1.14
  17   5 -11   -1.18    0.93
  17   5  11    1.36    0.91
  11 -17  -5    0.20    1.05
  17  -5 -11   -0.57    1.02
  -5 -11  17   -0.09    0.70
  11 -17   7   40.60    2.77
  11  17  -7   42.32    2.80
   7  11 -17   39.71    2.57
   7 -11  17   45.29    2.43
  17   7 -11   43.52    2.75
  17   7  11   46.13    2.50
  17  -7 -11   40.54    2.70
  11 -17  -7   38.24    2.78
  11 -17   9    3.00    1.27
   9  11 -17    5.55    1.31
  11  17  -9    2.09    1.31
  17  -9  11    2.64    1.19
  17   9 -11    1.78    1.20
 -11 -17  -9    1.12    1.01
  17  -9 -11    4.52    1.38
  17   9  11    1.01    0.92
  11 -17  -9    0.89    1.25
  17  11 -11   14.57    1.90
  17 -11  11   12.99    1.76
  11 -17  11   16.16    1.89
  11  11 -17   12.52    1.67
  11  17 -11   14.90    1.97
 -11 -17 -11   15.19    1.69
  11 -11 -17   13.48    1.57
  17 -11 -11   16.68    1.93
  17  11  11   11.85    1.51
  11 -17 -11   12.81    1.87
  13  11 -17    1.04    1.24
  17 -13  11    0.60    1.20
  11 -17  13    1.62    1.17
  17  13 -11    2.11    1.27
  11  17 -13    0.12    1.27
  17 -13 -11    1.04    1.23
  13 -11 -17    0.60    1.08
  11 -17 -13    0.48    1.24
  11 -17  15    8.08    1.53
  17  15 -11    4.07    1.51
  15  11 -17    6.22    1.53
  17 -15  11    3.19    1.42
  17 -15 -11    9.76    1.80
  11 -17 -15    5.08    1.42
  15 -11 -17    6.10    1.41
  17   1 -13    0.91    1.00
  13 -17   1    0.33    1.17
  13  17  -1    1.83    1.25
   1 -13  17    1.65    0.98
  17  -1  13   -0.46    0.91
  17  -1 -13    1.40    1.06
  13  17   1    0.50    1.19
  13 -17  -1   -0.32    1.10
  -1 -13  17    0.12    0.96
  17   3 -13    9.33    1.50
  17  -3  13    7.38    1.29
  13 -17   3   12.11    1.80
   3 -13  17    8.97    1.35
  13  17  -3   10.33    1.66
  13  17   3    9.34    1.56
  17  -3 -13    8.99    1.51
  13 -17  -3   12.21    1.81
  17   5 -13    6.14    1.36
   5 -13  17    5.87    1.23
  17  -5  13    2.69    1.09
  13 -17   5    6.01    1.56
  13  17  -5    8.45    1.56
  -5 -13  17    3.59    1.19
  13 -17  -5    5.03    1.41
  17  -5 -13    5.99    1.37
  13  17   5    7.07    1.48
   7 -13  17    3.34    1.14
  13  17  -7    2.73    1.31
  13 -17   7    2.45    1.31
  17  -7  13    1.95    1.08
  17   7 -13    0.25    1.14
  17  -7 -13    2.53    1.22
  13 -17  -7    1.88    1.38
   9 -13  17   -0.34    0.94
  13 -17   9   -0.26    1.15
   9  13 -17    0.19    1.11
  13  17  -9    1.65    1.22
  17   9 -13    2.52    1.26
  17  -9  13    0.26    0.94
  13 -17  -9    0.24    1.13
  17  -9 -13    0.87    1.15
  13 -17  11    0.49    1.20
  13  17 -11    0.68    1.26
  17 -11  13   -0.42    1.03
  11  13 -17    1.30    1.27
  17  11 -13    2.41    1.30
  13 -17 -11    2.19    1.37
  17 -11 -13    0.04    1.13
  13  13 -17    2.09    1.34
  17  13 -13    3.26    1.43
  13  17 -13    2.25    1.44
  17 -13  13    0.20    1.27
  13 -17  13    0.23    1.21
  13 -13 -17    1.78    1.19
  13 -17 -13    3.77    1.43
  17 -13 -13    1.93    1.28
  13 -17  15    5.54    1.51
  17 -15  13    2.79    1.45
  13  17 -15    2.93    1.61
  15  13 -17    3.06    1.52
  17  15 -13    2.33    1.54
  17 -15 -13    5.17    1.63
  13 -17 -15    5.54    1.61
  15 -13 -17    6.53    1.53
  15  17  -1    6.21    1.55
  17   1 -15    3.98    1.30
  15 -17   1    4.72    1.49
  17  -1 -15    4.95    1.33
  15  17   1    5.15    1.47
  15 -17  -1    2.04    1.29
  -1 -15  17    4.13    1.24
  17   3 -15   15.74    1.82
  15 -17   3   15.08    1.95
  15  17  -3   13.82    1.93
  15  17   3   11.84    1.79
  17  -3 -15   14.76    1.76
  15 -17  -3   12.65    1.96
  -3 -15  17   15.05    1.77
  15 -17   5   44.22    3.05
  17   5 -15   48.00    2.95
   5 -15  17   46.34    2.72
  15  17  -5   45.10    3.05
  15  17   5   43.98    2.95
  -5 -15  17   52.78    2.94
  17  -5 -15   48.98    2.88
  15 -17  -5   52.33    3.21
   7 -15  17   12.06    1.57
  15 -17   7   12.41    1.87
  17   7 -15   12.39    1.76
  15  17  -7   12.86    1.91
  17  -7 -15   11.32    1.68
  15 -17  -7   14.78    2.04
  15  17   7   11.45    1.70
  -7 -15  17   11.05    1.65
  17   9 -15    1.34    1.21
  15 -17   9    0.74    1.28
  15  17  -9    0.15    1.26
   9 -15  17    0.47    1.02
  15  17   9    0.14    0.90
  15 -17  -9    0.94    1.37
  17  -9 -15    2.16    1.25
  15 -17  11    6.36    1.60
  15  17 -11    3.80    1.57
  17  11 -15    6.66    1.56
  11  15 -17    7.51    1.64
  17 -11 -15    4.21    1.45
  15 -17 -11    5.25    1.65
  13  15 -17    5.29    1.59
  17  13 -15    4.11    1.61
  15  17 -13    6.43    1.73
  15 -17  13    5.02    1.52
  17 -13 -15    5.29    1.49
  15 -17 -13    7.02    1.78
  17 -15  15   13.32    1.97
  15 -17  15   15.00    2.05
  17  15 -15    8.41    1.97
  15  15 -17   17.88    2.21
  15  17 -15   12.24    2.10
  17 -15 -15   14.59    2.05
  15 -17 -15   15.12    2.10
  15 -15 -17   10.32    1.83
  17   1 -17    4.20    1.31
   1 -17  17    1.83    1.17
  17 -17   1    2.02    1.42
  17  17  -1    0.20    1.25
  17  -1 -17    2.90    1.19
  -1 -17  17    1.82    1.14
  17 -17  -1    5.90    1.52
  17  17   1    1.56    1.25
  17   3 -17    1.96    1.23
  17  17  -3    0.73    1.23
   3 -17  17    3.21    1.20
  17 -17   3   -0.57    1.22
  17  -3 -17    2.36    1.21
  -3 -17  17    3.94    1.27
  17 -17  -3   -0.12    1.19
  17  17   3    3.46    1.37
  17   5 -17   44.46    2.88
  17  17  -5   44.98    3.04
   5 -17  17   43.96    2.77
  17 -17   5   42.07    3.15
  17  -5 -17   50.35    2.86
  -5 -17  17   46.46    2.93
  17 -17  -5   41.21    3.07
  17  17   5   44.76    2.97
  17   7 -17    1.98    1.28
   7 -17  17    3.06    1.20
  17 -17   7    1.54    1.39
  17  17  -7    3.21    1.45
  17 -17  -7    2.51    1.44
  17  -7 -17    2.72    1.26
  -7 -17  17    1.95    1.18
  17  17   7    1.38    1.25
  17   9 -17   -0.46    1.22
   9 -17  17    0.74    0.99
  17 -17   9    0.03    1.36
  17  17  -9   -1.62    1.24
  17 -17  -9   -0.13    1.41
  -9 -17  17    0.52    1.09
  17  -9 -17    1.00    1.21
  17  17   9   -1.62    1.12
  17  11 -17   17.21    2.10
  17  17 -11   10.19    1.90
  17 -17  11   12.93    2.08
  17 -17 -11   15.10    2.20
  17 -11 -17   13.54    1.86
  13  17 -17   -1.68    1.37
  17  17 -13   -2.14    1.37
  17  13 -17    0.40    1.36
  17 -17  13   -0.99    1.24
  17 -13 -17    0.62    1.32
  17 -17 -13    0.34    1.44
  15  17 -17    3.62    1.79
  17  17 -15    4.24    1.68
  17 -17  15    4.43    1.59
  17  15 -17    3.65    1.74
  17 -15 -17    7.45    1.76
  17 -17 -15    8.77    1.95
  17  17 -17    7.14    1.90
   0 -18   0   98.98    4.09
  18   0   0   89.79    3.98
   0 -18  -2   20.73    1.90
   0 -18   2   21.19    1.92
  18  -2   0   23.69    2.01
  18   2   0   26.05    2.04
  18   4   0   12.64    1.58
   0 -18  -4   13.52    1.62
   0 -18   4   14.64    1.71
  18  -4   0   12.54    1.56
   0 -18  -6    2.41    1.19
  18  -6   0    1.55    1.11
  18   6   0    2.88    1.15
   0 -18   6    2.42    1.20
  18  -8   0    0.45    1.08
   0 -18  -8    2.20    1.09
   8   0 -18    0.93    0.79
   0 -18   8    1.44    1.09
  18   8   0    1.15    1.10
  10   0 -18   42.47    2.26
  18  10   0   43.41    2.79
   0 -18  10   41.95    2.67
  18 -10   0   41.98    2.81
   0 -18 -10   38.73    2.55
   0 -18 -12    0.77    1.17
  18 -12   0   -0.62    1.15
  12   0 -18    0.27    0.86
  18  12   0   -0.08    1.14
   0 -18  12    1.49    1.15
  14   0 -18   10.77    1.45
  18 -14   0   10.92    1.84
  18  14   0   10.88    1.72
   0 -18  14    8.41    1.56
   0 -18  16   25.70    2.27
  16   0 -18   19.87    1.98
  18 -16   0   22.82    2.47
  18  16   0   20.87    2.26
  -2 -18   0   20.56    1.93
  18   0  -2   20.47    1.89
  18   0   2   22.70    1.98
   2 -18   0   25.07    2.10
  18  -2   2    9.34    1.39
   2 -18   2   10.89    1.54
  18   2  -2    8.51    1.40
  -2 -18  -2    9.19    1.43
  18   2   2   10.21    1.43
   2 -18  -2    7.78    1.42
  18  -2  -2    7.86    1.35
  -2 -18   2    6.79    1.40
  18  -4   2   16.37    1.72
   2 -18   4   17.57    1.83
  18   4  -2   16.32    1.73
  -2 -18  -4   13.12    1.65
  18  -4  -2   18.34    1.85
  18   4   2   16.93    1.71
  -2 -18   4   14.84    1.77
   2 -18  -4   19.31    1.84
  18  -6   2   11.92    1.62
  18   6  -2   12.82    1.66
  -2 -18  -6   11.87    1.53
   6   2 -18   10.07    1.14
   2 -18   6   13.83    1.72
  -2 -18   6   12.14    1.69
   2 -18  -6   12.29    1.63
  18   6   2   13.94    1.60
  18  -6  -2   10.79    1.58
   8   2 -18    2.59    0.89
  -2 -18  -8    3.71    1.20
   2 -18   8    4.63    1.31
  18   8  -2    1.38    1.07
  18  -8   2    2.23    1.20
   2 -18  -8    3.40    1.22
  18   8   2    2.80    1.19
   8  -2 -18    2.67    0.84
  18  -8  -2    3.29    1.15
  -2 -18   8    2.30    1.07
  18  10  -2    8.97    1.59
  10   2 -18   14.65    1.44
   2 -18  10    9.02    1.55
  18 -10   2    7.90    1.59
  -2 -18 -10   11.40    1.55
  18  10   2    8.62    1.46
  -2 -18  10    9.99    1.61
  10  -2 -18   10.80    1.27
  18 -10  -2   12.64    1.72
   2 -18 -10   12.01    1.62
   2 -18  12    6.97    1.43
  12   2 -18    7.84    1.27
  18  12  -2    7.08    1.53
  18 -12   2    4.25    1.43
  -2 -18 -12    6.79    1.32
   2 -18 -12    7.54    1.39
  12  -2 -18    6.46    1.17
  -2 -18  12    5.93    1.38
  18 -12  -2    7.80    1.60
  18  12   2    6.94    1.46
  18  14  -2    1.60    1.26
   2 -18  14    0.52    1.09
  18 -14   2   -1.30    1.11
  14   2 -18    1.63    1.04
  14  -2 -18   -0.86    0.88
  18 -14  -2   -1.01    1.11
  -2 -18  14    2.13    1.18
  18  14   2    0.76    1.20
  18 -16   2    1.52    1.34
  18  16  -2    2.38    1.36
  16   2 -18    3.30    1.15
   2 -18  16    2.58    1.20
  18  16   2    4.70    1.45
  -2 -18  16    5.53    1.40
  16  -2 -18    2.40    1.13
  18 -16  -2    0.73    1.25
  18   0  -4   13.50    1.63
  -4 -18   0   12.98    1.63
  18   0   4   11.74    1.53
   4 -18   0   13.11    1.63
   4 -18   2   18.00    1.84
  18  -2   4   15.95    1.73
  18   2  -4   17.42    1.79
  -4 -18  -2   17.47    1.80
   4 -18  -2   18.48    1.84
  -4 -18   2   15.49    1.72
  18   2   4   17.13    1.75
  18  -2  -4   18.52    1.82
  18  -4   4   71.12    3.40
   4 -18   4   67.08    3.36
  -4 -18  -4   71.41    3.44
  18   4  -4   65.67    3.35
   4   4 -18   73.99    2.83
  18   4   4   72.02    3.35
  18  -4  -4   68.21    3.39
  -4 -18   4   68.87    3.42
   4 -18  -4   55.57    3.23
  18   6  -4   32.52    2.37
  18  -6   4   31.67    2.32
   4 -18   6   33.41    2.33
  -4 -18  -6   26.83    2.15
   6   4 -18   31.44    1.92
  -4 -18   6   30.80    2.37
  18  -6  -4   30.24    2.26
  18   6   4   32.02    2.30
   4 -18  -6   29.54    2.36
  -4 -18  -8    0.38    1.02
   8   4 -18    0.27    0.84
  18  -8   4    0.18    1.04
  18   8  -4    0.35    1.07
   4 -18   8   -0.92    0.93
  18  -8  -4   -0.63    1.03
   4 -18  -8    0.34    1.08
  -4 -18   8    1.42    1.08
  18   8   4   -0.12    0.97
  10   4 -18   18.39    1.68
  18  10  -4   21.01    2.10
  18 -10   4   20.62    2.13
   4 -18  10   21.91    2.10
  -4 -18 -10   20.91    1.88
  10  -4 -18   18.70    1.59
   4 -18 -10   23.08    2.11
  -4 -18  10   17.30    2.04
  18 -10  -4   19.66    2.07
  18  10   4   20.97    1.95
   4 -18  12    9.20    1.53
  -4 -18 -12   10.59    1.47
  18 -12   4   10.47    1.78
  18  12  -4   10.31    1.67
  12   4 -18   12.87    1.46
  -4 -18  12   11.04    1.71
  18  12   4    9.60    1.58
  18 -12  -4    9.71    1.70
  12  -4 -18   13.77    1.45
   4 -18 -12   11.21    1.61
   4 -18  14   47.25    3.04
  18 -14   4   54.00    3.31
  14   4 -18   54.45    2.98
  18  14  -4   57.51    3.34
  -4 -18  14   52.49    3.17
   4 -18 -14   56.32    3.06
  14  -4 -18   60.08    2.95
  18 -14  -4   56.56    3.38
  18  14   4   56.84    3.19
  18  16  -4    2.31    1.38
  16   4 -18    1.79    1.23
   4 -18  16    3.03    1.25
  18 -16   4    3.56    1.47
  18 -16  -4    1.00    1.29
  -4 -18  16    2.57    1.19
  16  -4 -18    0.14    1.02
  18  16   4    1.02    1.26
  -6 -18   0    2.56    1.16
   6 -18   0    3.61    1.22
  18   0  -6    2.04    1.11
  18   0   6    3.30    1.18
   6 -18   2   13.74    1.76
  18  -2   6   13.86    1.66
  -6 -18  -2   11.88    1.65
  18   2  -6   12.60    1.64
  18  -2  -6   12.28    1.62
  18   2   6   12.21    1.56
   6 -18  -2   14.29    1.72
  -6 -18   2   11.75    1.58
  -2  -6  18   15.21    1.26
  18   4  -6   30.22    2.25
  -6 -18  -4   25.49    2.18
  18  -4   6   26.37    2.16
   6 -18   4   27.67    2.27
  -6 -18   4   27.57    2.26
  18  -4  -6   31.78    2.30
   6 -18  -4   33.06    2.39
  18   4   6   28.68    2.20
  -6 -18  -6    9.46    1.49
  18   6  -6    8.89    1.43
  18  -6   6    5.30    1.31
   6 -18   6    7.70    1.46
   6   6 -18    6.42    1.14
  -6 -18   6    5.96    1.32
   6 -18  -6    5.40    1.39
  18  -6  -6    7.27    1.39
  18   6   6    7.63    1.33
   6 -18   8    0.59    1.11
  18   8  -6    0.44    1.06
   8   6 -18    0.38    0.88
  -6 -18  -8    0.63    1.04
  18  -8   6   -0.52    1.03
  -6 -18   8    1.04    1.11
  18   8   6   -0.40    1.03
   6 -18  -8   -1.24    1.02
  18  -8  -6    0.10    1.00
   6 -18  10    4.16    1.38
  10   6 -18    4.62    1.13
  -6 -18 -10    5.27    1.29
  18 -10   6    3.30    1.33
  18  10  -6    2.88    1.19
  18 -10  -6    6.64    1.42
  -6 -18  10    5.31    1.43
  18  10   6    5.85    1.35
   6 -18 -10    5.43    1.39
  -6 -18 -12    2.36    1.10
  18 -12   6    2.02    1.27
  18  12  -6    0.79    1.16
  12   6 -18    0.77    1.05
   6 -18  12    0.82    1.12
   6 -18 -12    0.95    1.16
  12  -6 -18    1.79    1.00
  -6 -18  12    0.46    1.12
  18  12   6    0.58    1.13
  18 -12  -6    0.93    1.15
  18  14  -6    7.49    1.67
  18 -14   6    4.12    1.44
   6 -18  14    7.23    1.45
  14   6 -18    8.47    1.42
  18  14   6    5.59    1.44
  14  -6 -18    8.83    1.39
  18 -14  -6   10.62    1.86
   6 -18 -14    4.73    1.35
  -6 -18  14    9.98    1.66
  16   6 -18    1.04    1.14
   6 -18  16    1.57    1.21
  18 -16   6    3.28    1.44
  18  16  -6    0.72    1.32
  16  -6 -18    1.50    1.14
  18  16   6    2.27    1.30
  -6 -18  16    4.59    1.35
  18 -16  -6    1.19    1.30
  -8 -18   0    0.64    1.02
   0  -8  18    1.56    0.79
  18   0  -8   -0.40    0.97
  18   0   8    0.32    0.98
   8 -18   0    1.18    1.15
  18  -2   8    2.45    1.10
   8 -18   2    3.03    1.27
  -8 -18  -2    2.37    1.15
  18   2  -8    3.21    1.15
   8 -18  -2    0.49    1.12
  18   2   8    2.88    1.04
  -8 -18   2    2.73    1.16
  -2  -8  18    3.25    0.89
  18  -2  -8    3.71    1.19
   8 -18   4    3.09    1.26
  -8 -18  -4    0.90    1.07
  18  -4   8    0.94    1.04
  18   4  -8   -1.32    0.91
  -8 -18   4    1.62    1.01
  18  -4  -8    2.13    1.12
  18   4   8   -0.02    0.71
   8 -18  -4    1.09    1.10
   8 -18   6   -1.64    0.98
  18   6  -8   -0.15    1.01
  18  -6   8    0.44    1.09
   6   8 -18    0.56    0.94
  -8 -18  -6   -0.70    0.99
  18  -6  -8   -0.64    1.05
  18   6   8    0.17    0.70
  -8 -18   6    0.03    1.01
   8 -18  -6    1.39    1.19
  18  -8   8   28.92    2.35
  -8 -18  -8   26.66    2.21
  18   8  -8   28.24    2.43
   8   8 -18   29.42    2.09
   8 -18   8   29.82    2.43
   8 -18  -8   30.31    2.49
  -8 -18   8   32.60    2.43
  18  -8  -8   31.00    2.41
  18   8   8   18.11    1.81
  -8 -18 -10   -0.22    1.00
  10   8 -18    1.21    1.03
  18  10  -8   -1.01    1.01
  18 -10   8    0.17    1.09
   8 -18  10    0.49    1.02
   8 -18 -10   -0.32    1.10
  18 -10  -8   -1.49    1.04
  -8 -18  10   -0.81    1.00
  18  10   8   -0.80    0.97
  18  12  -8    3.19    1.34
  18 -12   8    4.16    1.34
  12   8 -18    2.72    1.10
   8 -18  12    0.42    1.06
   8 -18 -12    2.62    1.37
  18 -12  -8    1.71    1.32
  18  12   8    1.93    1.16
  12  -8 -18    1.64    0.99
  -8 -18  12    3.03    1.27
  18  14  -8    0.66    1.30
  14   8 -18    4.40    1.26
   8 -18  14    3.82    1.29
  18 -14   8    2.17    1.36
  18  14   8    0.95    1.14
  -8 -18  14    0.64    1.11
  18 -14  -8    4.92    1.52
  14  -8 -18    3.70    1.20
   8 -18 -14    1.88    1.27
  18  16  -8    2.35    1.33
  16   8 -18    0.77    1.20
  18 -16   8   -0.07    1.32
   8 -18  16    0.72    1.18
  -8 -18  16    1.44    1.17
  18  16   8   -1.57    1.13
  18 -16  -8    0.35    1.42
  16  -8 -18   -0.59    1.06
  18   0 -10   48.21    2.76
  18   0  10   39.01    2.43
   0 -10  18   39.73    2.29
  10 -18   0   44.86    2.80
  10 -18   2    9.15    1.57
   2 -10  18    8.56    1.20
  18  -2  10    5.60    1.11
  18   2 -10   11.66    1.59
  18   2  10    7.27    1.27
  18  -2 -10   12.63    1.65
  -2 -10  18   10.10    1.29
  10 -18  -2   11.19    1.75
  18   4 -10   19.67    1.99
 -10 -18  -4   17.70    1.92
  10 -18   4   21.97    2.18
  18   4  10   16.73    1.68
  -4 -10  18   21.20    1.75
  18  -4 -10   19.37    1.97
  10 -18  -4   18.20    2.08
  10 -18   6    5.18    1.40
  18   6 -10    6.09    1.40
  18  -6  10    4.11    1.24
 -10 -18  -6    6.01    1.28
  18   6  10    2.93    1.11
  18  -6 -10    6.53    1.42
  10 -18  -6    4.51    1.45
   8  10 -18    0.22    1.02
  18  -8  10   -1.40    0.97
  18   8 -10   -1.19    1.01
 -10 -18  -8    0.51    1.03
  10 -18   8   -1.80    1.03
  18  -8 -10   -0.99    1.08
  10 -18  -8    0.22    1.07
  18   8  10    0.02    0.92
  10 -18  10   30.49    2.57
  18 -10  10   30.17    2.46
 -10 -18 -10   24.53    2.17
  18  10 -10   32.52    2.48
  10  10 -18   30.75    2.28
  10 -18 -10   30.80    2.56
  18  10  10   29.04    2.24
  18 -10 -10   28.36    2.42
  18  12 -10    0.66    1.16
  12  10 -18    1.87    1.12
  18 -12  10    0.54    1.13
  10 -18  12    1.18    1.18
  18  12  10    1.51    1.08
  10 -18 -12    1.11    1.34
  18 -12 -10    1.05    1.24
  10 -18  14    6.88    1.60
  18 -14  10    5.62    1.57
  18  14 -10    7.51    1.67
  14  10 -18    8.03    1.58
  18 -14 -10    5.89    1.67
  14 -10 -18    7.97    1.44
  18  14  10    7.97    1.46
  10 -18 -14    7.30    1.65
  16  10 -18   11.00    1.77
  18 -16  10    8.25    1.84
  10 -18  16   13.19    1.85
  18  16 -10    9.31    1.83
 -10 -18  16    8.78    1.64
  16 -10 -18   10.63    1.69
  18 -16 -10   13.70    2.06
  18   0 -12   -0.77    1.00
  18   0  12   -0.18    0.90
  12 -18   0    2.22    1.26
   0 -12  18    0.17    0.88
  12  18   0    0.61    1.21
  18  -2  12    3.52    1.16
  12  18  -2    7.09    1.57
   2 -12  18    6.90    1.22
  18   2 -12    5.33    1.35
  12 -18   2    6.79    1.53
  12 -18  -2    5.66    1.46
  -2 -12  18    4.18    1.15
  18  -2 -12    4.74    1.31
  18   2  12    5.33    1.10
  18  -4  12   11.42    1.49
  12 -18   4   14.17    1.91
  12  18  -4    9.86    1.75
   4 -12  18    9.71    1.35
  18   4 -12   11.20    1.62
  -4 -12  18   11.09    1.46
  12 -18  -4   13.43    1.83
  18  -4 -12    8.61    1.53
  18   6 -12    1.14    1.15
  18  -6  12    0.40    0.98
  12 -18   6   -1.94    1.03
  12  18  -6    0.48    1.24
  -6 -12  18    1.01    0.47
  12 -18  -6   -0.90    1.16
  18  -6 -12    0.12    1.08
  12  18  -8    1.55    1.29
  12 -18   8    2.13    1.29
   8  12 -18    3.32    1.23
 -12 -18  -8    2.53    1.13
  18   8 -12    1.40    1.22
  18  -8  12   -0.37    0.57
  18  -8 -12    2.84    1.29
  12 -18  -8    1.92    1.30
  18 -10  12    0.76    1.15
  18  10 -12    0.39    1.22
  12 -18  10   -0.17    1.15
  12  18 -10   -0.86    1.21
  10  12 -18   -0.26    1.07
 -12 -18 -10    0.12    1.03
  12 -18 -10   -0.03    1.16
  18 -10 -12   -1.41    1.08
  18  12 -12    1.22    1.29
  18 -12  12    0.25    1.20
  12 -18  12   -0.23    1.09
  12  18 -12   -1.25    1.27
  12  12 -18   -0.82    1.14
  12 -18 -12   -0.40    1.26
  18 -12 -12   -0.77    1.22
  18 -14  12    2.54    1.42
  14  12 -18    3.62    1.47
  18  14 -12    4.45    1.53
  12 -18  14    5.87    1.53
  18 -14 -12    5.94    1.62
  12 -18 -14    5.63    1.59
  12 -18  16   -0.02    1.28
  18 -16  12   -0.49    1.26
  18  16 -12   -2.87    1.16
  16  12 -18    1.44    1.38
  18 -16 -12    0.00    1.36
  14 -18   0   14.29    1.99
   0 -14  18   11.60    1.56
  18   0 -14    6.70    1.48
  14  18   0    9.22    1.69
  14  18  -2    0.11    1.17
  14 -18   2    0.73    1.18
   2 -14  18    0.84    1.05
  18   2 -14    1.78    1.19
  -2 -14  18    1.45    0.82
  14  18   2    0.04    1.20
  18  -2 -14   -1.24    1.04
  14 -18  -2   -0.18    1.14
  14 -18   4   52.91    3.25
   4 -14  18   54.60    2.88
  18   4 -14   57.93    3.16
  14  18  -4   49.30    3.17
  14 -18  -4   57.86    3.41
  14  18   4   62.71    3.32
  18  -4 -14   52.58    3.05
  14  18  -6    6.75    1.61
  14 -18   6    6.19    1.65
  18   6 -14    7.87    1.55
  -6 -14  18    8.20    1.48
  14  18   6    8.36    1.61
  14 -18  -6   11.58    1.89
  18  -6 -14    6.77    1.50
  18   8 -14    2.18    1.19
  14  18  -8    4.11    1.48
  14 -18   8    0.95    1.30
  18  -8  14    3.24    1.21
  18  -8 -14    3.00    1.31
  14 -18  -8    3.69    1.48
  18  10 -14    9.32    1.73
  10  14 -18   10.30    1.72
  14  18 -10   10.99    1.86
  14 -18  10    6.26    1.68
  18 -10  14    9.30    1.53
  14 -18 -10    7.49    1.77
  18 -10 -14    7.02    1.62
  18 -12  14    4.39    1.25
  12  14 -18    5.55    1.56
  14 -18  12    5.45    1.56
  18  12 -14    3.98    1.51
  14  18 -12    6.63    1.71
  18 -12 -14    6.66    1.64
  14 -18 -12    6.09    1.67
  14  18 -14   62.98    3.68
  14 -18  14   61.44    3.60
  18  14 -14   65.91    3.74
  14  14 -18   60.61    3.55
  18 -14  14   65.03    3.57
  14 -18 -14   57.35    3.64
  18 -14 -14   57.30    3.57
  14 -18  16    1.69    1.45
  16  14 -18    1.33    1.47
  18 -16  14    1.59    1.41
  14  18 -16    0.54    1.59
  18  16 -14    0.18    1.47
  14 -18 -16    0.21    1.49
  18 -16 -14    0.40    1.45
  16 -18   0   23.19    2.49
  16  18   0   23.43    2.39
  18   0 -16   22.34    2.14
  18   2 -16    2.44    1.27
  16 -18   2    5.17    1.60
   2 -16  18    0.56    0.56
  16  18  -2    4.26    1.49
  16 -18  -2    0.96    1.23
  16  18   2    4.23    1.37
  -2 -16  18    2.78    1.22
  18  -2 -16    1.48    1.15
  16 -18   4    2.15    1.29
   4 -16  18    2.61    1.12
  16  18  -4    0.66    1.34
  18   4 -16    2.01    1.26
  16  18   4   -0.25    1.21
  16 -18  -4   -1.03    1.22
  -4 -16  18    0.36    1.07
  18  -4 -16   -1.45    1.00
  16 -18   6    3.53    1.46
   6 -16  18    3.75    1.27
  18   6 -16    2.47    1.27
  16  18  -6   -0.44    1.32
  16  18   6    1.41    1.28
  16 -18  -6    2.77    1.38
  -6 -16  18    2.49    1.17
  18  -6 -16    3.53    1.33
  16  18  -8    0.68    1.31
  16 -18   8    0.01    1.24
  18   8 -16   -0.03    1.18
  16  18   8   -0.35    1.25
  18  -8 -16    0.28    1.15
  16 -18  -8   -0.80    1.28
  -8 -16  18    1.83    1.21
  16  18 -10   11.44    1.93
  18  10 -16    9.29    1.74
  16 -18  10   10.69    1.90
  18 -10 -16    7.86    1.68
  16 -18 -10   13.38    2.05
  16  18 -12   -1.37    1.32
  16 -18  12    0.92    1.31
  12  16 -18   -0.66    1.36
  18  12 -16    0.92    1.37
  16 -18 -12   -0.58    1.39
  18 -12 -16    1.03    1.40
  18  14 -16    0.99    1.56
  14  16 -18    0.08    1.47
  16 -18  14    1.44    1.39
  16  18 -14    0.84    1.55
  18 -14 -16   -0.37    1.41
  16 -18 -14    1.43    1.53
  16  16 -18    0.31    1.51
  18  16 -16    0.07    1.55
  16  18 -16    3.61    1.77
  18 -16 -16    0.47    1.49
  16 -18 -16    0.37    1.54
   0 -18  18   15.89    1.89
  18 -18   0   14.97    2.17
  18   0 -18   14.42    1.83
  18  18   0   13.92    2.11
  18   2 -18    0.95    1.20
   2 -18  18    3.94    1.33
  18 -18   2    2.69    1.47
  18  18  -2    2.08    1.47
  18  -2 -18    2.47    1.23
  -2 -18  18    4.37    1.40
  18 -18  -2    2.64    1.49
  18  18   2    2.31    1.45
  18   4 -18    9.08    1.67
  18  18  -4    6.98    1.68
   4 -18  18    6.39    1.46
  18 -18   4    5.91    1.62
  18  -4 -18    7.56    1.54
  -4 -18  18    5.73    1.46
  18 -18  -4   10.12    1.96
  18  18   4    7.70    1.69
  18   6 -18    1.96    1.26
  18  18  -6    1.01    1.43
   6 -18  18   -0.65    1.05
  18 -18   6    2.68    1.48
  18  -6 -18   -1.11    1.07
  -6 -18  18    0.84    1.16
  18 -18  -6    0.89    1.39
  18  18   6   -2.17    1.19
  18  18  -8   -0.20    1.33
  18   8 -18    0.94    1.28
   8 -18  18   -0.38    0.79
  18 -18   8    0.27    1.38
  18  -8 -18    0.77    1.29
  -8 -18  18    1.80    1.24
  18 -18  -8   -0.30    1.46
  18  18   8   -4.55    1.05
  18  18 -10    2.05    1.51
  18  10 -18    0.70    1.38
  18 -18  10   -0.77    1.29
  18 -10 -18    1.11    1.33
 -10 -18  18    1.86    1.33
  18 -18 -10    0.39    1.48
  18  18 -12    7.57    1.88
  18  12 -18    8.33    1.84
  18 -18  12    8.08    1.93
  18 -12 -18    9.58    1.81
  18 -18 -12   10.80    1.99
  18  18 -14   27.29    2.80
  18  14 -18   21.43    2.54
  18 -18  14   29.47    2.85
  18 -18 -14   29.87    2.80
  16  18 -18    1.57    1.71
  18  18 -16    2.23    1.72
  18  16 -18    2.12    1.73
  18 -18 -16    0.42    1.60
  18  18 -18    2.46    1.78
  -1 -19  -1    0.72    1.05
  19  -1   1   -0.91    1.02
  19   1  -1    1.51    1.09
   1 -19   1    3.80    1.17
   1 -19  -1    1.30    1.14
  19  -1  -1    4.30    1.26
  -1 -19   1    1.91    1.09
  19   1   1    1.24    1.12
  19  -3   1   11.13    1.61
  19   3  -1   10.20    1.50
  -1 -19  -3    6.99    1.41
   1 -19   3   11.46    1.58
  19  -3  -1    7.82    1.42
  -1 -19   3   13.08    1.65
  19   3   1    9.22    1.52
   1 -19  -3   11.59    1.61
   1 -19   5   60.13    3.23
  19  -5   1   62.49    3.29
  -1 -19  -5   65.40    3.29
  19   5  -1   64.09    3.29
  -1 -19   5   61.56    3.24
   1 -19  -5   59.47    3.18
  19  -5  -1   58.98    3.25
  19   5   1   64.90    3.25
  -1 -19  -7    4.22    1.26
   1 -19   7    2.66    1.19
  19  -7   1    4.72    1.34
  19   7  -1    3.28    1.21
  19   7   1    5.93    1.36
  -1 -19   7    5.10    1.35
   1 -19  -7    4.81    1.26
  19  -7  -1    2.10    1.21
  19   9  -1    0.68    1.16
  19  -9   1   -0.12    1.14
  -1 -19  -9    0.24    1.10
   1 -19   9    1.00    1.09
  -1 -19   9    1.11    1.13
   1 -19  -9    0.24    1.12
  19   9   1    2.01    1.20
  19  -9  -1   -1.57    1.06
  19  11  -1   27.94    2.43
   1 -19  11   29.67    2.35
  11   1 -19   30.26    2.06
  -1 -19 -11   28.60    2.30
  19 -11   1   26.39    2.46
  -1 -19  11   29.18    2.39
  19 -11  -1   29.09    2.49
  11  -1 -19   29.81    2.02
  19  11   1   30.51    2.44
   1 -19 -11   26.40    2.26
  19 -13   1   -0.89    1.22
  13   1 -19    0.26    0.93
  -1 -19 -13   -0.02    1.09
  19  13  -1   -0.23    1.15
   1 -19  13   -0.45    0.99
  13  -1 -19    1.64    0.99
  -1 -19  13    1.46    1.17
  19  13   1   -1.17    1.12
   1 -19 -13    0.45    1.09
  19 -13  -1   -0.54    1.15
  19 -15   1    1.16    1.33
   1 -19  15    2.83    1.28
  15   1 -19    1.47    1.05
  19  15  -1    4.45    1.48
  15  -1 -19    1.63    1.11
  19 -15  -1    2.93    1.36
  19  15   1    3.12    1.36
  -1 -19  15    3.57    1.30
  19  17  -1    1.28    1.34
  19 -17   1   -0.13    1.33
   1 -19  17    1.27    1.22
  17   1 -19    3.88    1.23
  19  17   1   -0.15    1.31
  19 -17  -1    2.31    1.40
  -1 -19  17    2.61    1.28
  17  -1 -19   -0.69    1.06
  -3 -19  -1   10.60    1.61
  19  -1   3    7.96    1.46
  19   1  -3   10.75    1.58
   3 -19   1   10.89    1.55
  19  -1  -3   10.48    1.58
  -3 -19   1   11.00    1.61
   3 -19  -1   10.27    1.60
  19   1   3   11.55    1.55
   3 -19   3    8.25    1.43
  -3 -19  -3   11.05    1.56
  19  -3   3    6.61    1.41
  19   3  -3    8.54    1.42
  19  -3  -3    7.10    1.41
   3 -19  -3    9.97    1.57
  19   3   3    6.41    1.30
  -3 -19   3    5.69    1.39
  19  -5   3   -0.47    1.02
  -3 -19  -5    0.04    1.06
   3 -19   5    0.20    1.09
  19   5  -3    0.37    1.03
  19   5   3    0.85    1.06
  19  -5  -3    1.09    1.13
   3 -19  -5   -0.88    1.02
  -3 -19   5   -0.15    0.99
  19  -7   3    8.13    1.55
   3 -19   7    5.60    1.38
  19   7  -3    6.75    1.43
  -3 -19  -7    9.15    1.50
  -3 -19   7   10.25    1.60
  19   7   3    8.71    1.50
   3 -19  -7    8.24    1.54
  19  -7  -3   10.63    1.63
  -3 -19  -9    5.48    1.31
  19   9  -3    6.90    1.48
   3 -19   9    6.01    1.46
  19  -9   3    7.90    1.58
   9   3 -19    7.14    1.16
  19   9   3    4.18    1.30
  -3 -19   9    6.23    1.44
  19  -9  -3   10.68    1.63
   3 -19  -9    6.64    1.43
  11   3 -19    8.86    1.29
  19  11  -3   10.30    1.65
  19 -11   3    9.23    1.70
   3 -19  11   12.21    1.73
  -3 -19 -11    5.32    1.31
  -3 -19  11    9.31    1.63
  19 -11  -3    7.55    1.60
  19  11   3    9.31    1.57
   3 -19 -11    7.03    1.49
   3 -19  13    1.87    1.16
  19  13  -3   -1.06    1.16
  13   3 -19   -0.81    0.92
  19 -13   3   -1.79    1.19
   3 -19 -13   -0.70    1.02
  13  -3 -19   -0.79    0.83
  -3 -19  13    0.31    1.11
  19  13   3   -1.28    1.08
  19 -13  -3    0.30    1.14
  15   3 -19    9.02    1.51
  19 -15   3    5.74    1.63
  19  15  -3    8.45    1.70
   3 -19  15    7.20    1.51
  19 -15  -3    8.71    1.81
  15  -3 -19    9.61    1.47
  -3 -19  15    8.74    1.62
  19  15   3    7.42    1.54
  19 -17   3   -0.04    1.31
  19  17  -3   -0.01    1.35
  17   3 -19    1.49    1.18
   3 -19  17    0.13    1.10
  19 -17  -3    0.04    1.25
  17  -3 -19    0.81    1.08
  -3 -19  17   -0.18    1.13
  19  17   3   -1.30    1.22
  -5 -19  -1   60.38    3.27
   5 -19   1   58.87    3.23
  19  -1   5   63.36    3.20
  19   1  -5   58.92    3.15
  19  -1  -5   64.96    3.27
   5 -19  -1   66.92    3.36
  -5 -19   1   63.12    3.36
  19   1   5   66.00    3.25
   5 -19   3   -0.26    1.07
  19  -3   5   -0.90    1.05
  -5 -19  -3    1.97    1.13
  19   3  -5   -1.12    0.92
   5 -19  -3   -0.69    1.09
  19  -3  -5   -0.46    1.00
  19   3   5   -0.09    1.00
  -5 -19   3   -0.15    1.03
  19  -5   5   30.15    2.32
  -5 -19  -5   32.70    2.36
   5 -19   5   29.57    2.38
  19   5  -5   32.53    2.41
   5 -19  -5   32.64    2.44
  -5 -19   5   34.28    2.50
  19  -5  -5   33.82    2.46
  19   5   5   26.22    2.20
  -5 -19  -7    4.27    1.28
   7   5 -19    0.71    0.93
  19   7  -5    2.71    1.22
   5 -19   7    4.11    1.27
  19  -7   5    1.70    1.19
   5 -19  -7    3.88    1.28
  19   7   5    3.76    1.20
  -5 -19   7    3.18    1.24
  19  -7  -5    4.15    1.31
   5 -19   9   88.94    4.14
  19  -9   5   83.93    4.11
  -5 -19  -9   90.41    4.02
   9   5 -19   93.92    3.76
  19   9  -5   94.20    4.28
  19  -9  -5   86.44    4.13
  -5 -19   9   89.15    4.19
   5 -19  -9   90.43    4.15
  11   5 -19    3.94    1.11
   5 -19  11    3.40    1.31
  -5 -19 -11    3.17    1.17
  19  11  -5    1.76    1.28
  19 -11   5    1.25    1.31
  -5 -19  11    4.25    1.37
  19  11   5    2.19    1.26
   5 -19 -11    2.81    1.26
  19 -11  -5    3.04    1.33
  19 -13   5    5.34    1.54
  19  13  -5   10.41    1.74
   5 -19  13    7.48    1.56
  13   5 -19    9.14    1.42
   5 -19 -13   10.03    1.60
  19 -13  -5    9.33    1.76
  -5 -19  13    6.84    1.53
  19  13   5    5.02    1.40
  15   5 -19    7.23    1.43
  19 -15   5   10.08    1.85
   5 -19  15    5.12    1.42
  19  15  -5    5.06    1.58
  19  15   5    5.92    1.45
  -5 -19  15    9.06    1.62
  19 -15  -5    5.33    1.58
  15  -5 -19    5.08    1.27
  17   5 -19    2.86    1.27
  19  17  -5    3.07    1.50
   5 -19  17    2.78    1.27
  19 -17   5    0.46    1.36
  19  17   5    3.51    1.36
  19 -17  -5    2.32    1.41
  17  -5 -19    2.33    1.25
  -5 -19  17    1.29    1.23
  19  -1   7    2.78    1.20
  19   1  -7    3.81    1.24
  -7 -19  -1    4.05    1.23
   7 -19   1    3.12    1.23
   7 -19  -1    3.92    1.25
  19   1   7    3.07    1.13
  -7 -19   1    3.07    1.27
  19  -1  -7    3.65    1.20
  19  -3   7    8.61    1.50
   7 -19   3    6.96    1.47
  19   3  -7    8.95    1.52
  -7 -19  -3    7.52    1.48
  19  -3  -7    7.85    1.43
  -7 -19   3    8.60    1.52
  19   3   7    8.81    1.40
   7 -19  -3    6.19    1.43
  19   5  -7    3.14    1.23
   7 -19   5    1.18    1.20
  -7 -19  -5    3.39    1.22
  19  -5   7    2.91    1.25
  -7 -19   5    3.24    1.22
  19  -5  -7    3.09    1.28
  19   5   7    3.11    1.15
   7 -19  -5    3.75    1.36
  19  -7   7    2.49    1.13
  19   7  -7    2.37    1.23
   7   7 -19    0.94    0.95
   7 -19   7    0.24    1.17
  -7 -19  -7    0.58    1.07
   7 -19  -7    0.64    1.14
  19  -7  -7    3.32    1.27
  19   7   7    1.30    1.07
  -7 -19   7    0.26    1.08
  -7 -19  -9    0.76    1.13
   9   7 -19    0.48    0.99
   7 -19   9    0.09    1.13
  19  -9   7    0.79    1.12
  19   9  -7    1.24    1.11
   7 -19  -9    1.20    1.18
  19   9   7    1.44    1.06
  19  -9  -7   -0.04    1.08
  -7 -19   9   -0.18    1.02
  19  11  -7    0.58    1.16
  11   7 -19    0.33    1.00
  19 -11   7   -0.75    1.11
   7 -19  11    1.45    1.18
  -7 -19 -11   -1.31    0.95
  19  11   7   -0.57    1.04
  19 -11  -7   -0.72    1.07
   7 -19 -11    0.41    1.16
  -7 -19  11   -1.13    1.04
  19 -13   7    5.43    1.54
   7 -19  13    6.73    1.54
  19  13  -7    4.23    1.42
  13   7 -19    5.75    1.36
  19  13   7    4.05    1.35
   7 -19 -13    4.08    1.33
  19 -13  -7    6.01    1.57
  -7 -19  13    3.11    1.30
   7 -19  15    4.61    1.44
  15   7 -19    5.36    1.38
  19  15  -7    3.53    1.49
  19 -15   7    3.76    1.49
  19 -15  -7    1.82    1.57
  19  15   7    4.16    1.42
  -7 -19  15    4.35    1.38
  17   7 -19    3.29    1.44
  19 -17   7    2.50    1.46
   7 -19  17    1.50    1.26
  19  17  -7    5.14    1.61
  19  17   7    2.47    1.42
  17  -7 -19    3.40    1.34
  -7 -19  17    3.92    1.40
  19 -17  -7    0.96    1.56
  19  -1   9   -0.80    0.95
   9 -19   1    3.25    1.25
  -9 -19  -1    0.08    1.06
  19   1  -9   -0.31    1.06
  19  -1  -9   -0.31    1.06
   9 -19  -1    0.52    1.13
  -9 -19   1    3.23    1.24
  19   1   9   -0.09    0.55
   9 -19   3    5.00    1.50
  -9 -19  -3    7.41    1.47
  19  -3   9    6.32    1.37
  19   3  -9    7.62    1.45
  -9 -19   3    3.96    1.28
   9 -19  -3    5.97    1.46
  19  -3  -9    6.04    1.41
  19   5  -9   86.91    4.06
  19  -5   9   87.54    3.92
   9 -19   5   96.21    4.24
  -9 -19  -5   85.06    3.98
  -9 -19   5   84.13    4.11
  19  -5  -9   88.59    4.05
   9 -19  -5   84.94    4.13
  -9 -19  -7    0.04    1.03
   9 -19   7    1.57    1.20
   7   9 -19    0.41    1.04
  19  -7   9   -0.09    1.08
  19   7  -9   -0.79    1.10
  19  -7  -9    0.12    1.10
  19   7   9    1.16    0.62
  -9 -19   7    0.17    1.05
   9 -19  -7    0.24    1.17
  19   9  -9   32.05    2.56
   9 -19   9   37.04    2.63
   9   9 -19   35.86    2.43
  19  -9   9   35.99    2.64
  -9 -19  -9   33.25    2.47
  -9 -19   9   34.13    2.59
   9 -19  -9   36.80    2.70
  19  -9  -9   33.65    2.59
  11   9 -19   18.30    1.85
   9 -19  11   18.00    2.09
  -9 -19 -11   18.48    1.83
  19 -11   9   17.19    2.03
  19  11  -9   15.50    1.98
  19 -11  -9   12.51    1.83
  -9 -19  11   14.38    1.93
   9 -19 -11   16.75    2.03
  19 -13   9    3.24    1.45
  19  13  -9    1.60    1.35
   9 -19  13    4.34    1.43
  13   9 -19    3.93    1.37
   9 -19 -13    5.05    1.47
  19 -13  -9    2.78    1.46
  19  13   9    1.84    0.90
  -9 -19  13    3.70    1.30
  19 -15   9   11.45    1.97
  15   9 -19   11.30    1.73
   9 -19  15   15.33    2.01
  19  15  -9   15.01    2.08
  19  15   9   13.11    1.79
  -9 -19  15   13.38    1.83
   9 -19 -15   11.98    1.81
  19 -15  -9   15.95    2.19
  19  17  -9    1.54    1.41
  17   9 -19    0.14    1.29
  19 -17   9   -0.63    1.28
   9 -19  17   -1.36    1.19
  -9 -19  17    0.17    1.18
  19 -17  -9   -0.58    1.44
  19  17   9    0.30    1.25
  11 -19   1   26.10    2.43
  19  -1  11   27.60    2.14
  19   1 -11   29.26    2.30
  19  -1 -11   31.27    2.36
  11 -19  -1   31.29    2.57
  11 -19   3   11.55    1.75
 -11 -19  -3    9.83    1.65
  19   3 -11   10.65    1.62
  19  -3  11    4.72    1.30
  -3 -11  19   11.80    1.42
  19  -3 -11    9.93    1.64
  11 -19  -3   11.44    1.84
  19   3  11    9.63    1.39
  19   5 -11    2.83    1.27
  11 -19   5    5.71    1.50
 -11 -19  -5    2.42    1.24
  19  -5 -11    4.28    1.34
  19   5  11    3.95    1.16
  -5 -11  19    4.19    1.11
  11 -19  -5    5.30    1.47
 -11 -19  -7    0.32    1.07
  19  -7  11   -2.21    0.97
  19   7 -11    0.43    1.17
  11 -19   7    0.51    1.13
  19   7  11    1.12    1.03
  11 -19  -7    0.13    1.20
  19  -7 -11   -0.47    1.13
 -11 -19  -9   16.01    1.82
   9  11 -19   19.01    1.90
  11 -19   9   18.42    2.13
  19   9 -11   18.71    2.09
  19  -9  11   14.97    1.85
  19  -9 -11   16.79    1.99
  11 -19  -9   16.03    2.10
  11  11 -19   51.85    3.09
  19  11 -11   49.85    3.19
  11 -19  11   55.95    3.23
  19 -11  11   59.15    3.31
  19 -11 -11   54.71    3.24
  11 -19 -11   51.80    3.34
  13  11 -19   12.11    1.78
  19 -13  11   11.88    1.89
  19  13 -11   11.01    1.90
  11 -19  13   12.75    1.86
  19 -13 -11   11.40    1.91
  11 -19 -13   11.04    1.88
  19  15 -11   -0.96    1.27
  11 -19  15   -0.12    1.26
  19 -15  11   -0.09    1.32
  15  11 -19   -2.04    1.15
  11 -19 -15    0.38    1.31
 -11 -19  15    0.73    1.13
  19 -15 -11    2.63    1.53
  17  11 -19    2.46    1.49
  19  17 -11    0.25    1.37
  11 -19  17   -1.95    1.14
  19 -17  11   -1.76    1.33
 -11 -19  17    1.02    1.27
  19 -17 -11    1.39    1.56
  19   1 -13    2.76    1.19
  13  19  -1    0.78    1.25
  13 -19   1    0.02    1.13
  -1 -13  19    0.88    0.95
  13 -19  -1   -1.50    1.13
  19  -1 -13    0.89    1.06
  13  19  -3   -1.08    1.18
  13 -19   3   -0.07    1.16
  19   3 -13   -0.17    1.10
  -3 -13  19   -0.25    0.90
  19  -3 -13   -0.29    1.08
  13 -19  -3   -1.73    1.05
  19   5 -13    8.24    1.58
  13  19  -5    8.00    1.73
  13 -19   5    5.90    1.54
  19  -5  13    4.74    1.28
  13 -19  -5    6.91    1.63
  19  -5 -13    9.50    1.62
  -5 -13  19    9.15    1.39
  13 -19   7    6.20    1.56
 -13 -19  -7    5.54    1.37
  13  19  -7    5.52    1.60
  19  -7  13    8.44    1.44
  19   7 -13    6.14    1.54
  19  -7 -13    9.06    1.60
  13 -19  -7   10.62    1.88
  19  -9  13   -0.35    0.57
 -13 -19  -9    2.67    1.23
  13  19  -9    3.02    1.48
  19   9 -13    4.08    1.39
  13 -19   9    4.34    1.43
  13 -19  -9    2.21    1.41
  19  -9 -13    1.73    1.29
  19 -11  13   14.27    1.90
  13  19 -11   10.13    1.91
  11  13 -19   10.21    1.72
  19  11 -13    9.45    1.78
  13 -19  11   11.07    1.82
  19 -11 -13   13.12    1.90
  13 -19 -11   11.75    2.01
  19 -13  13    0.29    1.32
  13  13 -19    3.05    1.41
  13 -19  13    1.80    1.41
  19  13 -13    3.44    1.55
  19 -13 -13    2.46    1.45
  13 -19 -13    0.06    1.44
  19 -15  13   -0.56    1.34
  19  15 -13   -1.02    1.42
  15  13 -19    0.23    1.36
  13 -19  15    1.46    1.45
  19 -15 -13    1.46    1.43
  13 -19 -15    2.13    1.56
  17  13 -19   -0.31    1.39
  19 -17  13    2.88    1.56
  19  17 -13   -0.41    1.47
  19 -17 -13   -0.38    1.46
  15  19  -1    2.24    1.41
  15 -19   1    2.05    1.32
  19   1 -15    4.51    1.36
   1 -15  19    2.24    1.12
  15  19   1    1.36    1.33
  -1 -15  19    3.78    1.19
  15 -19  -1    1.70    1.33
  19  -1 -15    2.49    1.20
  19   3 -15    7.24    1.49
  15  19  -3    6.86    1.66
  15 -19   3    6.25    1.68
  15  19   3    9.05    1.71
  19  -3 -15    9.21    1.60
  15 -19  -3    9.36    1.85
  19   5 -15    6.77    1.52
  15  19  -5    3.80    1.53
  15 -19   5    8.66    1.79
  15  19   5    7.65    1.62
  19  -5 -15    8.27    1.62
  -5 -15  19    5.65    1.34
  15 -19  -5    5.27    1.61
  15 -19   7    3.43    1.44
  19   7 -15    5.97    1.53
  15  19  -7    2.33    1.44
  -7 -15  19    5.75    1.38
  19  -7 -15    4.32    1.47
  15 -19  -7    4.94    1.61
  19   9 -15   13.60    2.00
  15  19  -9   15.65    2.16
  15 -19   9   15.91    2.14
  15 -19  -9   15.56    2.18
  19  -9 -15   14.24    1.93
  15  19 -11    1.38    1.43
  15 -19  11    0.22    1.31
  19  11 -15   -0.53    1.26
  15 -19 -11   -1.15    1.39
  19 -11 -15    0.30    1.29
  13  15 -19    0.75    1.41
  15 -19  13   -2.10    1.19
  19  13 -15    0.54    1.50
  15  19 -13    0.61    1.51
  19 -13 -15   -0.82    1.36
  15 -19 -13   -0.18    1.48
  15  19 -15   -1.97    1.49
  15  15 -19   -0.05    1.44
  15 -19  15    0.88    1.34
  19  15 -15   -0.64    1.40
  19 -15 -15   -0.74    1.35
  15 -19 -15   -0.53    1.46
  19  17 -15    3.15    1.73
  17  15 -19    0.10    1.59
  15  19 -17    1.55    1.69
  19 -17 -15    1.45    1.60
  17 -19   1    1.35    1.38
   1 -17  19    0.49    0.54
  17  19  -1    1.23    1.40
  19   1 -17    2.60    1.23
  17  19   1    0.97    1.35
  17 -19  -1    2.60    1.44
  19  -1 -17    1.20    1.22
  -1 -17  19    0.67    1.01
  19   3 -17    2.81    1.29
  17  19  -3   -2.15    1.22
   3 -17  19    0.68    0.91
  17 -19   3    0.72    1.32
  19  -3 -17    0.07    1.13
  -3 -17  19    0.08    1.14
  17 -19  -3    0.01    1.27
  17  19   3   -1.71    1.25
  19   5 -17    3.94    1.48
  17 -19   5    2.75    1.49
  17  19  -5    2.46    1.47
  -5 -17  19    3.55    1.34
  17 -19  -5   -0.44    1.37
  17  19   5    3.24    1.42
  19  -5 -17    2.66    1.29
  17 -19   7    1.14    1.45
  19   7 -17    1.89    1.32
  17  19  -7    1.38    1.42
  17  19   7    4.36    1.51
  19  -7 -17    3.70    1.44
  17 -19  -7    2.41    1.55
  -7 -17  19    2.27    1.34
  19   9 -17    0.35    1.26
  17  19  -9   -1.79    1.32
  17 -19   9   -1.12    1.34
  -9 -17  19    1.44    1.26
  19  -9 -17   -1.55    1.17
  17 -19  -9   -1.49    1.33
  17 -19  11    0.08    1.41
  19  11 -17   -1.02    1.30
  17  19 -11   -0.72    1.30
  19 -11 -17    1.41    1.44
  17 -19 -11    4.46    1.71
  17  19 -13   -0.18    1.47
  17 -19  13    1.47    1.52
  19  13 -17   -1.44    1.42
  19 -13 -17    2.56    1.46
  17 -19 -13    1.63    1.60
  15  17 -19    1.31    1.64
  17 -19  15    2.08    1.67
  17  19 -15    1.45    1.66
  19  15 -17    0.47    1.52
  19 -15 -17    0.97    1.56
  17 -19 -15    1.16    1.60
  17  17 -19    1.91    1.69
  19  17 -17   -0.42    1.62
  17  19 -17   -0.55    1.67
  19 -17 -17   -2.40    1.46
  19   1 -19    3.77    1.33
  19  19  -1    5.41    1.70
   1 -19  19    3.88    1.45
  19 -19   1    3.11    1.49
  19  -1 -19    3.00    1.34
  -1 -19  19    0.59    1.26
  19 -19  -1   -0.08    1.35
  19  19   1    2.98    1.62
  19   3 -19    4.37    1.48
  19  19  -3    3.24    1.64
   3 -19  19    1.93    1.34
  19 -19   3    2.07    1.53
  19  -3 -19    3.39    1.37
  -3 -19  19    3.98    1.39
  19 -19  -3    2.31    1.48
  19  19   3    4.19    1.61
  19  19  -5   61.62    3.80
  19 -19   5   55.82    3.73
  19   5 -19   62.12    3.53
  19  -5 -19   60.85    3.43
  19 -19  -5   67.18    3.93
  -5 -19  19   64.56    3.59
  19  19   5   54.45    3.54
  19  19  -7   -1.20    1.47
  19   7 -19    1.90    1.44
  19 -19   7   -1.28    1.35
  19  -7 -19    1.24    1.27
  19 -19  -7    0.49    1.63
  -7 -19  19    0.33    1.26
  19  19   7    0.46    1.43
  19  19  -9   19.09    2.48
  19   9 -19   20.79    2.32
  19 -19   9   20.64    2.58
  19  -9 -19   19.05    2.26
  19 -19  -9   25.10    2.78
  -9 -19  19   19.28    2.34
  19  19 -11   -1.58    1.45
  19  11 -19    2.13    1.48
  19 -19  11    2.29    1.53
  19 -19 -11   -0.13    1.63
 -11 -19  19   -1.17    1.19
  19  13 -19    8.45    1.98
  19  19 -13    6.31    1.94
  19 -19  13    4.63    1.78
  19 -19 -13    7.48    2.08
  19  19 -15   -0.84    1.62
  19 -19  15    1.55    1.66
  19  15 -19    6.12    1.94
  19 -19 -15    2.38    1.76
  17  19 -19    1.53    1.85
  19  19 -17    6.61    2.04
  19  17 -19    2.52    1.80
   0 -20   0  160.27    6.24
  20   0   0  172.31    6.36
   0 -20  -2    1.24    1.15
   0 -20   2    1.11    1.18
  20  -2   0    2.70    1.28
  20   2   0    0.90    1.17
  20  -4   0    2.36    1.26
  20   4   0    0.25    1.07
   0 -20  -4    0.01    1.09
   0 -20   4    2.21    1.23
  20  -6   0    8.54    1.63
   0 -20  -6    8.83    1.56
   0 -20   6   10.82    1.68
  20   6   0    7.99    1.53
   0 -20   8    0.26    1.18
   0 -20  -8    0.77    1.18
  20  -8   0    1.00    1.25
  20   8   0    1.23    1.20
  20 -10   0   39.74    2.84
   0 -20 -10   46.68    2.87
  20  10   0   46.68    2.93
   0 -20  10   41.00    2.82
  20  12   0   10.02    1.70
   0 -20  12   14.28    1.89
  20 -12   0   11.20    1.88
   0 -20 -12   16.84    1.84
  20 -14   0    6.69    1.66
   0 -20  14    5.39    1.43
  20  14   0    5.11    1.52
  20  16   0    6.26    1.65
   0 -20  16    5.69    1.49
  16   0 -20    6.92    1.38
  20 -16   0    5.00    1.64
  18   0 -20   -1.82    1.06
  20 -18   0    1.22    1.47
   0 -20  18    0.01    1.24
  20  18   0   -0.67    1.37
  -2 -20   0    1.94    1.25
  20   0  -2    3.22    1.21
  20   0   2    1.53    1.19
   2 -20   0    4.54    1.33
  -2 -20  -2   55.21    3.15
  20   2  -2   55.94    3.16
   2 -20   2   57.49    3.20
  20  -2   2   62.38    3.24
   2 -20  -2   57.86    3.18
  -2 -20   2   59.06    3.23
  20   2   2   62.05    3.22
  20  -2  -2   61.39    3.24
  20   4  -2   19.64    2.01
  -2 -20  -4   22.53    2.11
   2 -20   4   23.33    2.17
  20  -4   2   20.03    2.08
  -2 -20   4   24.11    2.26
  20  -4  -2   17.63    1.95
   2 -20  -4   24.07    2.20
  20   4   2   22.04    2.06
  20  -6   2    0.87    1.27
  20   6  -2    3.08    1.26
   2 -20   6    3.35    1.29
  -2 -20  -6    2.40    1.20
  20   6   2    0.94    1.16
  -2 -20   6    1.14    1.16
   2 -20  -6    2.38    1.27
  20  -6  -2    1.89    1.21
  20   8  -2   14.28    1.81
  -2 -20  -8    9.94    1.62
   2 -20   8   11.93    1.78
  20  -8   2   11.30    1.78
   2 -20  -8   12.67    1.76
  -2 -20   8   11.21    1.74
  20  -8  -2    9.76    1.63
  20   8   2    9.30    1.61
  20 -10   2   27.95    2.48
  -2 -20 -10   27.06    2.29
   2 -20  10   25.65    2.35
  20  10  -2   31.41    2.49
  20 -10  -2   26.46    2.43
  20  10   2   23.32    2.26
  -2 -20  10   25.64    2.41
   2 -20 -10   28.62    2.37
  -2 -20 -12   23.21    2.12
  20  12  -2   19.50    2.18
   2 -20  12   21.21    2.20
  20 -12   2   22.05    2.34
   2 -20 -12   24.57    2.22
  -2 -20  12   21.15    2.24
  20  12   2   20.67    2.18
  20 -12  -2   23.13    2.38
   2 -20  14    7.02    1.48
  20  14  -2    3.35    1.40
  14   2 -20    4.18    1.26
  20 -14   2    2.60    1.41
  -2 -20  14    4.49    1.38
  20  14   2    3.96    1.39
  20 -14  -2    4.31    1.47
  20  16  -2    0.76    1.34
  20 -16   2    1.51    1.37
   2 -20  16    0.90    1.15
  16   2 -20    0.72    1.12
  20  16   2    3.05    1.40
  20 -16  -2   -0.59    1.20
  -2 -20  16    0.22    1.15
  18   2 -20    0.92    1.27
  20  18  -2   -0.27    1.34
  20 -18   2   -0.66    1.46
   2 -20  18    0.78    1.23
  18  -2 -20   -0.07    1.20
  20 -18  -2    0.96    1.42
  -2 -20  18    0.95    1.25
  20  18   2    0.25    1.40
  20   0   4    0.12    1.08
  20   0  -4    0.22    1.04
  -4 -20   0   -0.66    1.01
   4 -20   0    3.24    1.21
  -4 -20  -2   20.73    2.10
   4 -20   2   20.39    2.09
  20  -2   4   22.95    2.07
  20   2  -4   18.19    1.96
   4 -20  -2   22.66    2.17
  -4 -20   2   22.73    2.18
  20   2   4   18.59    1.91
  20  -2  -4   21.57    2.06
  20  -4   4    7.96    1.54
   4 -20   4    5.75    1.38
  -4 -20  -4   11.73    1.64
  20   4  -4    6.58    1.44
  20  -4  -4    9.39    1.51
  -4 -20   4    8.09    1.52
  20   4   4    9.49    1.57
   4 -20  -4    5.44    1.44
   4 -20   6    3.22    1.32
  20   6  -4    3.28    1.29
  20  -6   4    2.19    1.29
  -4 -20  -6    3.51    1.28
   4 -20  -6    3.42    1.28
  20  -6  -4    2.91    1.29
  -4 -20   6    1.91    1.23
  20   6   4    4.54    1.34
  20  -8   4   21.35    2.14
   4 -20   8   20.60    2.10
  -4 -20  -8   18.72    1.94
  20   8  -4   14.63    1.92
   4 -20  -8   21.68    2.11
  -4 -20   8   16.68    2.02
  20   8   4   16.27    1.89
  20  -8  -4   14.62    1.90
   4 -20  10    2.74    1.25
  -4 -20 -10   -0.15    1.12
  20  10  -4    1.68    1.29
  20 -10   4    0.39    1.23
  -4 -20  10    1.86    1.21
  20  10   4    2.49    1.24
  20 -10  -4    2.31    1.23
   4 -20 -10    1.35    1.25
  12   4 -20    1.33    0.94
  -4 -20 -12   -0.11    1.03
  20 -12   4   -0.07    1.20
   4 -20  12    0.94    1.16
  20  12  -4   -0.19    1.22
   4 -20 -12    1.03    1.13
  20  12   4   -0.83    1.09
  -4 -20  12    0.91    1.17
  20 -12  -4    0.40    1.21
  20 -14   4    0.56    1.36
   4 -20  14    3.05    1.29
  20  14  -4    4.50    1.53
  14   4 -20    6.10    1.31
  -4 -20  14    3.09    1.32
  20 -14  -4    2.00    1.35
  20  14   4    1.37    1.31
   4 -20  16    4.02    1.44
  20 -16   4    4.06    1.57
  16   4 -20    3.23    1.29
  20  16  -4    3.65    1.51
  20 -16  -4    2.98    1.49
  -4 -20  16    2.52    1.27
  20  16   4    4.39    1.54
   4 -20  18   -1.12    1.20
  18   4 -20    2.74    1.34
  20 -18   4   -0.29    1.41
  20  18  -4   -0.55    1.45
  20 -18  -4    2.35    1.59
  -4 -20  18    1.34    1.33
  20  18   4    0.25    1.37
  20   0  -6    7.41    1.47
  20   0   6   10.05    1.54
  -6 -20   0   10.41    1.62
   6 -20   0    9.38    1.66
  20  -2   6    0.97    1.13
  -6 -20  -2    2.76    1.25
   6 -20   2    2.14    1.26
  20   2  -6    0.91    1.15
  -6 -20   2    2.93    1.31
   6 -20  -2    0.52    1.10
  20   2   6    1.56    1.11
  20  -2  -6    1.15    1.10
  -6 -20  -4    3.49    1.30
  20   4  -6    2.29    1.16
  20  -4   6    2.64    1.26
   6 -20   4    4.67    1.41
   6 -20  -4    2.72    1.27
  20   4   6    3.23    1.16
  20  -4  -6    2.29    1.28
  -6 -20   4    3.53    1.32
   6 -20   6    5.26    1.47
  -6 -20  -6    9.03    1.55
  20   6  -6    6.65    1.42
  20  -6   6    6.08    1.43
   6 -20  -6    3.12    1.33
  20   6   6    6.29    1.39
  20  -6  -6    5.80    1.45
  -6 -20   6    5.86    1.47
  20  -8   6   -1.49    1.07
   6 -20   8    2.02    1.22
  -6 -20  -8    1.91    1.19
  20   8  -6    1.39    1.18
  -6 -20   8    0.61    1.17
  20  -8  -6    0.16    1.15
  20   8   6   -0.04    1.06
   6 -20  -8    0.01    1.14
  -6 -20 -10   28.51    2.39
  20  10  -6   26.94    2.45
  20 -10   6   26.05    2.49
   6 -20  10   32.47    2.65
   6 -20 -10   29.94    2.49
  20  10   6   30.39    2.40
  -6 -20  10   31.76    2.58
  20 -10  -6   32.01    2.66
  20 -12   6    4.04    1.43
  20  12  -6    2.94    1.38
   6 -20  12    0.90    1.19
  12   6 -20    1.86    1.10
  20  12   6    1.60    1.18
   6 -20 -12    1.54    1.27
  20 -12  -6   -0.40    1.10
  -6 -20  12    2.41    1.29
  20 -14   6    2.71    1.48
  14   6 -20    2.29    1.18
   6 -20  14    2.61    1.28
  20  14  -6    4.62    1.55
  20 -14  -6    2.90    1.34
  -6 -20  14    1.81    1.29
  20  14   6    0.81    1.21
   6 -20 -14    3.01    1.29
   6 -20  16    0.71    1.23
  16   6 -20   -0.27    1.20
  20 -16   6   -1.24    1.22
  20  16  -6   -1.45    1.29
  20  16   6    0.14    1.23
  -6 -20  16   -0.66    1.11
  20 -16  -6   -0.45    1.31
  20  18  -6    3.13    1.60
   6 -20  18    1.38    1.35
  20 -18   6    1.49    1.53
  18   6 -20   -0.95    1.22
  20  18   6    3.82    1.61
  -6 -20  18    3.20    1.43
  20 -18  -6    3.99    1.63
  20   0  -8   -0.87    1.04
  20   0   8    0.03    1.08
   8 -20   0    0.12    1.17
  -8 -20   0   -0.14    1.09
   8 -20   2   11.11    1.74
  20   2  -8   11.41    1.69
  -8 -20  -2    9.34    1.61
  20  -2   8   10.72    1.57
   8 -20  -2   10.55    1.74
  -8 -20   2   12.46    1.76
  20   2   8    7.20    1.37
  20  -2  -8    9.90    1.65
   8 -20   4   20.81    2.16
  20   4  -8   19.36    2.04
  -8 -20  -4   18.34    2.02
  20  -4   8   17.82    1.90
  -8 -20   4   15.07    1.93
  20  -4  -8   17.38    2.00
   8 -20  -4   14.88    1.93
  20   4   8   17.24    1.81
  -8 -20  -6    1.00    1.13
  20   6  -8    3.10    1.23
  20  -6   8    0.12    1.16
   8 -20   6    0.76    1.18
  20   6   8    2.35    1.12
  -8 -20   6    2.27    1.16
   8 -20  -6   -0.06    1.20
  20  -6  -8    0.56    1.16
  20  -8   8    1.45    1.17
   8 -20   8    2.18    1.27
  20   8  -8    2.05    1.29
  -8 -20  -8    1.93    1.16
  -8 -20   8    2.73    1.18
  20   8   8    2.13    1.17
   8 -20  -8    1.91    1.22
  20  -8  -8    2.72    1.28
  10   8 -20    3.64    1.17
  -8 -20 -10    3.41    1.21
  20 -10   8    1.54    1.27
  20  10  -8    1.53    1.25
   8 -20  10    5.06    1.45
   8 -20 -10    1.29    1.21
  20 -10  -8    1.87    1.29
  20  10   8    3.01    1.19
  -8 -20  10    2.98    1.28
  12   8 -20    5.66    1.32
  20 -12   8   11.04    1.80
   8 -20  12    5.62    1.48
  20  12  -8    6.76    1.60
  20 -12  -8    9.95    1.74
  20  12   8    6.22    1.39
   8 -20 -12    8.26    1.64
  -8 -20  12    8.17    1.60
   8 -20  14    2.16    1.32
  20 -14   8    0.38    1.35
  20  14  -8    2.31    1.44
  14   8 -20    0.49    1.14
   8 -20 -14   -1.34    1.18
  20  14   8    2.32    1.27
  -8 -20  14    0.71    1.20
  20 -14  -8   -0.87    1.30
  20  16  -8    1.77    1.44
   8 -20  16   -0.53    1.21
  20 -16   8    0.47    1.37
  16   8 -20   -0.84    1.16
  20 -16  -8   -0.28    1.51
  20  16   8    1.57    1.39
  -8 -20  16    1.61    1.28
  20 -18   8    1.71    1.54
  18   8 -20    3.76    1.44
  20  18  -8    1.85    1.55
   8 -20  18    0.30    1.25
  20  18   8    2.72    1.47
  20 -18  -8    2.38    1.75
  -8 -20  18    2.25    1.43
  10 -20   0   42.96    2.90
 -10 -20   0   45.35    2.87
  20   0 -10   43.32    2.82
 -10 -20  -2   27.70    2.45
  20   2 -10   30.16    2.37
  10 -20   2   30.99    2.60
  10 -20  -2   28.19    2.54
 -10 -20   2   25.94    2.43
  20  -2 -10   24.45    2.29
  20   4 -10    4.34    1.38
  10 -20   4    2.11    1.26
 -10 -20  -4    2.36    1.22
  20  -4  10    1.52    1.20
  10 -20  -4    2.74    1.37
  20  -4 -10    1.49    1.24
 -10 -20   4    2.59    1.21
  20   4  10    0.88    1.01
  20  -6  10   27.66    2.37
 -10 -20  -6   30.98    2.42
  10 -20   6   32.93    2.71
  20   6 -10   29.55    2.43
  20  -6 -10   31.89    2.43
  10 -20  -6   29.92    2.59
 -10 -20   6   28.86    2.57
  20   6  10   29.12    2.27
   8  10 -20    3.86    1.24
  10 -20   8    2.82    1.38
  20  -8  10    2.58    1.28
  20   8 -10    1.23    1.24
 -10 -20  -8    2.14    1.16
  20   8  10    2.27    1.13
  10 -20  -8    5.08    1.50
 -10 -20   8    2.09    1.28
  20  -8 -10    2.55    1.30
  10  10 -20    8.17    1.46
  20 -10  10    7.70    1.66
  10 -20  10   13.78    1.96
  20  10 -10   10.15    1.76
 -10 -20 -10   11.04    1.63
 -10 -20  10    9.37    1.67
  20  10  10   10.87    1.56
  20 -10 -10    9.29    1.75
  10 -20 -10   10.31    1.87
  10 -20  12   19.26    2.25
  20  12 -10   17.69    2.16
  12  10 -20   16.47    1.88
  20 -12  10   18.23    2.18
  10 -20 -12   19.00    2.18
  20 -12 -10   16.67    2.13
  20  12  10   17.80    1.87
 -10 -20  12   15.12    2.09
  20 -14  10    2.33    1.43
  10 -20  14   -0.78    1.18
  20  14 -10    2.41    1.45
  14  10 -20    1.36    1.32
  20 -14 -10    1.72    1.47
 -10 -20  14    1.61    1.32
  10 -20 -14    1.02    1.38
  10 -20  16    6.95    1.74
  20  16 -10    5.45    1.61
  20 -16  10    9.17    1.89
  16  10 -20    6.13    1.60
  20 -16 -10    4.92    1.75
 -10 -20  16    9.34    1.80
  18  10 -20    1.55    1.41
  20 -18  10   -1.40    1.34
  20  18 -10    1.32    1.54
 -10 -20  18    0.95    1.29
  20 -18 -10    2.49    1.64
  12 -20   0   11.11    1.86
  20   0 -12   14.67    1.80
  12 -20   2   21.51    2.31
  20   2 -12   24.09    2.24
  20  -2 -12   24.25    2.27
  12 -20  -2   23.20    2.42
  12 -20   4   -0.04    1.14
 -12 -20  -4   -0.57    1.09
  20  -4  12   -1.28    0.97
  20   4 -12    1.12    1.21
  12 -20  -4   -0.11    1.19
  20  -4 -12   -0.77    1.05
  20   6 -12    2.98    1.33
  12 -20   6    1.37    1.24
 -12 -20  -6    1.57    1.15
  20  -6  12    0.16    0.62
  20  -6 -12    2.80    1.29
  12 -20  -6    0.73    1.28
  -6 -12  20    3.07    1.07
  12 -20   8    6.14    1.56
 -12 -20  -8    6.16    1.40
  20  -8  12    9.59    1.55
  20   8 -12    8.92    1.73
  20  -8 -12    7.42    1.56
  12 -20  -8    8.24    1.78
  20  10 -12   17.34    2.17
  20 -10  12   15.03    1.94
 -12 -20 -10   14.66    1.90
  12 -20  10   16.45    2.11
  10  12 -20   18.19    2.00
  20 -10 -12   12.82    1.92
  12 -20 -10   20.00    2.36
  12 -20  12   49.17    3.16
  12  12 -20   48.78    3.07
  20 -12  12   46.20    3.10
  20  12 -12   45.00    3.15
  12 -20 -12   57.07    3.45
  20 -12 -12   50.22    3.28
  20 -14  12    4.14    1.56
  12 -20  14    2.93    1.49
  14  12 -20    2.89    1.49
  20  14 -12    3.28    1.58
  12 -20 -14    4.93    1.67
  20 -14 -12    5.32    1.65
  12 -20  16   -0.65    1.26
  20  16 -12    2.64    1.58
  16  12 -20    2.12    1.44
  20 -16  12    2.58    1.53
 -12 -20  16    1.55    1.31
  20 -16 -12    2.07    1.57
  20  18 -12    1.83    1.69
  20 -18  12   -0.84    1.46
  18  12 -20    3.43    1.67
  20 -18 -12    0.80    1.60
 -12 -20  18    0.99    1.37
  20   0 -14    5.94    1.45
  14 -20   0    4.17    1.47
  20   2 -14    3.03    1.32
  14  20  -2    3.65    1.46
  14 -20   2    5.43    1.53
  14 -20  -2    4.36    1.58
  20  -2 -14    4.01    1.36
  20   4 -14    3.30    1.27
  14  20  -4    2.60    1.45
  14 -20   4    4.51    1.55
  20  -4 -14    1.97    1.24
  -4 -14  20    3.53    1.19
  14 -20  -4    1.34    1.43
  14 -20   6    1.00    1.33
  20   6 -14    1.02    1.28
  14  20  -6    1.65    1.47
  14 -20  -6    0.12    1.31
  20  -6 -14   -0.31    1.19
  -6 -14  20    3.08    0.85
  14 -20   8    1.82    1.37
  20   8 -14    0.84    1.25
 -14 -20  -8    0.13    1.09
  14  20  -8    0.57    1.38
  -8 -14  20    1.21    0.99
  20  -8 -14   -0.65    1.15
  14 -20  -8    0.80    1.36
  14 -20  10   -0.51    1.22
  14  20 -10    3.18    1.61
  20  10 -14   -0.81    1.31
  20 -10 -14    2.93    1.50
  14 -20 -10    2.52    1.55
  12  14 -20    5.10    1.64
  20  12 -14    3.36    1.60
  14 -20  12    3.73    1.52
  20 -12  14    8.47    1.68
  14 -20 -12    4.80    1.80
  20 -12 -14    4.29    1.58
  20 -14  14    0.43    1.35
  14 -20  14   -0.10    1.39
  20  14 -14    0.54    1.53
  14  14 -20    0.54    1.42
  14 -20 -14   -0.32    1.53
  20 -14 -14    0.27    1.43
  20  16 -14    5.47    1.78
  16  14 -20    8.68    1.92
  14 -20  16    9.14    1.89
  20 -16  14    2.38    1.53
  20 -16 -14    6.01    1.89
  20 -18  14    0.50    1.51
  18  14 -20   -1.55    1.44
  20  18 -14    1.89    1.72
  20 -18 -14    1.14    1.63
  16 -20   0    5.67    1.60
  20   0 -16    8.75    1.64
  16  20   0    4.99    1.59
  16  20  -2   -0.02    1.37
  16 -20   2    1.03    1.38
  20   2 -16    2.07    1.29
  16  20   2   -0.46    1.30
  16 -20  -2    0.47    1.32
  20  -2 -16    0.11    1.16
  20   4 -16    4.69    1.42
  16  20  -4    4.44    1.57
  16 -20   4    3.52    1.48
  16  20   4    2.84    1.56
  20  -4 -16    3.22    1.36
  -4 -16  20    1.15    0.62
  16 -20  -4    1.44    1.33
  16 -20   6   -2.00    1.16
  16  20  -6    0.47    1.42
  20   6 -16   -0.14    1.25
  -6 -16  20   -0.41    1.05
  20  -6 -16    0.16    1.19
  16 -20  -6    1.76    1.52
  16 -20   8    1.39    1.44
  16  20  -8    1.25    1.46
  20   8 -16    2.13    1.40
  -8 -16  20    0.28    1.16
  16 -20  -8    2.45    1.41
  20  -8 -16    0.45    1.25
  16 -20  10    6.00    1.75
  16  20 -10    9.55    1.97
  20  10 -16    5.65    1.71
  20 -10 -16    6.72    1.67
 -10 -16  20    9.14    1.72
  16 -20 -10    4.68    1.78
  16 -20  12    2.00    1.51
  20  12 -16    1.41    1.48
  16  20 -12    2.95    1.62
  16 -20 -12   -0.43    1.51
  20 -12 -16    2.42    1.52
  14  16 -20    5.34    1.87
  16 -20  14    3.16    1.61
  16  20 -14    5.05    1.88
  20  14 -16    6.71    1.82
  20 -14 -16    7.80    1.85
  16 -20 -14    5.26    1.87
  16  16 -20    4.29    1.87
  16  20 -16    4.73    1.89
  20  16 -16    6.71    1.84
  16 -20  16    4.34    1.66
  16 -20 -16    3.03    1.75
  20 -16 -16    4.66    1.81
  20  18 -16    4.59    1.96
  18  16 -20    7.84    2.03
  20 -18 -16    6.48    1.99
  20   0 -18    0.91    1.27
  18 -20   0   -1.22    1.29
  18  20   0   -0.24    1.40
  18 -20   2    1.64    1.53
  20   2 -18   -0.71    1.20
  18  20  -2    1.16    1.49
  20  -2 -18    1.55    1.26
  18  20   2    0.81    1.47
  -2 -18  20    2.20    1.25
  18 -20  -2    0.06    1.41
  20   4 -18   -0.54    1.26
  18  20  -4    1.41    1.55
  18 -20   4    0.41    1.47
  20  -4 -18    1.17    1.26
  18  20   4    0.33    1.42
  -4 -18  20    1.23    1.24
  18 -20  -4   -0.29    1.34
  18 -20   6   -0.73    1.50
  20   6 -18    1.70    1.39
  18  20  -6    2.79    1.60
  20  -6 -18    2.92    1.45
  18 -20  -6    4.55    1.66
  18  20   6    3.49    1.65
  -6 -18  20    2.80    1.36
  20   8 -18    2.11    1.49
  18 -20   8    1.48    1.56
  18  20  -8    1.53    1.54
  20  -8 -18    0.74    1.29
  -8 -18  20    1.62    1.28
  18 -20  -8    0.03    1.65
  20  10 -18    1.96    1.55
  18  20 -10    3.03    1.63
  18 -20  10   -1.30    1.47
 -10 -18  20    0.75    1.28
  18 -20 -10    0.69    1.67
  20 -10 -18    0.28    1.39
  20  12 -18    2.07    1.54
  18 -20  12    0.83    1.53
  18  20 -12    2.53    1.73
  20 -12 -18    2.36    1.51
 -12 -18  20    0.21    1.23
  18 -20 -12    1.52    1.72
  20  14 -18   -0.65    1.47
  18 -20  14   -0.49    1.54
  18  20 -14   -1.33    1.55
  20 -14 -18   -0.75    1.45
  18 -20 -14    0.00    1.58
  18  20 -16    6.89    2.08
  20  16 -18    4.20    1.88
  16  18 -20    4.25    1.92
  18 -20 -16    7.04    2.02
  18  18 -20    1.02    1.82
  20  18 -18   -1.38    1.71
  18  20 -18    1.09    1.89
  20 -20   0    2.95    1.71
  20   0 -20    2.58    1.37
  20  20   0    5.81    1.83
  20  20  -2   14.69    2.23
  20 -20   2   14.10    2.36
  20   2 -20   12.29    1.89
  20  -2 -20   12.81    1.92
  20 -20  -2   15.47    2.32
  -2 -20  20   10.93    1.85
  20  20   2   15.27    2.28
  20  20  -4    8.40    1.98
  20 -20   4    4.47    1.76
  20   4 -20    5.85    1.66
  20  -4 -20    5.86    1.60
  20 -20  -4    5.86    1.75
  -4 -20  20    5.12    1.63
  20  20   4    7.15    1.88
  20  20  -6   -1.80    1.43
  20   6 -20   -0.38    1.29
  20 -20   6   -0.08    1.39
  20 -20  -6    0.29    1.47
  -6 -20  20    0.02    1.25
  20  20   6   -1.80    1.38
  20  20  -8    0.07    1.57
  20   8 -20    0.97    1.47
  20 -20   8    0.84    1.57
  20 -20  -8    0.83    1.77
  -8 -20  20    2.76    1.52
  20  20   8    0.04    1.49
  20  20 -10    7.89    2.10
  20  10 -20    9.95    2.07
  20 -20  10    9.28    2.18
  20 -20 -10    6.14    2.00
 -10 -20  20   11.78    2.02
  20  20 -12   12.46    2.27
  20  12 -20   17.74    2.40
  20 -20  12   15.28    2.37
  20 -20 -12   13.33    2.40
 -12 -20  20   11.29    2.09
  20  20 -14    1.21    1.85
  20  14 -20    1.76    1.76
  20 -20  14    1.18    1.68
  20 -20 -14    1.78    1.80
 -14 -20  20    0.21    1.44
  20  16 -20    0.71    1.82
  20 -20 -16   -0.70    1.69
  -1 -21  -1   92.28    4.43
  21  -1   1  114.62    4.76
  21   1  -1  106.95    4.63
   1 -21   1  102.70    4.60
   1 -21  -1  104.12    4.64
  21  -1  -1  111.41    4.67
  -1 -21   1   98.98    4.55
  21   1   1  107.42    4.61
   1 -21   3    0.10    1.08
  21  -3   1   -1.18    1.19
  21   3  -1    0.08    1.08
  -1 -21  -3    0.63    1.15
  21   3   1    0.31    1.08
  21  -3  -1   -0.86    1.15
   1 -21  -3   -0.08    1.15
  -1 -21   3   -0.25    1.12
  21  -5   1   -0.49    1.17
  21   5  -1   -3.16    0.91
   1 -21   5    0.99    1.19
  -1 -21  -5   -0.53    1.02
  -1 -21   5    0.12    1.14
  21   5   1    1.83    1.15
  21  -5  -1    0.26    1.18
   1 -21  -5    1.18    1.16
  21  -7   1    0.21    1.16
   1 -21   7    1.04    1.24
  21   7  -1    0.04    1.14
  -1 -21  -7    2.97    1.23
  -1 -21   7   -0.62    1.09
  21   7   1    0.65    1.12
   1 -21  -7   -0.66    1.13
  21  -7  -1   -0.51    1.10
  -1 -21  -9   71.98    3.62
  21   9  -1   72.22    3.80
   1 -21   9   68.17    3.64
  21  -9   1   76.76    3.81
  21  -9  -1   65.58    3.64
  21   9   1   72.93    3.76
   1 -21  -9   75.13    3.72
  -1 -21   9   63.07    3.59
  -1 -21 -11   25.59    2.32
  21 -11   1   24.71    2.48
   1 -21  11   26.65    2.45
  21  11  -1   34.13    2.55
   1 -21 -11   26.61    2.34
  -1 -21  11   26.77    2.46
  21 -11  -1   27.41    2.61
  21  11   1   22.74    2.29
  21  13  -1   12.78    1.93
   1 -21  13   11.24    1.82
  21 -13   1   11.88    1.99
  21  13   1   11.14    1.84
   1 -21 -13   11.31    1.71
  21 -13  -1   13.06    1.98
  -1 -21  13   14.59    1.93
  21  15  -1    2.27    1.45
  21 -15   1   -2.23    1.17
   1 -21  15    1.23    1.25
  21 -15  -1    0.15    1.33
  21  15   1   -1.47    1.17
  -1 -21  15   -0.49    1.12
  21 -17   1   -1.73    1.29
   1 -21  17   -0.36    1.18
  21  17  -1    1.46    1.47
  -1 -21  17    2.46    1.29
  21 -17  -1   -1.25    1.33
  21  17   1   -0.62    1.37
   1 -21  19   14.12    2.04
  21 -19   1   10.45    2.23
  21  19  -1   14.95    2.31
  21 -19  -1   11.97    2.25
  21  19   1   12.98    2.16
  -1 -21  19   16.15    2.06
  21  -1   3    1.54    1.18
  -3 -21  -1    0.99    1.21
  21   1  -3   -0.90    1.03
   3 -21   1    0.55    1.11
   3 -21  -1    0.17    1.17
  21  -1  -3    0.98    1.14
  -3 -21   1   -1.69    1.12
  21   1   3    0.66    1.14
  21   3  -3   65.71    3.45
   3 -21   3   62.43    3.45
  -3 -21  -3   65.29    3.50
  21  -3   3   67.89    3.54
  21   3   3   65.53    3.43
   3 -21  -3   68.00    3.53
  21  -3  -3   66.10    3.52
  -3 -21   3   66.47    3.55
  21   5  -3   -0.67    1.05
  -3 -21  -5    0.36    1.12
   3 -21   5   -1.11    1.06
  21  -5   3   -0.93    1.20
   3 -21  -5   -0.06    1.14
  -3 -21   5   -0.07    1.15
  21  -5  -3   -1.96    1.02
  21   5   3   -1.60    0.98
  21  -7   3   54.38    3.29
   3 -21   7   56.74    3.26
  21   7  -3   60.39    3.32
  -3 -21  -7   58.90    3.19
  21  -7  -3   60.73    3.36
  -3 -21   7   61.01    3.41
   3 -21  -7   57.46    3.34
  -3 -21  -9   14.00    1.85
  21  -9   3   12.76    1.87
  21   9  -3   16.25    2.03
   3 -21   9   18.37    2.06
  21   9   3   17.32    1.97
  21  -9  -3   18.02    2.09
   3 -21  -9   14.73    1.91
  -3 -21   9   16.65    2.07
  21 -11   3   -0.58    1.16
  -3 -21 -11    2.70    1.24
   3 -21  11    2.33    1.25
  21  11  -3   -0.26    1.14
  21  11   3    1.50    1.21
  21 -11  -3    2.01    1.24
   3 -21 -11   -0.43    1.14
  -3 -21  11    1.54    1.25
  21 -13   3   -0.53    1.26
  21  13  -3    1.25    1.27
   3 -21  13    0.58    1.20
  21  13   3    2.48    1.34
  -3 -21  13    0.66    1.21
   3 -21 -13   -0.57    1.11
  21 -13  -3   -3.46    1.04
   3 -21  15    7.75    1.65
  21  15  -3    7.06    1.73
  21 -15   3    5.21    1.71
  21  15   3    8.78    1.76
  -3 -21  15    8.05    1.63
  21 -15  -3    4.29    1.56
   3 -21  17   26.81    2.53
  21 -17   3   28.15    2.83
  21  17  -3   24.51    2.63
  21  17   3   27.57    2.65
  -3 -21  17   26.38    2.55
  21 -17  -3   24.47    2.68
   3 -21  19    2.91    1.41
  21 -19   3    2.60    1.61
  21  19  -3    0.67    1.52
  21 -19  -3    1.67    1.63
  -3 -21  19    4.33    1.53
  21  19   3    2.76    1.69
  -5 -21  -1    0.11    1.08
   5 -21   1    0.33    1.12
  21   1  -5   -0.25    1.01
  21  -1   5   -2.52    0.96
   5 -21  -1   -2.32    1.09
  21   1   5   -0.30    1.02
  -5 -21   1    0.17    1.12
  21  -1  -5    0.85    1.12
  21  -3   5    1.35    1.16
  -5 -21  -3    0.77    1.18
   5 -21   3   -0.98    1.08
  21   3  -5   -0.21    1.02
  21  -3  -5    0.03    1.08
  21   3   5   -0.41    1.00
   5 -21  -3    0.06    1.21
  -5 -21   3   -0.61    1.13
  21  -5   5   -0.80    1.13
  21   5  -5    1.08    1.17
   5 -21   5    0.78    1.17
  -5 -21  -5   -1.00    1.06
  -5 -21   5    0.19    1.10
   5 -21  -5    1.66    1.19
  21   5   5   -0.32    1.05
  21  -5  -5   -1.51    1.02
  -5 -21  -7    1.02    1.18
   5 -21   7   -1.17    1.09
  21   7  -5    0.65    1.16
  21  -7   5    0.00    1.15
  21   7   5    0.90    1.17
  -5 -21   7    0.67    1.09
  21  -7  -5   -0.04    1.16
   5 -21  -7   -0.18    1.13
  21  -9   5    2.44    1.27
   5 -21   9    0.10    1.16
  21   9  -5    1.98    1.31
  -5 -21  -9    1.21    1.13
  -5 -21   9    0.04    1.09
  21  -9  -5   -1.47    1.06
   5 -21  -9   -1.08    1.09
  21   9   5    1.00    1.17
   5 -21  11    0.42    1.18
  -5 -21 -11   -0.45    1.02
  21  11  -5   -0.57    1.18
  21 -11   5   -0.96    1.19
  21  11   5   -0.65    1.09
   5 -21 -11    2.92    1.30
  -5 -21  11   -1.32    1.07
  21 -11  -5    0.84    1.17
  21  13  -5    1.91    1.34
  21 -13   5    1.86    1.35
   5 -21  13    2.00    1.26
  21  13   5   -1.07    1.11
  21 -13  -5    1.96    1.34
   5 -21 -13    2.38    1.38
  -5 -21  13    2.00    1.24
  21 -15   5   -1.97    1.22
  21  15  -5   -0.64    1.38
   5 -21  15    1.55    1.26
  21 -15  -5   -0.79    1.25
  -5 -21  15   -0.64    1.11
  21  15   5   -0.38    1.20
   5 -21  17    1.33    1.36
  17   5 -21    2.60    1.33
  21  17  -5    1.03    1.47
  21 -17   5    3.32    1.55
  21 -17  -5   -0.55    1.37
  21  17   5   -0.63    1.38
  -5 -21  17    1.62    1.28
  19   5 -21    0.54    1.31
  21  19  -5    0.16    1.47
  21 -19   5    1.72    1.64
  21  19   5    1.70    1.56
  21 -19  -5   -0.06    1.44
  -5 -21  19    1.20    1.33
  21   1  -7    2.55    1.22
  21  -1   7    1.11    1.11
  -7 -21  -1    0.32    1.15
   7 -21   1   -0.06    1.10
   7 -21  -1   -0.70    1.15
  -7 -21   1    1.45    1.26
  21   1   7    2.19    1.17
  21  -1  -7    2.49    1.22
   7 -21   3   55.88    3.29
  -7 -21  -3   63.31    3.42
  21  -3   7   61.38    3.27
  21   3  -7   60.21    3.30
   7 -21  -3   58.00    3.37
  -7 -21   3   56.11    3.37
  21  -3  -7   59.10    3.31
  -7 -21  -5    0.46    1.12
   7 -21   5    0.75    1.22
  21  -5   7   -0.83    1.11
  21   5  -7    0.27    1.10
  21   5   7   -1.11    1.05
  -7 -21   5   -0.29    1.06
  21  -5  -7    0.00    1.04
   7 -21  -5    1.32    1.26
  21   7  -7   98.67    4.57
   7 -21   7  100.18    4.59
  -7 -21  -7  103.09    4.51
  21  -7   7  101.79    4.52
  -7 -21   7  104.07    4.71
  21  -7  -7   97.70    4.57
   7 -21  -7  100.99    4.58
   7 -21   9   10.17    1.76
  21   9  -7    7.71    1.59
  21  -9   7    4.73    1.46
  -7 -21  -9    6.91    1.48
  21   9   7    8.34    1.50
  21  -9  -7    8.71    1.71
  -7 -21   9    7.11    1.67
   7 -21  -9    8.88    1.65
  21 -11   7   37.18    2.86
  21  11  -7   34.66    2.75
  -7 -21 -11   42.83    2.73
   7 -21  11   32.89    2.71
  21  11   7   40.29    2.77
   7 -21 -11   39.04    2.84
  21 -11  -7   42.05    2.94
  -7 -21  11   34.00    2.76
  21  13  -7    4.79    1.52
   7 -21  13    2.00    1.38
  21 -13   7    4.53    1.60
  21 -13  -7    1.82    1.38
  21  13   7    2.16    1.31
   7 -21 -13    1.55    1.31
  -7 -21  13    2.31    1.36
   7 -21  15    3.19    1.43
  21 -15   7    2.59    1.52
  21  15  -7    3.18    1.52
  -7 -21  15    2.46    1.31
  21  15   7    3.67    1.44
  21 -15  -7    3.01    1.65
  17   7 -21   50.68    3.21
  21 -17   7   54.40    3.62
   7 -21  17   54.95    3.36
  21  17  -7   53.59    3.57
  21 -17  -7   49.85    3.53
  -7 -21  17   50.28    3.36
  21  17   7   48.82    3.34
  19   7 -21    4.11    1.58
  21  19  -7    1.50    1.66
  21 -19   7    4.07    1.75
  21  19   7    2.23    1.59
  21 -19  -7    3.00    1.83
  -7 -21  19    2.03    1.46
   9 -21   1   67.54    3.69
  -9 -21  -1   72.48    3.73
  21  -1   9   74.76    3.59
  21   1  -9   63.89    3.56
  21  -1  -9   73.30    3.70
  -9 -21   1   68.05    3.62
  21   1   9   72.47    3.50
   9 -21  -1   67.55    3.67
  21  -3   9   11.68    1.67
  21   3  -9   13.83    1.84
  -9 -21  -3   17.26    2.04
   9 -21   3   15.28    2.03
   9 -21  -3   16.50    2.07
  21  -3  -9   14.76    1.90
  -9 -21   3   17.31    2.09
  -9 -21  -5    0.15    1.12
  21  -5   9    0.17    1.13
   9 -21   5   -1.28    1.08
  21   5  -9    0.93    1.15
  21   5   9    1.49    1.02
   9 -21  -5    0.46    1.22
  -9 -21   5   -1.18    0.98
  21  -5  -9   -2.08    1.07
   9 -21   7    6.80    1.62
  21  -7   9    9.59    1.63
  21   7  -9    9.43    1.64
  -9 -21  -7    5.94    1.51
   9 -21  -7   10.39    1.83
  21   7   9    2.73    1.02
  -9 -21   7   10.77    1.78
  21  -7  -9    8.18    1.58
  -9 -21  -9   28.06    2.37
  21   9  -9   28.63    2.57
   9 -21   9   30.05    2.67
  21  -9   9   30.38    2.58
  -9 -21   9   33.29    2.61
   9 -21  -9   28.86    2.62
  21  -9  -9   34.16    2.63
  21 -11   9   46.97    3.13
   9 -21  11   47.67    3.13
  21  11  -9   44.70    3.08
  -9 -21  11   44.70    3.05
  21  11   9   41.16    2.77
   9 -21 -11   42.68    3.11
  21 -11  -9   49.03    3.21
  21  13  -9   15.62    2.12
   9 -21  13   12.88    1.98
  21 -13   9   19.66    2.32
  21  13   9   14.33    1.90
  -9 -21  13   17.92    2.22
   9 -21 -13   19.31    2.27
  21 -13  -9   17.95    2.30
  15   9 -21    1.14    1.31
  21 -15   9   -0.39    1.41
  21  15  -9    3.53    1.58
   9 -21  15   -0.88    1.24
  -9 -21  15    1.16    1.35
  21  15   9    0.36    1.28
  21 -15  -9    0.04    1.47
  21  17  -9   -0.02    1.41
   9 -21  17    1.18    1.37
  21 -17   9    0.29    1.50
  17   9 -21    0.06    1.32
  -9 -21  17    1.15    1.34
  21 -17  -9   -1.09    1.47
  21  19  -9   10.72    2.16
  19   9 -21   14.37    2.12
  21 -19   9   14.44    2.40
  21 -19  -9   15.88    2.44
  -9 -21  19   12.48    2.13
  21  -1  11   21.87    2.08
 -11 -21  -1   24.20    2.39
  11 -21   1   28.28    2.54
  21   1 -11   29.21    2.38
  21  -1 -11   24.86    2.34
  11 -21  -1   32.59    2.74
 -11 -21   1   27.08    2.58
  21  -3  11    0.26    0.55
 -11 -21  -3   -0.30    1.03
  11 -21   3   -0.12    1.18
  21   3 -11    2.59    1.31
  21  -3 -11   -0.76    1.10
 -11 -21   3    1.87    1.18
  11 -21  -3    4.25    1.44
  21   3  11   -0.81    0.99
  21  -5  11   -0.23    1.12
  11 -21   5   -0.44    1.15
 -11 -21  -5    1.09    1.18
  21   5 -11   -0.18    1.09
  11 -21  -5   -1.20    1.16
  21  -5 -11    0.05    1.25
 -11 -21   5    1.52    1.22
  21   5  11   -0.41    0.96
  21  -7  11   35.66    2.61
 -11 -21  -7   32.02    2.56
  21   7 -11   35.42    2.68
  11 -21   7   34.74    2.80
 -11 -21   7   37.89    2.76
  21  -7 -11   36.20    2.68
  11 -21  -7   32.28    2.82
  11 -21   9   44.48    3.05
  21  -9  11   46.88    2.99
 -11 -21  -9   47.29    2.98
  21   9 -11   38.06    2.98
  21  -9 -11   45.12    3.05
  11 -21  -9   50.63    3.31
 -11 -21   9   45.67    3.13
  21 -11  11   -2.34    1.22
  11 -21  11    0.60    1.26
  21  11 -11    0.62    1.35
  21 -11 -11   -0.70    1.30
  11 -21 -11    0.53    1.39
 -11 -21  11    1.05    1.35
  13  11 -21    6.48    1.63
  21 -13  11    4.36    1.63
  11 -21  13    6.19    1.65
  21  13 -11    4.54    1.67
  11 -21 -13    4.73    1.63
 -11 -21  13    6.54    1.63
  21 -13 -11    4.26    1.56
  15  11 -21    3.30    1.54
  11 -21  15    3.81    1.53
  21  15 -11    2.75    1.62
  21 -15  11    3.82    1.63
 -11 -21  15    5.19    1.58
  11 -21 -15    4.21    1.67
  21 -15 -11    2.61    1.62
  17  11 -21   17.94    2.29
  11 -21  17   19.51    2.34
  21  17 -11   17.34    2.36
  21 -17  11   17.37    2.35
 -11 -21  17   20.79    2.42
  21 -17 -11   16.88    2.44
  21 -19  11    9.63    2.12
  21  19 -11   17.62    2.49
  19  11 -21   18.84    2.37
 -11 -21  19   18.39    2.40
  21 -19 -11   14.99    2.43
  21   1 -13   14.38    1.92
  13 -21   1   12.57    2.01
  13 -21  -1   11.62    1.89
  21  -1 -13   12.18    1.82
  21   3 -13    1.07    1.25
 -13 -21  -3    1.62    1.24
  13 -21   3    0.42    1.31
  13 -21  -3   -0.27    1.21
  21  -3 -13    0.04    1.23
  21   5 -13   -0.18    1.20
  13 -21   5    1.25    1.22
 -13 -21  -5    0.14    1.19
  21  -5 -13    1.63    1.29
  13 -21  -5    0.83    1.35
  21  -7  13    0.93    1.00
  13 -21   7    0.55    1.35
 -13 -21  -7    3.83    1.39
  21   7 -13    0.96    1.35
  13 -21  -7    3.51    1.49
  21  -7 -13    4.39    1.42
  21   9 -13   16.34    2.10
  13 -21   9   12.48    2.06
 -13 -21  -9   13.89    1.88
  21  -9  13   11.77    1.73
  21  -9 -13   17.20    2.07
  13 -21  -9   19.01    2.41
  11  13 -21    5.17    1.63
  21 -11  13    7.73    1.70
  13 -21  11    7.78    1.78
  21  11 -13    7.54    1.76
  13 -21 -11    4.79    1.62
  21 -11 -13    2.85    1.54
  13  13 -21    1.97    1.47
  21 -13  13    1.45    1.41
  13 -21  13    0.89    1.38
  21  13 -13    3.23    1.57
  13 -21 -13   -0.10    1.48
  21 -13 -13    2.43    1.48
  21  15 -13    2.38    1.54
  15  13 -21   -1.67    1.35
  13 -21  15   -1.93    1.26
  21 -15  13    0.75    1.43
  13 -21 -15   -0.57    1.51
 -13 -21  15   -0.39    1.24
  21 -15 -13    0.01    1.50
  17  13 -21    2.69    1.61
  21 -17  13    1.04    1.59
  21  17 -13    0.66    1.56
 -13 -21  17    1.90    1.41
  21 -17 -13    5.14    1.79
  19  13 -21    5.24    1.81
  21  19 -13    6.36    2.01
  21 -19  13    3.42    1.85
 -13 -21  19    7.04    1.86
  21 -19 -13    2.53    1.84
  21   1 -15    0.69    1.24
  15 -21   1   -2.19    1.13
  21  -1 -15    0.70    1.20
  15 -21  -1   -1.81    1.19
  15 -21   3    9.92    1.87
  15  21  -3    6.66    1.77
  21   3 -15    6.31    1.59
  15 -21  -3    5.59    1.70
  21  -3 -15    5.41    1.51
  15  21  -5    0.44    1.40
  21   5 -15    0.69    1.27
  15 -21   5   -2.82    1.09
  15 -21  -5    0.30    1.35
  21  -5 -15    0.18    1.23
  15 -21   7    3.18    1.53
  15  21  -7    2.82    1.58
 -15 -21  -7    1.81    1.27
  21   7 -15    5.24    1.60
  21  -7 -15    2.12    1.35
  15 -21  -7    2.01    1.46
  21   9 -15    0.33    1.42
 -15 -21  -9   -0.37    1.15
  15  21  -9   -0.43    1.43
  15 -21   9   -0.92    1.28
  21  -9 -15    2.98    1.47
  15 -21  -9    0.42    1.48
  -9 -15  21    0.42    1.17
  15 -21  11    2.79    1.50
  21  11 -15    4.86    1.67
  21 -11 -15    3.57    1.54
  15 -21 -11    6.62    1.90
  13  15 -21    0.17    1.42
  15 -21  13   -0.70    1.37
  21  13 -15   -1.20    1.41
  15 -21 -13   -1.19    1.49
  21 -13 -15   -1.26    1.41
  15  15 -21    1.44    1.61
  15 -21  15   -2.22    1.34
  21  15 -15    1.32    1.57
  21 -15 -15   -1.43    1.44
  15 -21 -15   -0.52    1.58
  21  17 -15    2.31    1.76
  17  15 -21    0.35    1.63
  21 -17 -15    2.82    1.72
  19  15 -21   -1.72    1.70
 -15 -21  19    1.40    1.43
  21 -19 -15    1.03    1.76
  17  21  -1    0.88    1.53
  17 -21   1   -0.78    1.30
  21   1 -17    2.24    1.36
  21  -1 -17   -1.58    1.16
  17  21   1    0.20    1.52
  17 -21  -1   -2.21    1.22
  17 -21   3   21.24    2.55
  21   3 -17   26.05    2.50
  17  21  -3   23.05    2.64
  17 -21  -3   25.34    2.71
  21  -3 -17   26.47    2.52
  17  21   3   25.59    2.62
  17  21  -5    1.13    1.55
  17 -21   5   -0.25    1.38
  21   5 -17   -0.33    1.37
  17 -21  -5   -0.32    1.50
  21  -5 -17   -0.43    1.26
  17 -21   7   50.38    3.52
  21   7 -17   54.96    3.40
  17  21  -7   42.11    3.34
  17 -21  -7   52.16    3.58
  21  -7 -17   49.89    3.28
  17  21  -9    1.83    1.54
  21   9 -17   -1.17    1.35
  17 -21   9   -1.56    1.26
  21  -9 -17   -0.66    1.37
  17 -21  -9   -0.41    1.44
  -9 -17  21    2.01    1.29
  21  11 -17   14.54    2.19
  17 -21  11   16.25    2.31
  17  21 -11   16.72    2.43
  21 -11 -17   15.99    2.16
  17 -21 -11   19.84    2.49
 -11 -17  21   18.08    2.22
  17  21 -13   -1.25    1.60
  21  13 -17    4.72    1.75
  17 -21  13    2.59    1.59
  17 -21 -13    3.10    1.80
  21 -13 -17   -1.70    1.44
  17 -21  15    1.20    1.66
  17  21 -15    2.06    1.81
  21  15 -17    3.16    1.78
  15  17 -21   -0.24    1.74
  21 -15 -17    4.92    1.84
  17 -21 -15    0.43    1.68
  21  17 -17    9.95    2.18
  17  17 -21    9.63    2.14
  21 -17 -17    6.17    2.00
  19  17 -21   -2.31    1.71
  19 -21   1   12.44    2.25
  19  21  -1   11.36    2.16
  21   1 -19   11.43    1.91
  19 -21  -1    6.96    1.89
  19  21   1   13.58    2.20
  21  -1 -19   13.28    1.97
  19  21  -3    4.51    1.75
  21   3 -19    2.68    1.50
  19 -21   3    1.75    1.59
  19 -21  -3    3.73    1.68
  19  21   3    3.09    1.71
  21  -3 -19    1.82    1.42
  19  21  -5    0.53    1.62
  21   5 -19    2.88    1.46
  19 -21   5   -2.57    1.38
  21  -5 -19   -0.82    1.25
  19 -21  -5    0.86    1.50
  19  21   5    3.16    1.66
  19 -21   7    0.77    1.60
  19  21  -7    4.27    1.82
  21   7 -19    4.40    1.60
  -7 -19  21    5.45    1.53
  19 -21  -7    3.84    1.75
  21  -7 -19    1.49    1.43
  19  21  -9   11.73    2.23
  19 -21   9   12.41    2.36
  21   9 -19   11.11    2.02
  21  -9 -19   13.22    2.08
  19 -21  -9   13.29    2.37
  -9 -19  21   15.64    2.15
  21  11 -19   18.16    2.42
  19  21 -11   16.14    2.48
  19 -21  11   14.74    2.34
 -11 -19  21   19.57    2.33
  19 -21 -11   15.48    2.50
  19 -21  13    4.90    1.88
  21  13 -19    6.82    1.89
  19  21 -13   10.44    2.19
  19 -21 -13    6.46    2.08
 -13 -19  21    4.22    1.65
  21  15 -19    3.23    1.86
  19 -21  15    1.56    1.67
  19 -21 -15   -3.05    1.57
  21  21  -1   14.22    2.35
  21 -21   1   11.00    2.11
  21 -21  -1   13.02    2.36
  21  21   1   11.98    2.27
  21  21  -3   10.83    2.20
  21   3 -21   12.33    2.03
  21 -21   3    9.55    2.09
  21 -21  -3    7.33    1.99
  21  21   3    9.76    2.10
  21  21  -5   -0.25    1.59
  21   5 -21    2.85    1.55
  21 -21   5   -0.88    1.61
  21 -21  -5   -0.24    1.62
  -5 -21  21    1.01    1.48
  21  21   5   -0.66    1.56
  21  21  -7   19.08    2.63
  21   7 -21   24.23    2.59
  21 -21   7   18.37    2.66
  21 -21  -7   22.47    2.85
  -7 -21  21   21.50    2.47
  21  21   7   17.46    2.42
  21  21  -9   21.00    2.76
  21   9 -21   20.27    2.55
  21 -21   9   21.94    2.79
  21 -21  -9   20.53    2.79
  -9 -21  21   22.24    2.58
  21  11 -21    1.55    1.62
  21 -21  11    1.42    1.76
  21 -21 -11    1.29    1.86
 -11 -21  21    0.37    1.43
  21  13 -21   -0.04    1.65
  21 -21  13    1.54    1.79
 -13 -21  21    0.71    1.47
  21 -21 -13   -1.58    1.83
   0 -22   0  128.68    5.42
  22   0   0  133.23    5.45
  22  -2   0    0.83    1.25
  22   2   0   -0.14    1.13
   0 -22  -2    1.40    1.24
   0 -22   2    1.73    1.16
  22   4   0    0.32    1.08
  22  -4   0   -0.99    1.07
   0 -22   4    0.37    1.09
   0 -22  -4   -2.94    1.01
   0 -22  -6    9.27    1.72
  22   6   0    9.89    1.71
  22  -6   0   10.85    1.78
   0 -22   6   10.46    1.76
  22  -8   0   22.92    2.37
   0 -22   8   27.07    2.45
   0 -22  -8   24.90    2.31
  22   8   0   21.74    2.27
   0 -22  10   35.66    2.66
   0 -22 -10   31.86    2.63
  22 -10   0   35.97    2.78
   0 -22 -12    2.82    1.38
   0 -22  12    4.04    1.44
  22 -12   0    4.95    1.61
  22  12   0    5.91    1.58
   0 -22  14    0.89    1.25
  22  14   0   -1.48    1.22
  22 -14   0   -0.56    1.27
   0 -22  16    5.88    1.56
  22  16   0    8.12    1.85
  22 -16   0    5.79    1.75
   0 -22  18    4.49    1.54
  22  18   0    3.71    1.68
  22 -18   0    5.89    1.92
  22  20   0   15.51    2.46
   0 -22  20   13.70    2.08
  22 -20   0    4.53    1.96
  -2 -22   0    3.03    1.35
  22   0  -2    0.75    1.12
   2 -22   0    1.83    1.26
  22   0   2    1.03    1.23
  -2 -22  -2   27.95    2.50
   2 -22   2   29.51    2.53
  22   2  -2   30.64    2.46
  22  -2   2   22.65    2.28
   2 -22  -2   28.36    2.52
  22  -2  -2   32.62    2.53
  22   2   2   28.61    2.38
  -2 -22   2   33.26    2.57
  22  -4   2    5.19    1.49
   2 -22   4    5.45    1.46
  -2 -22  -4    4.62    1.40
  22   4  -2    4.99    1.44
   2 -22  -4    5.29    1.42
  22   4   2    3.94    1.33
  22  -4  -2    5.29    1.38
  -2 -22   4    7.94    1.55
  22  -6   2    1.29    1.27
  22   6  -2   -0.72    1.10
   2 -22   6    2.61    1.33
  -2 -22  -6    1.48    1.23
   2 -22  -6    1.99    1.32
  -2 -22   6    1.62    1.18
  22   6   2    1.21    1.20
  22  -6  -2    0.83    1.23
  22   8  -2    4.80    1.45
  -2 -22  -8    7.94    1.58
  22  -8   2    5.17    1.50
   2 -22   8    6.57    1.54
  22   8   2    5.74    1.47
  22  -8  -2    6.91    1.63
  -2 -22   8    6.15    1.59
   2 -22  -8    3.71    1.42
   2 -22  10    9.02    1.67
  22  10  -2    7.98    1.59
  -2 -22 -10    7.21    1.55
  22 -10   2    7.55    1.64
   2 -22 -10    4.89    1.45
  22  10   2    5.10    1.48
  22 -10  -2    7.97    1.73
  -2 -22  10    7.47    1.67
  22  12  -2   29.95    2.71
   2 -22  12   31.53    2.61
  22 -12   2   37.78    2.87
  -2 -22 -12   36.48    2.67
  22 -12  -2   33.11    2.69
  -2 -22  12   32.78    2.68
  22  12   2   33.60    2.69
   2 -22 -12   32.50    2.70
   2 -22  14    6.22    1.60
  22 -14   2    6.78    1.77
  22  14  -2    6.19    1.75
  22  14   2    3.69    1.51
  22 -14  -2    5.00    1.57
  -2 -22  14    3.00    1.36
  22  16  -2    2.96    1.60
   2 -22  16    0.65    1.30
  22 -16   2    2.65    1.58
  22 -16  -2    2.77    1.55
  22  16   2    2.00    1.51
  -2 -22  16    2.96    1.40
   2 -22  18    1.50    1.36
  22  18  -2    0.07    1.49
  22 -18   2    0.19    1.48
  22 -18  -2    1.35    1.55
  -2 -22  18    3.57    1.44
  22  18   2    1.48    1.52
  22  20  -2   10.25    2.16
  22 -20   2    9.50    2.19
  22  20   2   10.85    2.15
  22 -20  -2    9.27    2.11
  -2 -22  20    8.69    1.93
  -4 -22   0    0.11    1.17
  22   0   4    1.12    1.18
  22   0  -4   -0.18    1.07
   4 -22   0   -0.26    1.14
  22  -2   4    5.21    1.45
  22   2  -4    4.62    1.36
  -4 -22  -2    5.82    1.47
   4 -22   2    4.79    1.44
  22  -2  -4    6.30    1.44
  22   2   4    8.68    1.52
   4 -22  -2    5.18    1.49
  -4 -22   2    5.50    1.43
  -4 -22  -4    2.85    1.27
   4 -22   4    3.84    1.41
  22  -4   4    2.73    1.27
  22   4  -4    3.84    1.39
   4 -22  -4    4.41    1.45
  -4 -22   4    5.96    1.49
  22   4   4    4.22    1.32
  22  -4  -4    4.41    1.42
   4 -22   6    8.94    1.70
  22  -6   4    5.02    1.45
  -4 -22  -6    8.05    1.61
  22   6  -4    9.35    1.66
  22   6   4    7.10    1.47
   4 -22  -6    7.80    1.69
  22  -6  -4    9.17    1.64
  -4 -22   6    9.03    1.75
  22   8  -4    0.32    1.16
  22  -8   4    0.40    1.18
  -4 -22  -8    1.13    1.17
   4 -22   8    3.16    1.33
   4 -22  -8    0.85    1.25
  -4 -22   8   -0.29    1.13
  22  -8  -4    1.76    1.21
  22   8   4    0.18    1.16
  -4 -22 -10    1.16    1.27
  22 -10   4   -0.12    1.21
   4 -22  10    1.39    1.19
  22  10  -4    1.14    1.28
  22  10   4   -0.44    1.10
  -4 -22  10    2.05    1.25
   4 -22 -10    1.05    1.26
  22 -10  -4    3.49    1.39
   4 -22  12    7.38    1.62
  22  12  -4    7.62    1.72
  22 -12   4    5.82    1.67
  -4 -22  12    7.65    1.67
   4 -22 -12    5.58    1.46
  22  12   4    6.04    1.55
  22 -12  -4    4.53    1.56
  22  14  -4    2.69    1.48
  22 -14   4   -0.28    1.29
   4 -22  14    2.52    1.32
  22 -14  -4    0.50    1.31
  -4 -22  14    1.85    1.34
  22  14   4   -0.04    1.26
  22  16  -4    6.34    1.76
  22 -16   4    3.87    1.64
   4 -22  16    5.11    1.59
  22  16   4    4.08    1.57
  -4 -22  16    3.78    1.49
  22 -16  -4    1.56    1.48
   4 -22  18    1.94    1.41
  22  18  -4    1.50    1.59
  22 -18   4   -2.31    1.34
  22  18   4    2.29    1.61
  -4 -22  18    0.61    1.25
  22 -18  -4    0.07    1.44
  22 -20   4   -0.06    1.60
  22  20  -4   -1.63    1.59
  22  20   4    0.26    1.61
  -4 -22  20    2.63    1.49
  22 -20  -4    0.04    1.62
  -6 -22   0   10.57    1.77
  22   0  -6    7.95    1.57
   6 -22   0    9.50    1.73
  22   0   6    8.07    1.50
   6 -22   2    0.78    1.24
  22   2  -6    2.58    1.26
  -6 -22  -2    2.91    1.29
  22  -2   6    0.62    1.18
  22   2   6    0.34    1.13
  -6 -22   2    0.18    1.08
   6 -22  -2    3.24    1.29
  22  -2  -6    2.14    1.24
   6 -22   4    8.66    1.74
  22   4  -6    8.51    1.57
  -6 -22  -4    7.53    1.55
  22  -4   6   11.49    1.69
  22   4   6    6.11    1.47
   6 -22  -4    8.93    1.65
  -6 -22   4    7.29    1.64
  22  -4  -6    6.63    1.52
  -6 -22  -6    0.50    1.18
  22  -6   6    0.07    1.18
   6 -22   6    2.93    1.29
  22   6  -6    1.57    1.22
  22  -6  -6    3.30    1.36
   6 -22  -6    0.95    1.30
  -6 -22   6    0.54    1.24
  22   6   6    1.33    1.17
  -6 -22  -8    0.57    1.21
  22   8  -6    1.53    1.28
   6 -22   8    3.78    1.39
  22  -8   6    0.46    1.25
  22   8   6    1.37    1.20
  22  -8  -6   -0.15    1.15
   6 -22  -8    2.59    1.36
  -6 -22   8    1.21    1.28
  22  10  -6    2.14    1.37
  -6 -22 -10   -1.30    1.06
  22 -10   6    0.31    1.26
   6 -22  10   -2.98    1.06
   6 -22 -10   -0.97    1.17
  22  10   6    0.31    1.17
  22 -10  -6   -0.64    1.22
  -6 -22  10    0.79    1.21
  22  12  -6    0.55    1.33
  22 -12   6    0.59    1.35
   6 -22  12    2.61    1.39
  -6 -22  12    1.86    1.31
  22 -12  -6    1.43    1.39
  22  12   6    3.93    1.41
   6 -22 -12    0.16    1.25
  22  14  -6    1.25    1.48
   6 -22  14    0.23    1.28
  22 -14   6    1.69    1.50
  22 -14  -6    0.56    1.40
  -6 -22  14   -0.34    1.23
  22  14   6    0.64    1.29
   6 -22  16    1.58    1.32
  22 -16   6    0.54    1.50
  22  16  -6    1.73    1.55
  -6 -22  16    0.88    1.29
  22 -16  -6   -0.73    1.38
  22  16   6    0.55    1.44
  22  18  -6    3.09    1.69
   6 -22  18    3.21    1.58
  22 -18   6    0.87    1.51
  -6 -22  18    4.19    1.55
  22 -18  -6    6.26    1.95
  22  18   6    5.61    1.68
  22 -20   6   -1.98    1.50
  22  20  -6   -1.07    1.69
  22 -20  -6   -0.79    1.60
  -6 -22  20    1.22    1.39
  22  20   6   -1.91    1.49
   8 -22   0   24.36    2.39
  -8 -22   0   24.84    2.48
  22   0  -8   22.26    2.26
  22   0   8   18.94    1.98
  -8 -22  -2    8.46    1.59
  22   2  -8    8.42    1.53
   8 -22   2    5.54    1.55
  22  -2   8    4.54    1.35
   8 -22  -2    4.98    1.52
  22  -2  -8    6.27    1.55
  22   2   8    4.30    1.28
  -8 -22   2    8.01    1.67
  22   4  -8    1.04    1.17
  22  -4   8    0.83    1.20
   8 -22   4   -0.01    1.18
  -8 -22  -4    0.47    1.16
   8 -22  -4    0.89    1.16
  -8 -22   4    0.35    1.16
  22  -4  -8    0.93    1.22
  22   4   8    0.09    1.06
  22   6  -8    1.53    1.22
  -8 -22  -6    1.78    1.23
  22  -6   8   -0.52    1.15
   8 -22   6    1.06    1.18
  22  -6  -8    0.36    1.21
  22   6   8    0.64    1.12
   8 -22  -6    0.71    1.27
  -8 -22   6    0.39    1.19
  22   8  -8   15.74    2.06
  -8 -22  -8   20.27    2.14
   8 -22   8   21.23    2.26
  22  -8   8   21.41    2.23
  22   8   8   18.78    1.98
  22  -8  -8   17.47    2.17
  -8 -22   8   23.04    2.44
   8 -22  -8   27.09    2.56
   8 -22  10    8.83    1.77
  -8 -22 -10    9.83    1.68
  22 -10   8   14.09    1.95
  22  10  -8    9.12    1.76
  22  10   8   10.31    1.67
  -8 -22  10   13.07    1.94
   8 -22 -10   12.69    2.01
  22 -10  -8   11.05    1.89
  22 -12   8   -0.17    1.37
   8 -22  12   -1.63    1.17
  22  12  -8    0.65    1.34
  -8 -22  12    0.51    1.29
  22 -12  -8    0.35    1.36
  22  12   8    0.05    1.15
   8 -22 -12    1.26    1.38
   8 -22  14    1.20    1.34
  22 -14   8    0.65    1.45
  22  14  -8   -0.55    1.36
   8 -22 -14    0.69    1.43
  22 -14  -8    1.57    1.51
  22  14   8    1.84    1.40
  -8 -22  14    2.15    1.35
  22  16  -8   -0.50    1.42
   8 -22  16   -1.47    1.26
  22 -16   8   -1.34    1.39
  22 -16  -8    1.63    1.57
  22  16   8   -0.73    1.28
  -8 -22  16   -0.42    1.22
  22  18  -8   -0.05    1.53
  22 -18   8   -1.74    1.48
   8 -22  18    0.63    1.31
  22 -18  -8    2.28    1.77
  22  18   8    2.03    1.58
  -8 -22  18    1.25    1.40
  22  20  -8    5.06    2.04
  22 -20   8    0.93    1.68
  22 -20  -8    2.41    1.98
  -8 -22  20    5.00    1.70
  10 -22   0   31.32    2.59
  22   0 -10   34.01    2.58
 -10 -22   0   28.83    2.69
  22   2 -10    8.10    1.64
  10 -22   2    9.94    1.84
  22  -2  10    6.34    1.44
 -10 -22  -2    5.24    1.44
 -10 -22   2    5.87    1.48
  22  -2 -10    9.60    1.70
  10 -22  -2    5.49    1.47
  10 -22   4    0.40    1.27
  22  -4  10    0.54    1.14
  22   4 -10    1.93    1.32
 -10 -22  -4   -0.02    1.08
  22   4  10    0.53    0.57
  22  -4 -10    2.05    1.29
  10 -22  -4   -1.21    1.18
 -10 -22   4    0.55    1.17
 -10 -22  -6    0.49    1.18
  22  -6  10   -1.29    1.15
  22   6 -10   -1.19    1.16
  10 -22   6   -0.49    1.11
  22  -6 -10   -0.56    1.23
 -10 -22   6    0.50    1.19
  10 -22  -6   -0.59    1.25
  22   6  10    0.18    0.68
  10 -22   8   11.33    1.97
  22   8 -10   11.43    1.89
  22  -8  10   13.25    1.90
 -10 -22  -8   12.22    1.83
  22  -8 -10   10.71    1.89
  10 -22  -8   10.28    1.93
 -10 -22   8   10.94    1.90
 -10 -22 -10   36.55    2.79
  22 -10  10   37.71    2.88
  22  10 -10   36.25    2.85
  10 -22  10   34.93    3.03
 -10 -22  10   44.86    3.07
  10 -22 -10   35.69    3.02
  22 -10 -10   38.81    2.95
  10 -22  12    5.89    1.74
  22 -12  10    5.77    1.61
  22  12 -10    4.87    1.63
 -10 -22  12    5.62    1.65
  22 -12 -10    7.28    1.84
  10 -22 -12    2.03    1.49
  10 -22  14   -2.10    1.28
  22  14 -10    1.00    1.41
  22 -14  10    1.73    1.48
 -10 -22  14    1.07    1.28
  22 -14 -10   -1.19    1.40
  10 -22 -14   -1.14    1.48
  22  16 -10    9.05    1.99
  10 -22  16    6.77    1.78
  22 -16  10    5.27    1.80
  22 -16 -10    6.64    1.89
 -10 -22  16    7.60    1.86
  22  18 -10    0.54    1.60
  22 -18  10    0.10    1.50
  22 -18 -10    2.23    1.76
 -10 -22  18    3.50    1.51
  22 -20  10    5.00    1.80
  22 -20 -10    1.12    1.83
 -10 -22  20    4.66    1.72
 -12 -22   0    5.77    1.55
  12 -22   0    6.17    1.70
  22   0 -12    5.58    1.52
 -12 -22  -2   25.74    2.57
  12 -22   2   30.35    2.78
  22   2 -12   29.25    2.58
  22  -2 -12   30.40    2.52
  12 -22  -2   34.67    2.93
 -12 -22   2   28.81    2.67
  22   4 -12    6.99    1.60
 -12 -22  -4    7.17    1.59
  22  -4  12    2.51    1.01
  12 -22   4    5.15    1.50
 -12 -22   4    9.10    1.76
  12 -22  -4    4.86    1.52
  22  -4 -12    4.84    1.50
  12 -22   6    2.39    1.37
  22   6 -12   -0.45    1.26
 -12 -22  -6    0.70    1.18
  22  -6  12    0.39    0.98
 -12 -22   6    3.46    1.38
  22  -6 -12    1.05    1.32
  12 -22  -6    1.17    1.28
 -12 -22  -8    2.28    1.31
  22  -8  12    0.39    1.23
  22   8 -12    2.46    1.41
  12 -22   8    0.74    1.23
  22  -8 -12    1.13    1.37
  12 -22  -8   -1.27    1.36
 -12 -22   8    0.61    1.31
  22 -10  12    4.84    1.50
  22  10 -12    4.34    1.60
  12 -22  10    3.46    1.48
  22 -10 -12    1.12    1.42
  12 -22 -10    6.52    1.75
 -12 -22  10    3.65    1.49
  22  12 -12   12.78    2.07
  22 -12  12   12.55    2.06
  12 -22  12   13.04    2.06
  22 -12 -12   12.53    2.05
 -12 -22  12   14.04    2.14
  12 -22 -12   13.89    2.25
  12 -22  14    5.11    1.62
  22 -14  12    3.15    1.57
  22  14 -12    4.35    1.68
  22 -14 -12    4.05    1.74
 -12 -22  14    4.44    1.61
  12 -22 -14    3.51    1.75
  12 -22  16    1.65    1.47
  22 -16  12   -0.15    1.53
  22  16 -12   -1.06    1.47
 -12 -22  16    2.80    1.44
  22 -16 -12   -2.14    1.50
  22 -18  12   -1.12    1.48
  22  18 -12   -2.20    1.43
  22 -18 -12   -0.32    1.65
 -12 -22  18   -0.10    1.33
  20  12 -22    8.80    2.05
  22 -20  12    6.72    2.08
 -12 -22  20   10.52    2.11
  22 -20 -12   10.38    2.26
  14 -22   0    1.07    1.34
  22   0 -14    0.07    1.23
  14 -22   2    5.72    1.65
 -14 -22  -2    5.55    1.52
  22   2 -14    4.76    1.51
  22  -2 -14    4.15    1.47
  14 -22  -2    4.05    1.59
  22   4 -14   -0.18    1.23
 -14 -22  -4   -0.21    1.21
  14 -22   4    1.33    1.37
  14 -22  -4    2.80    1.45
  22  -4 -14    0.38    1.29
  14 -22   6    1.10    1.39
 -14 -22  -6   -0.03    1.12
  22   6 -14    0.58    1.36
  14 -22  -6   -1.89    1.31
  22  -6 -14    1.80    1.41
  14 -22   8    1.21    1.43
 -14 -22  -8    1.82    1.33
  22   8 -14    1.66    1.46
  22  -8 -14    1.83    1.38
  14 -22  -8   -0.13    1.32
  22  10 -14   -0.89    1.42
  14 -22  10    0.48    1.39
  14 -22 -10   -0.38    1.42
  22 -10 -14   -2.17    1.21
  22  12 -14    2.71    1.56
  14 -22  12    1.69    1.57
  14 -22 -12    2.49    1.58
  22 -12 -14    6.46    1.75
  14 -22  14    0.48    1.45
  22  14 -14    1.03    1.59
  14 -22 -14   -3.02    1.47
  22 -14 -14   -1.34    1.41
 -14 -22  14    0.74    1.31
  22  16 -14   11.63    2.21
  14 -22  16   10.65    2.09
  22 -16 -14    7.31    2.02
 -14 -22  16    5.66    1.76
  22 -18  14    2.15    1.65
  18  14 -22   -1.52    1.62
  22 -18 -14   -1.66    1.61
 -14 -22  18    0.41    1.35
  22 -20  14    2.56    1.73
  20  14 -22    0.03    1.79
  16 -22   0    4.06    1.64
  22   0 -16    7.81    1.68
  22   2 -16    0.87    1.34
  16 -22   2   -0.24    1.37
  16 -22  -2   -1.68    1.29
  22  -2 -16    0.77    1.25
  22   4 -16    6.08    1.64
  16 -22   4    2.68    1.56
  16 -22  -4    0.80    1.58
  22  -4 -16    2.80    1.51
 -16 -22  -6    1.62    1.29
  22   6 -16    2.43    1.59
  16 -22   6    1.20    1.49
  22  -6 -16    0.29    1.33
  16 -22  -6    1.57    1.57
  22   8 -16    1.34    1.36
 -16 -22  -8    1.31    1.26
  16 -22   8    0.73    1.47
  16 -22  -8   -1.13    1.38
  22  -8 -16    0.76    1.43
  22  10 -16    5.89    1.80
  16 -22  10    3.61    1.71
  16 -22 -10    4.24    1.73
  22 -10 -16    6.58    1.79
  22  12 -16    1.76    1.52
  16 -22  12    0.08    1.44
  22 -12 -16    2.25    1.59
  16 -22 -12    0.18    1.65
  22  14 -16    8.73    1.97
  16 -22  14    9.76    2.11
  22 -14 -16    5.69    1.85
  16 -22 -14    6.55    2.03
  22  16 -16    2.70    1.72
  16 -22  16    0.82    1.54
  22 -16 -16   -0.21    1.65
  18  16 -22    0.59    1.77
  22 -18 -16   -0.09    1.76
  22   0 -18    4.31    1.57
  18 -22   0    4.65    1.68
  18  22   0    6.90    1.93
  22   2 -18    2.45    1.46
  18  22  -2   -1.26    1.48
  18 -22   2   -2.20    1.39
  22  -2 -18    1.36    1.38
  18 -22  -2   -2.44    1.28
  22   4 -18    0.34    1.35
  18 -22   4   -1.84    1.42
  18  22  -4    0.81    1.59
  18 -22  -4    0.95    1.50
  22  -4 -18    0.86    1.33
  18  22  -6    4.26    1.80
  18 -22   6    2.98    1.64
  22   6 -18    1.67    1.51
  22  -6 -18    4.28    1.62
  18 -22  -6    5.41    1.80
  18  22  -8    0.21    1.62
  18 -22   8    1.44    1.63
  22   8 -18   -0.03    1.41
  18 -22  -8   -0.43    1.59
  22  -8 -18   -0.88    1.41
  18 -22  10    0.00    1.53
  18  22 -10    0.00    1.71
  22  10 -18    0.86    1.60
  22 -10 -18   -1.21    1.42
  18 -22 -10    1.12    1.82
  22  12 -18   -0.85    1.52
  18 -22  12   -1.97    1.51
  18  22 -12   -3.12    1.56
  22 -12 -18   -0.22    1.52
  18 -22 -12    1.20    1.84
  18 -22  14    2.40    1.75
  22  14 -18   -1.03    1.52
  22 -14 -18    4.15    1.85
  18 -22 -14   -0.54    1.77
  20 -22   0   16.60    2.48
  20  22   0   14.50    2.41
  22   0 -20    9.93    1.87
  20  22  -2   10.96    2.19
  22   2 -20   12.12    2.02
  20 -22   2    8.82    2.16
  22  -2 -20   11.52    1.96
  20 -22  -2    8.63    2.03
  20  22   2    7.84    2.02
  22   4 -20    1.08    1.51
  20 -22   4   -2.10    1.38
  20  22  -4   -4.22    1.41
  20  22   4    1.18    1.66
  20 -22  -4    1.12    1.50
  22  -4 -20    1.62    1.48
  22   6 -20    1.23    1.46
  20  22  -6    0.04    1.69
  20 -22   6   -1.04    1.52
  20 -22  -6    1.11    1.61
  20 -22   8    4.23    1.81
  20  22  -8    3.40    1.97
  22   8 -20    5.83    1.86
  20 -22  -8    3.80    2.08
  22  10 -20    2.83    1.75
  20  22 -10    4.62    2.03
  20 -22  10    3.02    1.82
  20 -22 -10    3.25    2.04
  20 -22  12    7.19    2.03
  22  12 -20   11.91    2.15
  20 -22 -12    9.53    2.26
  20 -22  14   -0.42    1.57
  22  14 -20    1.24    1.85
  20 -22 -14   -1.41    1.83
 -14 -20  22    1.34    1.50
  22 -22   0    7.35    2.09
  22  22   0    7.33    2.12
  22  22  -2   -0.09    1.73
  22 -22   2   -0.33    1.56
  22 -22  -2    1.59    1.77
  22  22   2   -0.81    1.72
  22  22  -4    0.11    1.75
  22 -22   4   -1.19    1.61
  22 -22  -4   -1.07    1.65
  22  22   4   -2.44    1.60
  22 -22   6    0.50    1.75
  22  22   6    2.41    1.88
  22  10 -22   14.61    2.33
  22  12 -22    1.87    1.81
 -12 -22  22    4.20    1.76
  -1 -23  -1    4.39    1.43
  23  -1   1    1.60    1.28
  23   1  -1    2.17    1.24
   1 -23   1    4.32    1.42
   1 -23  -1    2.83    1.36
  23  -1  -1    1.89    1.22
  -1 -23   1    3.05    1.26
  23   1   1    5.22    1.44
  23   3  -1    1.08    1.17
   1 -23   3    3.01    1.32
  -1 -23  -3    1.51    1.18
  23  -3   1    2.71    1.38
  23  -3  -1    3.71    1.37
  23   3   1    1.61    1.20
  -1 -23   3    2.19    1.29
   1 -23  -3    6.01    1.46
  -1 -23  -5   34.13    2.58
   1 -23   5   31.76    2.69
  23   5  -1   27.13    2.50
  23  -5   1   32.12    2.77
  23   5   1   33.71    2.60
   1 -23  -5   29.61    2.61
  23  -5  -1   29.59    2.48
  -1 -23   5   32.12    2.76
  23  -7   1    7.51    1.63
  23   7  -1    6.15    1.56
   1 -23   7    7.09    1.59
  -1 -23  -7    8.66    1.63
  23   7   1    6.91    1.54
  23  -7  -1    4.98    1.64
  -1 -23   7   13.07    1.98
   1 -23  -7    7.70    1.55
  -1 -23  -9    0.19    1.27
  23  -9   1   -0.29    1.23
  23   9  -1    0.12    1.28
   1 -23   9   -0.50    1.09
  23   9   1    0.91    1.31
   1 -23  -9   -1.18    1.15
  -1 -23   9    1.60    1.29
  23  -9  -1    0.65    1.34
  23  11  -1   16.06    2.11
  -1 -23 -11   15.02    1.99
   1 -23  11   19.62    2.30
  23 -11   1   19.07    2.33
  -1 -23  11   17.01    2.20
   1 -23 -11   18.96    2.14
  23 -11  -1   15.80    2.22
  23  11   1   16.48    2.07
  23  13  -1    0.10    1.33
  23 -13   1    2.60    1.48
   1 -23  13   -1.31    1.18
  -1 -23  13    0.88    1.31
  23 -13  -1   -1.66    1.24
  23  13   1   -0.80    1.24
  23 -15   1    6.76    1.83
   1 -23  15    7.68    1.76
  23  15  -1    7.41    1.81
  -1 -23  15    8.51    1.83
  23 -15  -1   12.33    2.14
  23  15   1    7.95    1.89
  23  17  -1    0.23    1.51
   1 -23  17    2.90    1.49
  23 -17   1    1.49    1.53
  23 -17  -1    0.72    1.54
  -1 -23  17    3.51    1.50
  23  17   1    3.40    1.60
  23  19  -1   -0.96    1.55
  23 -19   1   -2.29    1.45
   1 -23  19   -0.39    1.33
  23  19   1   -1.03    1.62
  23 -19  -1   -1.44    1.40
  -1 -23  19    3.38    1.57
  23 -21   1    5.75    2.02
  23  21  -1   13.36    2.40
  23  21   1   10.14    2.28
  23 -21  -1   13.86    2.58
   3 -23   1    3.73    1.36
  23  -1   3    3.97    1.35
  -3 -23  -1    4.38    1.36
  23   1  -3    1.65    1.26
  23  -1  -3    7.44    1.56
  -3 -23   1    3.98    1.38
  23   1   3    2.57    1.26
   3 -23  -1    2.65    1.32
  23   3  -3    0.25    1.19
  -3 -23  -3    4.89    1.42
   3 -23   3    2.57    1.29
  23  -3   3    1.74    1.29
  23  -3  -3    2.20    1.26
   3 -23  -3    3.11    1.33
  23   3   3    1.94    1.21
  -3 -23   3    4.64    1.44
  23  -5   3   -0.83    1.15
  -3 -23  -5    0.59    1.13
  23   5  -3    0.79    1.14
   3 -23   5   -0.93    1.13
  23   5   3    2.56    1.28
  -3 -23   5   -0.05    1.11
  23  -5  -3   -0.21    1.08
   3 -23  -5   -1.01    1.15
   3 -23   7    3.66    1.49
  23  -7   3    2.15    1.37
  23   7  -3    3.70    1.37
  -3 -23  -7    3.47    1.30
  23   7   3    1.52    1.28
  23  -7  -3    3.12    1.39
  -3 -23   7    4.17    1.49
   3 -23  -7    2.69    1.32
  23   9  -3    0.83    1.28
   3 -23   9    1.16    1.26
  -3 -23  -9   -0.39    1.15
  23  -9   3    0.38    1.32
  23  -9  -3    1.96    1.38
   3 -23  -9   -0.81    1.19
  -3 -23   9   -0.05    1.12
  23   9   3   -0.77    1.25
  -3 -23 -11    2.27    1.25
  23  11  -3    0.36    1.29
   3 -23  11    0.77    1.23
  23 -11   3    1.53    1.37
   3 -23 -11    2.36    1.38
  -3 -23  11    2.34    1.35
  23  11   3    3.70    1.44
  23 -11  -3    3.83    1.54
  23 -13   3   -1.59    1.30
  23  13  -3   -0.59    1.29
   3 -23  13    3.20    1.38
  -3 -23  13    3.86    1.50
  23 -13  -3   -0.56    1.29
  23  13   3   -0.90    1.26
  23 -15   3   -1.36    1.41
  23  15  -3   -0.88    1.38
   3 -23  15    1.43    1.39
  -3 -23  15   -0.55    1.24
  23  15   3    1.83    1.49
  23 -15  -3    0.65    1.37
  23 -17   3    5.12    1.87
   3 -23  17    2.35    1.41
  23  17  -3    4.08    1.70
  23 -17  -3    0.59    1.53
  -3 -23  17    2.61    1.52
  23  17   3    2.32    1.61
  23 -19   3    1.68    1.71
   3 -23  19    5.21    1.74
  23  19  -3    4.02    1.77
  23  19   3    2.73    1.74
  -3 -23  19    4.08    1.60
  23 -19  -3    3.12    1.84
  23 -21   3    0.80    1.70
  23  21  -3    2.54    1.89
  23  21   3    0.01    1.69
  23 -21  -3    0.26    1.74
  -5 -23  -1   30.49    2.67
  23  -1   5   30.82    2.56
  23   1  -5   31.33    2.53
   5 -23   1   31.50    2.61
   5 -23  -1   30.44    2.70
  23   1   5   28.66    2.41
  -5 -23   1   32.24    2.75
  23  -1  -5   26.57    2.46
  23   3  -5   -0.35    1.17
  23  -3   5   -1.87    1.10
  -5 -23  -3    0.29    1.13
   5 -23   3   -0.44    1.09
  -5 -23   3   -0.55    1.19
  23  -3  -5    0.55    1.13
   5 -23  -3    0.02    1.17
  23   3   5   -0.38    1.09
  23  -5   5   58.23    3.40
  23   5  -5   55.74    3.35
  -5 -23  -5   62.14    3.40
   5 -23   5   57.73    3.40
  23  -5  -5   55.24    3.31
  -5 -23   5   53.36    3.32
  23   5   5   57.02    3.27
   5 -23  -5   51.60    3.26
  23  -7   5   21.80    2.31
  -5 -23  -7   21.37    2.23
   5 -23   7   22.38    2.36
  23   7  -5   17.15    2.15
   5 -23  -7   17.22    2.14
  23   7   5   18.38    2.01
  23  -7  -5   19.89    2.23
  -5 -23   7   24.34    2.47
  -5 -23  -9   25.55    2.35
  23  -9   5   27.68    2.60
   5 -23   9   29.92    2.68
  23   9  -5   24.82    2.49
   5 -23  -9   34.08    2.80
  23   9   5   24.97    2.41
  -5 -23   9   30.36    2.76
  23  -9  -5   27.56    2.63
  23 -11   5    2.00    1.41
  -5 -23 -11    2.23    1.27
  23  11  -5    2.10    1.36
   5 -23  11    2.50    1.42
  23  11   5    1.85    1.33
  -5 -23  11    0.80    1.22
  23 -11  -5    2.57    1.44
   5 -23 -11    0.10    1.26
  23  13  -5   11.51    2.07
  23 -13   5   13.08    2.12
   5 -23  13   12.66    2.03
  23  13   5   12.30    1.92
  23 -13  -5   10.77    2.02
  -5 -23  13   12.13    2.07
   5 -23 -13    7.29    1.73
  23  15  -5    6.13    1.84
   5 -23  15    4.69    1.59
  23 -15   5    4.76    1.78
  -5 -23  15    5.82    1.68
  23  15   5    1.78    1.55
  23 -15  -5    3.55    1.61
  23  17  -5    0.60    1.59
   5 -23  17    1.43    1.42
  23 -17   5    2.87    1.63
  -5 -23  17   -0.06    1.32
  23  17   5    1.16    1.53
  23 -17  -5   -1.69    1.32
  23  19  -5   21.11    2.65
  23 -19   5   25.09    2.93
   5 -23  19   19.08    2.38
  23  19   5   17.86    2.49
  23 -19  -5   16.64    2.52
  -5 -23  19   17.67    2.43
  23 -21   5    1.35    1.77
  23  21   5    1.14    1.73
  -5 -23  21   -0.37    1.39
  23   1  -7    9.85    1.72
   7 -23   1    9.54    1.78
  -7 -23  -1    8.25    1.63
  23  -1   7    7.53    1.49
  23  -1  -7    5.02    1.47
  23   1   7    5.88    1.43
  -7 -23   1   10.17    1.79
   7 -23  -1    9.12    1.76
  -7 -23  -3    3.52    1.30
  23  -3   7    2.80    1.27
   7 -23   3    2.60    1.35
  23   3  -7    3.24    1.39
   7 -23  -3    2.94    1.34
  -7 -23   3    2.57    1.30
  23  -3  -7    1.48    1.25
  23   3   7    3.56    1.25
  23   5  -7   16.66    2.08
  23  -5   7   25.10    2.34
   7 -23   5   22.71    2.39
  -7 -23  -5   25.08    2.43
  23   5   7   16.24    1.94
  23  -5  -7   21.03    2.32
  -7 -23   5   22.66    2.39
   7 -23  -5   21.62    2.33
  -7 -23  -7    1.67    1.28
  23  -7   7    2.00    1.35
   7 -23   7   -0.42    1.21
  23   7  -7   -0.35    1.29
  -7 -23   7    1.42    1.35
   7 -23  -7    2.19    1.38
  23  -7  -7    1.36    1.27
  23   7   7    0.83    1.24
  -7 -23  -9    9.81    1.67
   7 -23   9    8.16    1.74
  23  -9   7    3.37    1.50
  23   9  -7    7.64    1.70
  -7 -23   9    7.14    1.69
  23  -9  -7    3.62    1.52
  23   9   7    8.29    1.63
   7 -23  -9    7.59    1.78
  23 -11   7    8.82    1.82
   7 -23  11    7.86    1.79
  23  11  -7   10.63    1.83
   7 -23 -11    5.38    1.70
  23 -11  -7   11.71    2.02
  -7 -23  11    9.14    1.83
  23  11   7    7.97    1.65
  23  13  -7    0.88    1.47
   7 -23  13   -0.75    1.32
  23 -13   7   -0.59    1.38
  -7 -23  13    1.51    1.32
  23  13   7    2.00    1.36
  23 -13  -7    1.45    1.48
   7 -23 -13    0.73    1.46
  23  15  -7    5.45    1.73
   7 -23  15    4.76    1.64
  23 -15   7    4.88    1.70
  23  15   7    4.40    1.59
  23 -15  -7    2.92    1.60
  -7 -23  15    5.26    1.57
   7 -23  17    2.29    1.51
  23 -17   7    2.14    1.66
  23  17  -7    1.26    1.64
  -7 -23  17    1.50    1.47
  23 -17  -7    0.82    1.56
  23  17   7    2.57    1.58
  23  19  -7    8.37    2.17
  23 -19   7    6.76    1.98
  -7 -23  19    6.49    1.78
  23  19   7    8.94    2.12
  23 -19  -7    8.17    2.17
  23 -21   7    1.65    1.82
  23  21   7   -0.28    1.69
  -7 -23  21   -0.21    1.38
   9 -23   1   -1.74    1.15
  23  -1   9   -1.16    1.02
  23   1  -9   -1.07    1.13
  -9 -23  -1    0.56    1.19
   9 -23  -1   -0.55    1.14
  23  -1  -9   -0.96    1.14
  -9 -23   1   -0.78    1.02
  23   1   9    0.22    1.08
   9 -23   3   -0.31    1.18
  -9 -23  -3   -0.74    1.18
  23   3  -9   -0.80    1.08
  23  -3   9   -1.00    1.09
  23   3   9   -0.75    1.07
  23  -3  -9   -1.58    1.18
  -9 -23   3   -1.23    1.08
   9 -23  -3   -0.08    1.18
   9 -23   5   26.00    2.61
  23   5  -9   33.92    2.63
  23  -5   9   28.12    2.54
  -9 -23  -5   27.30    2.60
  23  -5  -9   29.35    2.65
  -9 -23   5   29.17    2.74
   9 -23  -5   30.97    2.80
  -9 -23  -7    8.93    1.74
  23   7  -9   11.93    1.92
  23  -7   9    6.73    1.65
   9 -23   7    8.65    1.80
  23  -7  -9    5.96    1.62
   9 -23  -7    6.79    1.62
  23   7   9    6.58    1.53
  -9 -23   7    8.23    1.80
  23   9  -9   26.08    2.60
  -9 -23  -9   36.13    2.72
   9 -23   9   35.53    2.89
  23  -9   9   37.22    2.79
  -9 -23   9   29.60    2.82
   9 -23  -9   28.01    2.73
  23  -9  -9   30.54    2.80
  23 -11   9   13.83    2.10
  23  11  -9   10.17    1.94
   9 -23  11   15.43    2.14
  23 -11  -9   16.72    2.25
  23  11   9   14.62    1.89
   9 -23 -11   15.43    2.18
  -9 -23  11   13.63    2.06
   9 -23  13   10.52    1.88
  23 -13   9    9.98    1.98
  23  13  -9    5.12    1.69
  -9 -23  13   10.45    1.94
   9 -23 -13    6.29    1.79
  23  13   9    8.52    1.71
  23 -13  -9    5.46    1.81
  23 -15   9   14.69    2.27
   9 -23  15   15.47    2.17
  23  15  -9   11.90    2.12
  23 -15  -9   11.49    2.14
  -9 -23  15   16.56    2.30
  23  17  -9   -0.52    1.52
  23 -17   9    0.36    1.56
   9 -23  17    0.14    1.44
  -9 -23  17    3.05    1.57
  23 -17  -9    0.74    1.65
  23 -19   9    9.74    2.23
  23  19  -9    7.33    2.18
  23 -19  -9    7.90    2.22
  -9 -23  19   10.33    2.06
  -9 -23  21   10.80    2.13
  23   1 -11   15.55    2.03
  11 -23   1   16.71    2.14
 -11 -23  -1   16.36    2.13
  23  -1 -11   15.74    2.08
  11 -23  -1   13.58    2.11
 -11 -23   1   18.73    2.23
 -11 -23  -3    2.47    1.34
  23  -3  11    1.25    1.21
  11 -23   3    1.20    1.26
  23   3 -11    1.76    1.34
  23  -3 -11    3.60    1.41
 -11 -23   3    0.55    1.25
  11 -23  -3    2.13    1.39
  11 -23   5    1.88    1.36
  23  -5  11    2.16    1.25
  23   5 -11    1.49    1.34
 -11 -23  -5    1.96    1.38
  23  -5 -11    0.33    1.31
 -11 -23   5    0.63    1.20
  11 -23  -5    2.92    1.49
 -11 -23  -7   10.21    1.77
  11 -23   7   10.23    1.91
  23   7 -11   12.40    2.00
  23  -7  11   12.67    1.94
  23  -7 -11    7.52    1.75
 -11 -23   7   13.12    2.08
  11 -23  -7   12.80    2.16
  23   9 -11   11.91    1.98
  23  -9  11   20.67    2.25
  11 -23   9   19.16    2.34
 -11 -23  -9   19.79    2.23
 -11 -23   9   18.47    2.35
  23  -9 -11   15.54    2.22
  11 -23  -9   16.57    2.36
  11 -23  11   16.60    2.29
  23 -11  11   13.49    2.01
  23  11 -11   16.24    2.20
 -11 -23  11   17.77    2.37
  23 -11 -11   20.03    2.46
  11 -23 -11   13.60    2.17
  23 -13  11   -0.06    1.37
  11 -23  13    4.19    1.58
  23  13 -11    3.44    1.60
  23 -13 -11    3.66    1.66
  11 -23 -13    2.00    1.57
 -11 -23  13    3.57    1.52
  11 -23  15    1.30    1.43
  23 -15  11   -1.36    1.39
  23  15 -11    1.96    1.66
  23 -15 -11   -1.65    1.46
 -11 -23  15    2.31    1.53
  11 -23  17    0.05    1.43
  23 -17  11   -0.83    1.52
  23  17 -11    0.15    1.72
  23 -17 -11    0.35    1.63
 -11 -23  17    0.84    1.47
  23 -19  11   -0.33    1.60
  23 -19 -11    0.07    1.76
 -11 -23  19    2.13    1.64
 -11 -23  21    6.08    1.89
 -13 -23  -1    1.46    1.18
  13 -23   1    0.70    1.30
  23   1 -13   -1.52    1.15
  23  -1 -13   -0.01    1.24
  13 -23  -1   -0.66    1.28
 -13 -23   1    2.28    1.36
  13 -23   3    2.05    1.44
  23   3 -13    1.79    1.33
 -13 -23  -3    1.94    1.33
  23  -3 -13    0.79    1.32
  13 -23  -3    1.59    1.44
 -13 -23   3    1.95    1.34
  23   5 -13   14.41    2.05
  13 -23   5   13.40    2.11
 -13 -23  -5   10.05    1.82
 -13 -23   5   14.11    2.10
  13 -23  -5    7.76    1.93
  23  -5 -13   10.36    1.84
 -13 -23  -7    2.13    1.34
  13 -23   7    0.58    1.42
  23   7 -13    0.31    1.41
 -13 -23   7    1.43    1.35
  23  -7 -13   -0.63    1.32
  13 -23  -7    0.39    1.49
  13 -23   9    4.39    1.68
 -13 -23  -9    7.17    1.68
  23   9 -13   11.95    1.96
  13 -23  -9    8.60    1.92
  23  -9 -13    9.30    1.88
 -13 -23   9    4.52    1.65
  23 -11  13    1.80    1.47
  13 -23  11    3.15    1.57
  23  11 -13    0.57    1.41
  23 -11 -13    0.66    1.49
 -13 -23  11    5.46    1.67
  13 -23 -11    3.16    1.61
  13 -23  13    1.89    1.50
  23 -13  13    0.77    1.46
  23  13 -13    5.44    1.74
  23 -13 -13    3.79    1.70
 -13 -23  13    3.25    1.54
  13 -23 -13    2.65    1.70
  23 -15  13    0.57    1.49
  13 -23  15    0.50    1.50
  23  15 -13    4.39    1.87
  23 -15 -13    4.07    1.86
 -13 -23  15    1.29    1.42
  23 -17  13   -1.10    1.52
  23  17 -13    0.18    1.63
  13 -23  17    1.27    1.52
 -13 -23  17    1.70    1.53
  23 -17 -13   -0.09    1.71
  23 -19  13    1.23    1.73
  23 -19 -13   -1.40    1.75
 -13 -23  19    2.22    1.61
 -15 -23  -1    8.65    1.83
  23   1 -15    7.03    1.71
  15 -23   1   10.77    2.03
  15 -23  -1    9.54    2.05
  23  -1 -15   10.01    1.85
  23   3 -15   -0.54    1.36
  15 -23   3   -0.13    1.35
 -15 -23  -3    1.59    1.33
  23  -3 -15   -0.08    1.33
  15 -23  -3    2.68    1.49
 -15 -23  -5    6.41    1.66
  15 -23   5    2.81    1.60
  23   5 -15    6.71    1.71
  23  -5 -15    6.06    1.58
  15 -23  -5    0.74    1.54
  23   7 -15    1.38    1.54
  15 -23   7    3.87    1.71
 -15 -23  -7    4.14    1.47
  15 -23  -7    2.74    1.66
  23  -7 -15    3.78    1.57
  23   9 -15   12.02    2.04
  15 -23   9   13.61    2.23
  23  -9 -15   13.69    2.10
  15 -23  -9   11.37    2.17
  23  11 -15    0.42    1.54
  15 -23  11   -0.32    1.46
  23 -11 -15   -0.69    1.38
  15 -23 -11    0.61    1.54
  23  13 -15   -0.34    1.53
  15 -23  13    2.54    1.67
 -15 -23  13    0.20    1.33
  15 -23 -13    2.43    1.79
  23 -13 -15    1.33    1.67
  15 -23  15    0.73    1.62
  23  15 -15   -0.66    1.54
  23 -15 -15    0.17    1.67
  15 -23 -15   -1.19    1.71
 -15 -23  15    1.77    1.54
  23 -17 -15    0.51    1.79
  23   1 -17    1.44    1.38
  17 -23   1    0.95    1.51
  23  -1 -17    1.72    1.38
  17 -23  -1   -0.83    1.37
  23   3 -17    4.94    1.63
  17 -23   3    2.46    1.62
  23  -3 -17    3.25    1.45
  17 -23  -3    0.52    1.52
 -17 -23  -5    1.41    1.39
  17 -23   5   -1.50    1.39
  23   5 -17    0.38    1.44
  17 -23  -5    1.27    1.59
  23  -5 -17    2.03    1.49
 -17 -23  -7    3.87    1.46
  23   7 -17    3.67    1.66
  17 -23   7    1.02    1.58
  17 -23  -7    1.29    1.63
  23  -7 -17    2.47    1.55
  17 -23   9    0.71    1.49
  23   9 -17    2.69    1.68
  17 -23  -9   -1.28    1.55
  23  -9 -17    1.87    1.62
  23  11 -17    0.95    1.62
  17 -23  11    1.80    1.62
  17 -23 -11   -1.20    1.39
  23 -11 -17    1.11    1.55
  23  13 -17    3.28    1.79
  17 -23  13    0.16    1.60
  17 -23 -13   -0.31    1.75
  23 -13 -17   -2.51    1.47
  17 -23  15   -1.30    1.47
  17 -23 -15   -0.59    1.78
  23 -15 -17    0.41    1.69
  23 -17 -17    4.77    2.12
  19  23  -1    0.23    1.74
  19 -23   1   -1.20    1.55
  23   1 -19   -1.11    1.35
  19 -23  -1   -1.74    1.38
  23  -1 -19    0.30    1.42
  19  23  -3    4.00    1.93
  19 -23   3    3.31    1.68
  23   3 -19    2.97    1.60
  23  -3 -19    4.86    1.66
  19 -23  -3    2.76    1.80
  23   5 -19   16.00    2.35
  19  23  -5   15.32    2.49
  19 -23   5   18.72    2.66
  23  -5 -19   19.40    2.36
  19 -23  -5   15.33    2.56
  19 -23   7    4.33    1.81
  19  23  -7    8.21    2.19
  23   7 -19    9.35    1.93
  19 -23  -7    5.34    1.97
  23  -7 -19    6.90    1.78
  23   9 -19    7.23    1.91
  19  23  -9    6.18    2.18
  19 -23   9    8.28    2.19
  19 -23  -9    7.02    2.18
  23  -9 -19    5.32    1.81
  19 -23  11    8.34    2.14
  23  11 -19    2.88    1.74
  23 -11 -19   -0.35    1.59
  19 -23 -11    3.57    1.97
  19 -23  13   -3.90    1.44
  23  13 -19    1.29    1.72
  19 -23 -13    0.44    1.94
  19 -23  15    2.38    1.76
  19 -23 -15    4.99    2.09
  23   1 -21   12.58    2.12
  21 -23   1   15.00    2.56
  21  23  -1   14.47    2.47
  21 -23  -1   11.61    2.36
  21  23   1   11.52    2.35
  23   3 -21    3.15    1.73
  21  23  -3    1.22    1.86
  21 -23   3    0.33    1.60
  21 -23  -3    2.90    1.73
  21  23   3   -1.47    1.72
  23   5 -21    1.38    1.58
  21 -23   5    1.19    1.71
  23   7 -21    4.15    1.77
  23   9 -21   12.71    2.23
  23  11 -21    7.12    2.09
  23  23   5   23.32    2.92
   0 -24   0   63.83    3.52
  24   0   0   57.44    3.41
  24  -2   0    0.91    1.26
   0 -24  -2    1.86    1.27
   0 -24   2    0.56    1.19
  24   2   0    1.69    1.24
  24   4   0    2.89    1.40
  24  -4   0    4.82    1.47
   0 -24   4    2.59    1.29
   0 -24  -4    3.38    1.40
   0 -24   6   -1.14    1.12
   0 -24  -6    2.57    1.35
  24   6   0   -0.10    1.28
  24  -6   0    0.19    1.29
   0 -24  -8   -0.80    1.21
   0 -24   8    1.07    1.26
  24  -8   0    0.93    1.38
  24   8   0    0.47    1.32
  24  10   0   17.67    2.21
   0 -24  10   24.39    2.52
  24 -10   0   22.02    2.45
   0 -24 -10   23.34    2.38
  24  12   0    3.02    1.52
   0 -24 -12    4.17    1.52
  24 -12   0    3.27    1.59
   0 -24  12    6.23    1.70
  24 -14   0   16.22    2.30
  24  14   0   13.52    2.12
   0 -24  14    9.15    1.88
  24  16   0   10.29    2.03
  24 -16   0    8.16    1.97
   0 -24  16    7.27    1.84
  24  18   0   10.30    2.19
  24 -18   0   13.49    2.34
   0 -24  18   10.71    2.01
  24  20   0   -0.91    1.68
   0 -24  20    0.11    1.49
  24 -20   0   -1.02    1.54
  24   0   2    1.28    1.24
  -2 -24   0    1.75    1.28
  24   0  -2    1.70    1.29
   2 -24   0    0.28    1.16
   2 -24   2   -1.10    1.08
  24  -2   2    0.30    1.20
  24   2  -2    0.22    1.09
  -2 -24  -2    0.22    1.15
  24   2   2    0.50    1.20
   2 -24  -2    3.16    1.37
  24  -2  -2   -1.13    1.15
  -2 -24   2   -1.19    1.01
   2 -24   4    3.25    1.28
  24  -4   2    3.15    1.30
  -2 -24  -4    2.54    1.37
  24   4  -2    3.62    1.41
  24   4   2    3.80    1.34
  -2 -24   4    3.39    1.42
  24  -4  -2    2.55    1.37
   2 -24  -4    0.43    1.23
  24  -6   2    0.53    1.26
   2 -24   6    3.35    1.37
  24   6  -2    2.13    1.33
  -2 -24  -6   -0.02    1.23
  -2 -24   6    0.81    1.20
  24  -6  -2    0.10    1.23
  24   6   2    1.14    1.21
   2 -24  -6    0.25    1.24
  24  -8   2    5.23    1.54
   2 -24   8    1.38    1.25
  24   8  -2    4.18    1.51
  -2 -24  -8    1.25    1.30
   2 -24  -8    2.01    1.44
  24  -8  -2    1.79    1.46
  -2 -24   8    5.49    1.62
  24   8   2    1.19    1.30
   2 -24  10   -0.37    1.25
  -2 -24 -10   -0.48    1.19
  24 -10   2   -0.38    1.32
  24  10  -2    1.42    1.33
  24 -10  -2   -1.95    1.20
  24  10   2    0.64    1.34
   2 -24 -10   -2.02    1.17
  -2 -24  10   -0.16    1.24
   2 -24  12    0.69    1.33
  24 -12   2    4.66    1.73
  24  12  -2    5.35    1.62
  24 -12  -2    3.88    1.64
  -2 -24  12    2.09    1.39
   2 -24 -12    1.56    1.44
  24  12   2    1.32    1.35
   2 -24  14    7.74    1.77
  24 -14   2    6.31    1.85
  24  14  -2    7.60    1.84
  24  14   2    6.70    1.80
  24 -14  -2    9.99    1.98
  -2 -24  14    6.14    1.80
  24  16  -2    1.01    1.63
   2 -24  16    0.41    1.34
  24 -16   2   -0.07    1.49
  24  16   2    3.00    1.60
  24 -16  -2   -0.79    1.35
  -2 -24  16    2.45    1.44
  24  18  -2    0.27    1.63
   2 -24  18   -0.97    1.39
  24 -18   2    1.09    1.60
  24  18   2    0.77    1.58
  -2 -24  18   -0.44    1.32
  24 -18  -2   -1.65    1.42
  24 -20   2   -1.45    1.63
  24  20  -2   -2.23    1.61
  -2 -24  20    0.77    1.41
  24 -20  -2   -0.13    1.53
  24  20   2    2.34    1.85
  -4 -24   0    3.84    1.38
   4 -24   0    4.61    1.41
  24   0  -4    2.41    1.29
  24   0   4    3.69    1.42
  -4 -24  -2    4.21    1.46
  24  -2   4    0.45    1.17
   4 -24   2    7.20    1.71
  24   2  -4    0.53    1.24
  24  -2  -4    2.77    1.34
   4 -24  -2    3.24    1.40
  24   2   4    2.36    1.28
  -4 -24   2    2.84    1.33
  24   4  -4   16.66    2.09
   4 -24   4   19.07    2.24
  -4 -24  -4   18.77    2.18
  24  -4   4   19.98    2.20
  24  -4  -4   19.19    2.24
   4 -24  -4   20.76    2.34
  -4 -24   4   19.94    2.28
  24   4   4   22.58    2.26
  24   6  -4    4.59    1.55
   4 -24   6    7.55    1.74
  -4 -24  -6    5.41    1.50
  24  -6   4    4.92    1.59
  24  -6  -4    6.18    1.61
  24   6   4    6.56    1.59
  -4 -24   6    5.84    1.62
   4 -24  -6    4.16    1.45
  24   8  -4    1.48    1.41
  24  -8   4   -0.51    1.28
   4 -24   8    1.63    1.33
  -4 -24  -8    2.53    1.37
  24   8   4    4.31    1.51
  24  -8  -4    1.11    1.44
  -4 -24   8    3.53    1.48
   4 -24  -8    2.33    1.40
  24 -10   4    4.80    1.61
  -4 -24 -10    5.20    1.48
   4 -24  10    3.74    1.45
  24  10  -4    4.48    1.54
  24 -10  -4    3.68    1.56
  -4 -24  10    7.26    1.73
  24  10   4    3.42    1.45
   4 -24 -10    2.70    1.52
  24 -12   4    1.55    1.41
  24  12  -4    3.23    1.60
   4 -24  12    3.57    1.55
  24 -12  -4    3.05    1.54
  -4 -24  12    5.06    1.54
  24  12   4    2.47    1.44
   4 -24 -12    3.52    1.52
  24 -14   4   13.69    2.22
   4 -24  14   16.76    2.24
  24  14  -4   13.57    2.17
  24  14   4   11.01    1.96
  -4 -24  14   10.61    1.97
  24 -14  -4   11.22    2.10
  24 -16   4    2.94    1.67
  24  16  -4    0.58    1.54
   4 -24  16    1.29    1.46
  24  16   4    0.28    1.47
  24 -16  -4   -0.69    1.40
  -4 -24  16    1.26    1.45
  24 -18   4   15.40    2.53
  24  18  -4   16.69    2.49
   4 -24  18   12.27    2.10
  -4 -24  18   11.00    2.12
  24 -18  -4   11.43    2.27
  24  18   4   12.45    2.18
  24 -20   4   -3.14    1.54
  24  20  -4    1.51    1.81
  24  20   4   -0.49    1.69
  -4 -24  20    0.29    1.47
  24  22   4   -0.47    1.78
   6 -24   0    2.02    1.34
  -6 -24   0    0.77    1.27
  24   0   6    2.47    1.29
  24   0  -6    1.95    1.30
  24  -2   6    1.42    1.30
   6 -24   2    0.44    1.25
  -6 -24  -2   -1.17    1.07
  24   2  -6    0.08    1.21
   6 -24  -2    0.02    1.15
  24  -2  -6    1.76    1.23
  -6 -24   2    2.54    1.43
  24   2   6    1.74    1.21
   6 -24   4    4.95    1.66
  -6 -24  -4    4.80    1.54
  24  -4   6    4.43    1.43
  24   4  -6    7.34    1.63
  24   4   6    3.67    1.36
  -6 -24   4    6.27    1.59
   6 -24  -4    5.12    1.60
  24  -4  -6    6.68    1.63
   6 -24   6    2.56    1.42
  24  -6   6    0.47    1.36
  -6 -24  -6    1.74    1.29
  24   6  -6    1.48    1.35
  -6 -24   6    2.06    1.33
   6 -24  -6    0.71    1.30
  24   6   6    2.97    1.39
  24  -6  -6    1.77    1.33
  24  -8   6    2.75    1.50
   6 -24   8   -0.61    1.17
  -6 -24  -8    1.39    1.28
  24   8  -6    1.63    1.46
   6 -24  -8   -0.63    1.31
  -6 -24   8   -0.37    1.15
  24  -8  -6    0.70    1.33
  24   8   6    0.06    1.26
  24 -10   6    1.49    1.45
  24  10  -6    4.30    1.59
   6 -24  10    4.58    1.56
  -6 -24 -10    4.54    1.50
  24 -10  -6    4.99    1.65
  24  10   6    4.79    1.53
  -6 -24  10    6.99    1.77
   6 -24 -10    2.88    1.51
  24  12  -6    2.76    1.55
  24 -12   6    1.10    1.50
   6 -24  12    2.93    1.54
   6 -24 -12    2.20    1.46
  24  12   6    2.98    1.49
  24 -12  -6    3.04    1.56
  -6 -24  12    3.72    1.45
  24 -14   6    0.83    1.52
  24  14  -6    0.96    1.51
   6 -24  14    3.01    1.51
  24  14   6    3.76    1.50
  24 -14  -6   -0.03    1.39
  -6 -24  14    2.92    1.48
  24 -16   6    0.73    1.58
   6 -24  16    3.79    1.62
  24  16  -6    2.52    1.68
  24 -16  -6    0.62    1.60
  -6 -24  16    1.18    1.46
  24  16   6    3.17    1.59
  24  18  -6    1.80    1.79
  24 -18   6    0.11    1.60
   6 -24  18    1.20    1.60
  24  18   6    2.21    1.72
  -6 -24  18    1.90    1.55
  24 -18  -6    3.77    1.79
  24 -20   6   -0.80    1.65
  24  20   6   -2.03    1.53
  -6 -24  20   -0.54    1.39
  24  22   6    0.15    1.76
  -8 -24   0   -0.09    1.21
  24   0  -8   -0.91    1.19
  24   0   8   -0.24    1.21
   8 -24   0   -1.43    1.19
  -8 -24  -2    1.89    1.31
  24  -2   8    1.42    1.23
   8 -24   2    0.84    1.23
  24   2  -8    2.27    1.40
   8 -24  -2    2.33    1.44
  -8 -24   2    2.71    1.35
  24   2   8    0.76    1.18
  24  -2  -8    6.49    1.60
  -8 -24  -4    0.85    1.35
  24  -4   8    0.91    1.27
   8 -24   4   -0.45    1.19
  24   4  -8    1.38    1.32
  24   4   8    1.76    1.27
   8 -24  -4    1.02    1.33
  24  -4  -8    2.13    1.43
  -8 -24   4    4.58    1.57
   8 -24   6    1.83    1.37
  24  -6   8   -1.28    1.17
  24   6  -8    2.26    1.39
  -8 -24  -6    2.22    1.35
  24  -6  -8    0.16    1.28
  -8 -24   6    0.63    1.22
  24   6   8    0.88    1.28
   8 -24  -6    0.32    1.30
  24  -8   8    4.60    1.59
   8 -24   8    5.28    1.63
  24   8  -8    8.06    1.78
  -8 -24  -8    5.18    1.57
   8 -24  -8    5.54    1.67
  -8 -24   8    8.03    1.89
  24   8   8    3.67    1.46
  24  -8  -8    9.14    1.85
  24  10  -8    0.05    1.33
  24 -10   8    0.95    1.35
  -8 -24 -10    0.30    1.24
   8 -24  10    0.38    1.28
  24  10   8   -0.25    1.15
  24 -10  -8    1.02    1.43
   8 -24 -10    2.28    1.51
  -8 -24  10   -0.69    1.17
  24 -12   8   -2.39    1.30
  24  12  -8   -0.60    1.34
   8 -24  12    0.33    1.39
  24  12   8    2.34    1.44
   8 -24 -12   -1.87    1.37
  24 -12  -8    0.35    1.50
  -8 -24  12   -0.21    1.29
  24 -14   8    0.25    1.48
  24  14  -8    1.96    1.53
   8 -24  14    0.01    1.32
  -8 -24  14   -0.53    1.32
  24  14   8    1.24    1.47
  24 -14  -8   -0.37    1.45
  24  16  -8   -0.09    1.49
  24 -16   8    1.77    1.61
   8 -24  16    1.89    1.48
  24 -16  -8    0.49    1.53
  -8 -24  16    1.46    1.50
  24  16   8   -0.23    1.42
   8 -24  18    1.84    1.58
  24  18  -8    0.58    1.77
  24 -18   8   -0.36    1.56
  24 -18  -8   -2.46    1.39
  -8 -24  18    1.81    1.60
  24 -20   8   -1.37    1.53
  -8 -24  20   -0.29    1.44
  24   0  10   25.96    2.34
  24   0 -10   26.50    2.54
  10 -24   0   21.92    2.49
 -10 -24   0   25.70    2.65
  24   2 -10   -1.68    1.17
 -10 -24  -2   -0.16    1.27
  10 -24   2   -0.83    1.14
  24  -2  10    0.71    1.27
  24   2  10   -0.29    1.10
  24  -2 -10    2.62    1.35
 -10 -24   2    1.73    1.34
  10 -24  -2   -0.47    1.21
  10 -24   4    3.22    1.52
  24   4 -10    5.04    1.57
 -10 -24  -4    2.97    1.51
  24  -4  10    2.28    1.32
  10 -24  -4    2.83    1.46
  24   4  10    3.79    1.31
  24  -4 -10    4.35    1.53
 -10 -24   4    5.16    1.59
 -10 -24  -6    3.60    1.50
  24   6 -10    5.74    1.62
  24  -6  10    4.02    1.55
  10 -24   6    1.47    1.49
  10 -24  -6    4.84    1.66
  24  -6 -10    6.78    1.68
 -10 -24   6    1.10    1.36
  24   6  10    0.33    0.94
  10 -24   8    0.73    1.38
  24  -8  10    0.58    1.36
  24   8 -10   -0.61    1.36
 -10 -24  -8    1.70    1.36
 -10 -24   8   -0.57    1.19
  10 -24  -8   -1.55    1.31
  24  -8 -10    0.36    1.35
  10 -24  10    1.90    1.53
  24 -10  10    1.96    1.43
  24  10 -10    4.48    1.55
  10 -24 -10    0.69    1.47
  24 -10 -10    2.95    1.65
 -10 -24  10    2.03    1.46
  24  12 -10    1.93    1.50
  10 -24  12    0.47    1.40
  24 -12  10    0.98    1.41
  24 -12 -10    2.22    1.60
 -10 -24  12    0.77    1.45
  10 -24 -12   -1.32    1.36
  24  14 -10    2.98    1.71
  24 -14  10    3.49    1.71
  10 -24  14    3.27    1.68
 -10 -24  14    4.19    1.58
  10 -24 -14    3.54    1.69
  24 -14 -10    3.90    1.83
  24  16 -10    3.17    1.74
  24 -16  10    0.57    1.55
  10 -24  16    2.49    1.65
 -10 -24  16    3.27    1.65
  24 -16 -10    1.56    1.74
  24 -18  10    5.94    1.96
 -10 -24  18    8.29    2.03
  24 -18 -10    4.27    1.98
 -10 -24  20    2.29    1.72
 -12 -24   0    2.60    1.49
  24   0 -12    3.77    1.56
  12 -24   0    3.95    1.54
  12 -24   2    3.23    1.53
 -12 -24  -2    2.81    1.37
  24   2 -12    4.08    1.55
 -12 -24   2    2.83    1.41
  12 -24  -2    2.79    1.55
  24  -2 -12    0.43    1.33
  24   4 -12    2.18    1.45
  12 -24   4    3.30    1.63
 -12 -24  -4    1.48    1.39
  24  -4 -12    3.41    1.54
 -12 -24   4    1.59    1.40
  12 -24  -4    2.33    1.55
 -12 -24  -6    3.75    1.57
  24   6 -12    2.65    1.47
  12 -24   6    1.99    1.43
  24  -6  12    4.00    1.44
 -12 -24   6    1.85    1.39
  12 -24  -6    5.29    1.74
  24  -6 -12    4.28    1.59
 -12 -24  -8    0.96    1.24
  24  -8  12    2.16    1.37
  24   8 -12   -1.23    1.28
  12 -24   8    0.51    1.41
 -12 -24   8    1.34    1.37
  24  -8 -12    0.14    1.40
  12 -24  -8   -0.62    1.40
  24 -10  12   -0.93    1.28
  24  10 -12    0.33    1.42
  12 -24  10    0.67    1.33
 -12 -24  10    2.09    1.41
  12 -24 -10   -0.63    1.51
  24 -10 -12   -1.60    1.34
  24  12 -12    1.92    1.52
  12 -24  12   -0.52    1.30
  24 -12  12   -2.66    1.26
  12 -24 -12   -2.15    1.48
  24 -12 -12    1.61    1.62
 -12 -24  12    1.99    1.40
  24  14 -12    4.31    1.81
  12 -24  14    6.11    1.84
  24 -14  12    4.54    1.72
  12 -24 -14    3.97    1.81
  24 -14 -12    5.02    1.86
 -12 -24  14    5.23    1.74
  12 -24  16    3.01    1.66
  24  16 -12    0.82    1.61
  24 -16  12    0.02    1.62
  24 -16 -12    0.57    1.72
 -12 -24  16    0.91    1.57
  24 -18  12    0.82    1.69
 -12 -24  18   -1.19    1.35
 -14 -24   0   15.61    2.19
  24   0 -14   11.78    1.97
  14 -24   0    7.40    1.92
  24   2 -14    7.90    1.81
 -14 -24  -2    5.65    1.68
  14 -24   2    6.45    1.81
  14 -24  -2    5.93    1.66
 -14 -24   2    4.52    1.59
  24  -2 -14    7.84    1.78
 -14 -24  -4    8.56    1.90
  14 -24   4   14.20    2.31
  24   4 -14   17.55    2.19
  24  -4 -14   14.07    2.09
 -14 -24   4   10.76    2.05
  14 -24  -4    9.59    2.02
 -14 -24  -6    1.74    1.35
  24   6 -14    1.98    1.50
  14 -24   6    1.85    1.48
 -14 -24   6    2.95    1.41
  24  -6 -14   -0.33    1.34
  14 -24  -6   -0.29    1.47
 -14 -24  -8   -0.52    1.27
  24   8 -14    0.07    1.37
  14 -24   8    0.68    1.45
  24  -8 -14   -0.62    1.41
 -14 -24   8   -1.01    1.25
  14 -24  -8   -1.37    1.38
  24  10 -14    0.80    1.59
  14 -24  10    6.06    1.84
  14 -24 -10    0.93    1.63
 -14 -24  10    1.90    1.40
  24 -10 -14    2.76    1.67
  24  12 -14    7.49    1.93
  14 -24  12    3.40    1.71
 -14 -24  12    4.31    1.60
  24 -12 -14    6.92    1.89
  14 -24 -12    3.19    1.77
  14 -24  14   10.23    2.18
  24  14 -14   12.00    2.18
  24 -14 -14   12.73    2.35
 -14 -24  14   12.26    2.23
  14 -24 -14   13.07    2.37
  14 -24  16   -1.53    1.37
  24 -16 -14    0.75    1.77
  24   0 -16    8.06    1.78
 -16 -24   0   11.82    2.06
  16 -24   0    5.01    1.77
 -16 -24  -2    0.80    1.41
  16 -24   2   -1.39    1.40
  24   2 -16    0.53    1.41
  24  -2 -16    0.23    1.37
  16 -24  -2    1.29    1.49
 -16 -24   2    3.78    1.55
  24   4 -16    0.47    1.43
  16 -24   4    1.92    1.49
 -16 -24  -4   -0.13    1.33
  24  -4 -16    2.44    1.52
  16 -24  -4   -1.22    1.47
 -16 -24  -6    1.49    1.36
  16 -24   6    2.82    1.65
  24   6 -16    2.49    1.59
  16 -24  -6   -2.30    1.51
  24  -6 -16    3.66    1.68
  24   8 -16    2.67    1.60
  16 -24   8    0.23    1.45
 -16 -24  -8    1.21    1.39
  16 -24  -8   -1.73    1.50
  24  -8 -16   -2.45    1.43
  16 -24  10    5.67    1.84
  24  10 -16    5.31    1.80
  24 -10 -16    4.42    1.72
  16 -24 -10    1.00    1.55
 -16 -24  10    3.85    1.54
  24  12 -16    0.35    1.60
  16 -24  12   -0.22    1.54
  16 -24 -12    2.30    1.81
 -16 -24  12    1.50    1.50
  24 -12 -16   -0.35    1.60
  16 -24  14   -1.64    1.48
  16 -24 -14    1.56    1.85
  24 -14 -16   -0.28    1.66
  16 -24  16   -1.11    1.52
  24 -16 -16   -0.76    1.75
  24   0 -18   10.16    1.94
  18 -24   0   10.44    2.28
  24   2 -18    1.64    1.48
  18 -24   2   -1.35    1.35
  24  -2 -18   -0.25    1.43
  18 -24  -2   -1.26    1.61
  24   4 -18   12.92    2.21
  18 -24   4   12.64    2.38
 -18 -24  -4   13.36    2.18
  24  -4 -18   14.51    2.14
  18 -24  -4   13.40    2.44
  18 -24   6   -0.76    1.53
 -18 -24  -6    3.05    1.51
  24   6 -18    4.84    1.77
  18 -24  -6   -0.15    1.66
  24  -6 -18    3.74    1.61
  18 -24   8   -2.44    1.47
  24   8 -18    0.52    1.55
  24  -8 -18    1.82    1.62
  18 -24  -8   -0.59    1.60
  18 -24  10    3.22    1.87
  24  10 -18    7.84    2.03
  18 -24 -10    3.49    1.85
  24 -10 -18    4.46    1.79
  18 -24  12    1.03    1.71
  24  12 -18    1.25    1.75
  24 -12 -18    1.27    1.67
  18 -24 -12   -0.74    1.87
  18 -24 -14    8.04    2.34
  24 -14 -18    7.60    2.04
  24   0 -20   -0.59    1.38
  20 -24   0    1.89    1.73
  20 -24   2    0.42    1.74
  24   2 -20    1.75    1.60
  24  -2 -20    1.63    1.55
  20 -24  -2   -0.89    1.44
  24   4 -20   -1.94    1.50
  24  -4 -20    1.98    1.65
  20 -24  -4    2.12    1.77
  24   6 -20    0.44    1.57
  24  -6 -20   -0.07    1.52
  24   8 -20   -1.00    1.50
  24  10 -20   -2.84    1.58
  -1 -25  -1    0.65    1.23
  25  -1   1    0.08    1.20
  25   1  -1    0.90    1.22
   1 -25   1    1.04    1.25
   1 -25  -1   -0.69    1.16
  25  -1  -1   -0.14    1.17
  -1 -25   1    0.74    1.25
  25   1   1    1.41    1.29
  25   3  -1    0.86    1.30
   1 -25   3    2.24    1.36
  -1 -25  -3    1.31    1.34
  25  -3   1    1.61    1.35
  -1 -25   3    0.83    1.20
  25   3   1    0.18    1.18
   1 -25  -3    2.59    1.42
  25  -3  -1    0.77    1.29
   1 -25   5    1.34    1.29
  -1 -25  -5   -0.07    1.25
  25  -5   1    0.72    1.30
  25   5  -1   -0.45    1.28
  25  -5  -1   -0.61    1.19
  -1 -25   5   -1.28    1.19
  25   5   1    0.19    1.25
   1 -25  -5    0.16    1.27
  25   7  -1    1.52    1.40
   1 -25   7    3.73    1.51
  25  -7   1    3.04    1.53
  -1 -25  -7    5.87    1.62
  25   7   1    3.42    1.46
   1 -25  -7    3.74    1.53
  -1 -25   7    4.70    1.57
  25  -7  -1    4.95    1.59
  25  -9   1   -1.44    1.25
   1 -25   9    0.73    1.36
  25   9  -1   -0.79    1.35
  -1 -25  -9   -1.20    1.19
   1 -25  -9   -0.42    1.30
  25   9   1    1.44    1.43
  -1 -25   9    0.29    1.27
  25  -9  -1   -1.10    1.37
  25 -11   1   -0.22    1.43
  25  11  -1    2.42    1.49
   1 -25  11    0.85    1.33
  -1 -25 -11    1.25    1.40
  -1 -25  11    1.82    1.40
  25 -11  -1    3.05    1.57
   1 -25 -11    3.00    1.46
  25  11   1    0.06    1.35
   1 -25  13    3.35    1.53
  25 -13   1    0.64    1.52
  25  13  -1    3.63    1.73
  25  13   1    2.33    1.63
  25 -13  -1    2.70    1.64
  -1 -25  13    3.90    1.56
  25 -15   1   -1.06    1.38
  25  15  -1   -0.82    1.48
   1 -25  15   -0.15    1.38
  25  15   1    2.35    1.63
  -1 -25  15   -0.14    1.36
  25 -15  -1    2.10    1.61
   1 -25  17   -0.90    1.33
  25  17  -1    0.61    1.55
  25 -17   1    1.37    1.69
  25 -17  -1    0.21    1.55
  -1 -25  17    0.19    1.41
  25  17   1    2.04    1.69
  25  19  -1   -1.58    1.55
   1 -25  19    1.11    1.46
  25 -19   1   -0.89    1.61
  -1 -25  19    4.73    1.67
  25  19   1    1.09    1.62
  -3 -25  -1    2.15    1.37
   3 -25   1    1.97    1.25
  25   1  -3    0.44    1.25
  25  -1   3    1.66    1.27
  25   1   3   -1.54    1.08
  -3 -25   1    1.93    1.26
   3 -25  -1    2.41    1.33
  25  -1  -3    1.60    1.30
  -3 -25  -3    4.94    1.56
  25  -3   3    4.36    1.55
   3 -25   3    7.13    1.67
  25   3  -3    6.32    1.64
  25  -3  -3    5.47    1.53
   3 -25  -3    4.61    1.49
  -3 -25   3    7.63    1.75
  25   3   3    3.53    1.38
  -3 -25  -5   28.90    2.66
  25   5  -3   22.73    2.43
   3 -25   5   29.33    2.70
  25  -5   3   23.99    2.49
  25   5   3   20.45    2.31
  25  -5  -3   25.64    2.54
  -3 -25   5   23.42    2.57
   3 -25  -5   21.28    2.43
  25   7  -3    3.80    1.48
  -3 -25  -7    6.96    1.60
   3 -25   7    3.99    1.58
  25  -7   3    4.09    1.61
  -3 -25   7    7.41    1.74
  25   7   3    7.72    1.68
  25  -7  -3    6.38    1.63
   3 -25  -7    4.25    1.59
  -3 -25  -9    4.45    1.49
  25  -9   3    6.08    1.72
  25   9  -3    7.05    1.72
   3 -25   9    4.42    1.63
   3 -25  -9    1.70    1.45
  25  -9  -3    3.96    1.66
  25   9   3    3.11    1.59
  -3 -25   9    5.24    1.61
   3 -25  11    7.60    1.83
  -3 -25 -11    6.86    1.73
  25 -11   3    5.68    1.70
  25  11  -3    9.09    1.89
  -3 -25  11    8.34    1.82
  25  11   3    5.23    1.60
  25 -11  -3    7.55    1.90
   3 -25 -11    4.89    1.65
   3 -25  13    3.16    1.54
  25  13  -3    5.75    1.77
  25 -13   3    0.70    1.49
  -3 -25  13    0.48    1.42
  25 -13  -3    2.55    1.55
  25  13   3    5.07    1.71
  25  15  -3    1.35    1.61
   3 -25  15    2.30    1.49
  25 -15   3    0.49    1.56
  -3 -25  15   -1.75    1.27
  25 -15  -3   -0.60    1.41
  25  15   3    0.42    1.52
  25  17  -3    0.12    1.59
  25 -17   3    0.81    1.61
   3 -25  17    3.15    1.60
  25 -17  -3   -0.58    1.46
  25  17   3    1.63    1.59
  -3 -25  17    0.51    1.44
  25 -19   3    0.92    1.82
  25  19  -3    3.45    1.98
   3 -25  19    2.72    1.64
  -3 -25  19    4.64    1.76
  25  19   3    2.58    1.84
  -5 -25  -1    1.59    1.38
   5 -25   1   -0.14    1.23
  25  -1   5    0.53    1.20
  25   1  -5   -1.75    1.08
  25  -1  -5   -1.34    1.12
  -5 -25   1    2.32    1.37
   5 -25  -1    2.10    1.31
  25   1   5   -1.13    1.14
  25  -3   5   22.44    2.43
  25   3  -5   25.31    2.46
   5 -25   3   25.30    2.55
  -5 -25  -3   23.62    2.45
  25  -3  -5   23.62    2.50
   5 -25  -3   22.79    2.48
  25   3   5   20.20    2.26
  -5 -25   3   24.31    2.61
  -5 -25  -5   40.72    3.06
  25   5  -5   44.64    3.12
   5 -25   5   47.52    3.22
  25  -5   5   40.03    3.02
  -5 -25   5   43.04    3.15
  25  -5  -5   45.74    3.08
   5 -25  -5   42.78    3.11
  25  -7   5   12.42    2.01
  25   7  -5   17.62    2.23
  -5 -25  -7   20.14    2.29
   5 -25   7   18.24    2.32
  25  -7  -5   18.22    2.30
  -5 -25   7   17.67    2.28
   5 -25  -7   15.44    2.18
  25   7   5   13.27    1.98
  25  -9   5   -0.16    1.38
  -5 -25  -9   -0.04    1.20
   5 -25   9   -2.22    1.08
  25   9  -5    0.03    1.42
  25  -9  -5    0.45    1.40
   5 -25  -9   -0.46    1.36
  -5 -25   9    1.98    1.43
  25   9   5   -0.79    1.28
   5 -25  11    3.60    1.58
  25 -11   5    0.71    1.45
  25  11  -5    2.86    1.53
  25  11   5    0.40    1.36
   5 -25 -11    3.07    1.55
  -5 -25  11    3.27    1.56
  25 -11  -5   -0.38    1.40
  25  13  -5    2.92    1.67
  25 -13   5   -1.10    1.35
   5 -25  13    5.38    1.71
  -5 -25  13    2.82    1.43
  25  13   5    4.31    1.61
  25 -13  -5    4.90    1.76
  25 -15   5   16.63    2.46
  25  15  -5   21.78    2.65
   5 -25  15   16.68    2.35
  -5 -25  15   22.14    2.62
  25  15   5   11.91    2.14
  25 -15  -5   19.12    2.60
   5 -25  17   28.87    2.89
  25 -17   5   28.68    3.09
  25  17  -5   25.63    2.95
  25 -17  -5   20.75    2.78
  -5 -25  17   26.25    2.84
  25  17   5   32.79    3.04
  25 -19   5    0.07    1.71
   5 -25  19    3.07    1.66
  25  19   5    2.35    1.72
  -5 -25  19    3.41    1.61
  25  21   5   -1.52    1.77
  -5 -25  21    4.58    1.74
  25   1  -7    3.48    1.45
  -7 -25  -1    6.51    1.73
  25  -1   7    4.46    1.43
   7 -25   1    3.88    1.50
  -7 -25   1    6.96    1.74
   7 -25  -1    8.15    1.79
  25  -1  -7    5.37    1.59
  25   1   7    3.14    1.38
  -7 -25  -3    3.25    1.50
   7 -25   3    5.29    1.58
  25   3  -7    6.47    1.62
  25  -3   7    2.54    1.37
  -7 -25   3    4.35    1.52
  25   3   7    3.78    1.42
  25  -3  -7    4.31    1.49
   7 -25  -3    4.11    1.61
  -7 -25  -5   19.35    2.34
  25  -5   7   16.08    2.09
   7 -25   5   17.89    2.35
  25   5  -7   14.11    2.08
  25  -5  -7   13.85    2.09
  25   5   7   16.50    2.06
  -7 -25   5   18.96    2.33
   7 -25  -5   18.60    2.38
  25   7  -7    2.36    1.48
  25  -7   7    2.88    1.47
  -7 -25  -7    3.07    1.49
   7 -25   7    1.78    1.44
  25  -7  -7    1.21    1.39
  25   7   7    4.03    1.47
  -7 -25   7    3.03    1.47
   7 -25  -7   -0.08    1.38
   7 -25   9    2.28    1.50
  -7 -25  -9    5.12    1.55
  25  -9   7    4.88    1.67
  25   9  -7    2.04    1.53
  25   9   7    3.82    1.49
  -7 -25   9    5.22    1.75
  25  -9  -7    4.90    1.63
   7 -25  -9    6.49    1.77
   7 -25  11   28.62    2.89
  25  11  -7   30.19    2.86
  25 -11   7   35.37    3.05
  25 -11  -7   30.87    2.98
   7 -25 -11   35.50    3.03
  -7 -25  11   36.58    2.99
  25 -13   7   -0.43    1.50
   7 -25  13   -1.34    1.31
  25  13  -7    0.06    1.46
  -7 -25  13    1.97    1.39
   7 -25 -13   -0.64    1.42
  25 -13  -7   -0.53    1.49
  25  13   7   -1.18    1.35
  25 -15   7   -0.66    1.55
  25  15  -7    3.69    1.76
   7 -25  15    0.94    1.50
  -7 -25  15    2.06    1.52
  25 -15  -7    1.64    1.61
  25  15   7   -0.97    1.35
   7 -25  17    1.27    1.57
  25 -17   7   -1.25    1.54
  25  17  -7    0.23    1.66
  -7 -25  17    2.43    1.63
  25  17   7   -0.86    1.60
  25 -17  -7    0.22    1.60
  25  19   7    0.07    1.74
  -7 -25  19    4.26    1.72
  -9 -25  -1   -1.97    1.16
  25   1  -9   -0.19    1.34
  25  -1   9   -0.28    1.21
   9 -25   1    0.31    1.33
  25   1   9   -0.69    1.18
   9 -25  -1    0.59    1.32
  -9 -25   1    1.46    1.34
  25  -1  -9   -0.16    1.28
   9 -25   3    4.69    1.67
  25   3  -9    6.15    1.65
  -9 -25  -3    4.57    1.55
  25  -3   9    3.25    1.42
  25   3   9    3.99    1.40
  25  -3  -9    6.07    1.67
  -9 -25   3    3.55    1.61
   9 -25  -3    4.86    1.60
  25  -5   9   -0.28    1.25
  -9 -25  -5    1.15    1.37
  25   5  -9   -1.77    1.20
   9 -25   5   -0.26    1.33
   9 -25  -5   -3.56    1.11
  25   5   9   -0.92    1.17
  25  -5  -9    3.63    1.53
  -9 -25   5    0.51    1.39
  25   7  -9    5.06    1.59
  -9 -25  -7    5.75    1.64
  25  -7   9    3.40    1.55
   9 -25   7    7.38    1.83
   9 -25  -7    5.93    1.78
  25  -7  -9    6.25    1.72
  -9 -25   7    4.81    1.72
  25   7   9    5.40    1.52
  25   9  -9    4.32    1.61
   9 -25   9    0.90    1.45
  25  -9   9    4.20    1.63
  -9 -25  -9    2.87    1.46
  25  -9  -9    2.17    1.55
  -9 -25   9    4.18    1.67
   9 -25  -9    1.68    1.45
  25   9   9    2.49    1.34
  25 -11   9   -0.48    1.36
  25  11  -9   -1.43    1.31
   9 -25  11   -0.74    1.34
  -9 -25  11    1.12    1.32
  25 -11  -9    0.14    1.38
   9 -25 -11    1.54    1.53
  25  13  -9    2.12    1.56
  25 -13   9   -0.24    1.37
   9 -25  13    1.89    1.57
  25 -13  -9    2.56    1.64
  -9 -25  13    0.11    1.25
   9 -25 -13    0.19    1.59
   9 -25  15   -1.51    1.38
  25  15  -9   -0.58    1.54
  25 -15   9    0.87    1.60
  25 -15  -9    0.68    1.68
  -9 -25  15    0.82    1.45
  25 -17   9    0.06    1.69
   9 -25  17    0.58    1.53
  -9 -25  17   -2.63    1.28
  25 -17  -9    1.29    1.81
  -9 -25  19    2.36    1.68
  11 -25   1    1.20    1.41
 -11 -25  -1    2.69    1.42
  25  -1  11    1.21    1.29
  25   1 -11    3.97    1.51
 -11 -25   1    2.70    1.45
  11 -25  -1    1.28    1.47
  25  -1 -11    3.06    1.49
 -11 -25  -3    7.27    1.75
  25   3 -11    6.28    1.68
  11 -25   3    5.20    1.69
  25  -3  11    6.78    1.61
  11 -25  -3    6.00    1.74
 -11 -25   3    6.32    1.73
  25  -3 -11    6.09    1.68
 -11 -25  -5   -0.16    1.32
  11 -25   5    1.63    1.41
  25  -5  11    0.83    1.32
  25   5 -11    3.36    1.57
  11 -25  -5    1.44    1.55
  25  -5 -11    2.62    1.55
 -11 -25   5    2.84    1.46
 -11 -25  -7   31.56    2.87
  11 -25   7   36.44    2.96
  25   7 -11   36.29    2.98
  11 -25  -7   31.76    3.08
 -11 -25   7   28.43    2.95
  25  -7 -11   40.94    3.05
  25  -9  11    0.84    1.39
 -11 -25  -9    0.03    1.35
  25   9 -11   -0.61    1.37
  11 -25   9   -2.45    1.29
 -11 -25   9    0.03    1.35
  11 -25  -9    1.31    1.51
  25  -9 -11   -0.35    1.39
  25 -11  11    9.21    1.91
  25  11 -11    8.72    2.00
  11 -25  11   12.56    2.23
 -11 -25  11   10.19    2.04
  25 -11 -11    8.19    1.99
  11 -25 -11   16.66    2.48
  25 -13  11    1.26    1.64
  25  13 -11   -0.89    1.46
  11 -25  13    0.99    1.53
  25 -13 -11    0.24    1.66
  11 -25 -13    1.24    1.57
 -11 -25  13   -1.54    1.31
  25  15 -11   -0.57    1.53
  25 -15  11    1.62    1.66
  11 -25  15   -0.60    1.43
 -11 -25  15    1.61    1.54
  25 -15 -11    3.05    1.85
  25 -17  11    4.41    1.90
  11 -25  17    2.60    1.59
 -11 -25  17    3.88    1.80
  13 -25   1    3.34    1.62
  25   1 -13    3.24    1.56
 -13 -25  -1    1.75    1.48
 -13 -25   1    2.69    1.55
  25  -1 -13    3.41    1.54
  13 -25  -1    1.19    1.46
  25   3 -13    3.88    1.60
  13 -25   3    4.60    1.72
 -13 -25  -3    2.29    1.48
  13 -25  -3    3.37    1.64
  25  -3 -13    2.19    1.51
 -13 -25   3    3.52    1.56
  13 -25   5    2.60    1.55
  25   5 -13    1.50    1.48
 -13 -25  -5    5.32    1.67
  13 -25  -5    6.76    1.89
  25  -5 -13    2.30    1.53
 -13 -25   5    1.52    1.46
  25   7 -13    0.38    1.41
 -13 -25  -7   -1.15    1.31
  13 -25   7   -1.40    1.25
  25  -7 -13    1.56    1.46
 -13 -25   7    1.44    1.39
  13 -25  -7    0.49    1.43
  25   9 -13    2.95    1.56
  13 -25   9    0.91    1.52
  13 -25  -9    0.66    1.56
  25  -9 -13    2.38    1.60
 -13 -25   9    1.21    1.47
  13 -25  11   -1.65    1.38
  25  11 -13    1.33    1.64
  13 -25 -11    0.09    1.63
  25 -11 -13   -1.54    1.50
 -13 -25  11    1.27    1.43
  13 -25  13   -2.51    1.36
  25  13 -13    0.33    1.55
 -13 -25  13    1.28    1.56
  13 -25 -13   -2.12    1.51
  25 -13 -13   -1.54    1.47
  13 -25  15   -0.25    1.54
  25 -15 -13    2.28    1.83
  13 -25  17   -2.46    1.43
  25   1 -15    0.50    1.42
 -15 -25  -1    0.76    1.42
  15 -25   1   -1.82    1.36
  15 -25  -1    0.46    1.47
 -15 -25   1    1.08    1.33
  25  -1 -15    0.21    1.40
 -15 -25  -3    1.66    1.44
  25   3 -15    1.08    1.45
  15 -25   3   -1.32    1.35
  25  -3 -15    0.32    1.35
  15 -25  -3   -0.78    1.31
 -15 -25   3    3.54    1.54
  25   5 -15   16.30    2.31
  15 -25   5   11.87    2.30
 -15 -25  -5   16.97    2.33
  25  -5 -15   12.72    2.11
 -15 -25   5   16.09    2.41
  15 -25  -5   16.89    2.50
  15 -25   7    0.58    1.54
 -15 -25  -7    0.82    1.46
  25   7 -15    0.58    1.52
  15 -25  -7   -1.46    1.50
  25  -7 -15    1.22    1.62
 -15 -25   7    2.37    1.49
  15 -25   9   -1.44    1.47
  25   9 -15    1.64    1.55
 -15 -25   9    0.13    1.40
  25  -9 -15    1.13    1.59
  15 -25  -9   -2.29    1.44
  15 -25  11   -1.32    1.42
  25  11 -15    3.00    1.66
 -15 -25  11    2.07    1.55
  25 -11 -15   -2.14    1.57
  15 -25 -11   -1.72    1.60
  15 -25  13   -2.62    1.46
  25 -13 -15   -2.36    1.52
  15 -25 -13    0.56    1.73
  15 -25  15    7.29    2.10
  25   1 -17   -1.14    1.35
 -17 -25  -1    2.59    1.49
  17 -25   1    0.30    1.53
  25  -1 -17    0.36    1.46
 -17 -25   1    2.55    1.59
  17 -25  -1    0.38    1.61
  25   3 -17   -2.79    1.26
  17 -25   3    1.50    1.67
 -17 -25  -3    1.75    1.41
 -17 -25   3    1.42    1.41
  25  -3 -17   -0.43    1.43
  17 -25  -3   -0.56    1.50
 -17 -25  -5   24.68    2.79
  17 -25   5   25.11    2.89
  25   5 -17   26.17    2.78
  25  -5 -17   19.82    2.51
 -17 -25   5   25.22    2.86
  17 -25  -5   28.64    3.07
  17 -25   7    1.83    1.68
 -17 -25  -7    1.08    1.49
  25   7 -17   -0.02    1.54
  17 -25  -7   -1.93    1.58
 -17 -25   7    0.94    1.43
  25  -7 -17   -2.02    1.47
  25   9 -17    1.34    1.69
  17 -25   9    2.26    1.74
  25  -9 -17    0.58    1.62
  17 -25  -9   -0.97    1.65
  17 -25  11    2.42    1.82
  25  11 -17    5.11    1.87
  25 -11 -17    0.50    1.63
  17 -25 -11   -0.01    1.78
  17 -25 -13    0.53    1.89
  25 -13 -17    1.01    1.76
  25   1 -19   -0.36    1.48
  25  -1 -19    1.53    1.59
  25   3 -19    3.58    1.70
 -19 -25  -3    4.30    1.71
  25  -3 -19    3.23    1.66
 -19 -25  -5    2.16    1.61
  25   5 -19    2.20    1.65
  25  -5 -19    3.08    1.63
  25   7 -19    3.09    1.69
  25  -7 -19    1.70    1.64
  25   9 -19    3.17    1.82
  25  -9 -19    1.36    1.67
  25 -11 -19    1.37    1.79
  25   1 -21    1.11    1.71
  25   3 -21   15.66    2.42
  25   5 -21    0.93    1.73
 -21 -25  -5    4.42    1.71
   0 -26   0   31.61    2.87
  26   0   0   27.27    2.67
  26  -2   0    6.63    1.77
  26   2   0    9.67    1.85
   0 -26   2   11.21    1.92
   0 -26  -2    9.39    1.84
   0 -26  -4    4.46    1.58
  26  -4   0    6.92    1.70
  26   4   0    7.04    1.71
   0 -26   4    7.48    1.75
   0 -26  -6    7.60    1.90
   0 -26   6   11.68    2.00
  26   6   0   10.20    1.86
  26  -6   0   10.95    2.03
   0 -26  -8    5.61    1.67
  26   8   0   10.26    1.87
  26  -8   0    7.52    1.89
   0 -26   8    8.70    1.92
   0 -26 -10   12.54    2.03
  26 -10   0    7.89    1.84
  26  10   0   11.80    2.01
   0 -26  10   12.68    2.13
  26  12   0   11.30    2.05
  26 -12   0    7.07    1.94
   0 -26  12   11.34    2.11
   0 -26  14    5.92    1.84
  26  14   0    6.36    1.87
  26 -14   0    9.06    2.09
  26  16   0   12.88    2.26
   0 -26  16   14.15    2.30
  26 -16   0   14.32    2.36
   0 -26  18    3.64    1.72
  26  18   0    1.76    1.80
   0 -26  20    8.74    2.03
  -2 -26   0    5.86    1.60
   2 -26   0   11.90    1.94
  26   0  -2    5.52    1.63
  26   0   2    5.32    1.55
   2 -26   2   20.18    2.44
  26  -2   2   15.20    2.10
  26   2  -2   18.99    2.28
  -2 -26  -2   22.90    2.49
   2 -26  -2   22.13    2.48
  26   2   2   19.56    2.27
  26  -2  -2   19.30    2.33
  -2 -26   2   20.04    2.42
   2 -26   4   -1.29    1.15
  -2 -26  -4   -1.08    1.27
  26   4  -2   -0.04    1.33
  26  -4   2    1.86    1.40
  26   4   2    0.06    1.29
  -2 -26   4    3.12    1.46
   2 -26  -4   -0.21    1.28
  26  -4  -2   -0.15    1.33
  26  -6   2    8.06    1.77
  -2 -26  -6    7.39    1.77
  26   6  -2   10.52    1.91
   2 -26   6    7.46    1.80
  -2 -26   6    4.82    1.64
   2 -26  -6    7.08    1.91
  26  -6  -2    5.20    1.71
  26   6   2    1.87    1.39
  26   8  -2    4.78    1.70
  -2 -26  -8    3.25    1.55
  26  -8   2    2.78    1.52
   2 -26   8    7.35    1.80
  -2 -26   8    3.79    1.58
   2 -26  -8    2.75    1.53
  26  -8  -2    6.61    1.81
  26   8   2    3.89    1.67
  26  10  -2    9.99    1.88
  26 -10   2    7.92    1.89
  -2 -26 -10    2.82    1.47
   2 -26  10    8.43    1.90
  -2 -26  10    6.04    1.68
  26  10   2    7.99    1.79
  26 -10  -2    3.48    1.70
   2 -26 -10    2.60    1.63
  26  12  -2    7.72    1.91
   2 -26  12   10.32    1.96
  26 -12   2    5.48    1.81
  -2 -26  12    8.25    1.92
  26 -12  -2   10.14    2.06
  26  12   2    6.39    1.77
   2 -26  14    7.99    1.93
  26 -14   2    6.58    1.90
  26  14  -2    7.83    2.02
  26 -14  -2    2.89    1.75
  26  14   2    7.85    1.91
  -2 -26  14    9.44    2.00
  26 -16   2   24.95    2.87
   2 -26  16   25.79    2.81
  26  16  -2   29.78    3.07
  -2 -26  16   25.36    2.79
  26 -16  -2   20.70    2.76
  26  16   2   28.40    2.90
  26  18  -2   -0.53    1.66
   2 -26  18    1.25    1.57
  -2 -26  18    1.29    1.57
  26  18   2    0.79    1.65
  -2 -26  20    0.13    1.51
  26   0   4    5.60    1.61
   4 -26   0    6.58    1.73
  -4 -26   0    5.07    1.57
  26   0  -4    4.50    1.58
   4 -26   2   -2.14    1.12
  26   2  -4   -2.64    1.17
  26  -2   4   -0.31    1.23
  -4 -26  -2    0.10    1.29
  26   2   4    0.87    1.31
   4 -26  -2    1.99    1.45
  26  -2  -4    1.46    1.35
  -4 -26   2   -0.02    1.25
  -4 -26  -4    9.57    1.84
  26   4  -4   10.24    1.89
   4 -26   4   10.38    1.97
  26  -4   4   10.56    1.92
  26  -4  -4    9.28    1.91
  26   4   4   10.99    1.92
   4 -26  -4   12.33    2.10
  -4 -26   4   13.04    2.11
  -4 -26  -6    7.81    1.81
  26   6  -4    6.34    1.74
  26  -6   4    8.27    1.85
   4 -26   6    7.39    1.89
   4 -26  -6    6.34    1.77
  26   6   4    9.06    1.80
  -4 -26   6    8.98    1.97
  26  -6  -4    9.86    1.95
   4 -26   8   -0.20    1.33
  -4 -26  -8   -0.40    1.31
  26   8  -4   -1.08    1.36
  26  -8   4   -0.52    1.38
   4 -26  -8   -1.69    1.32
  26  -8  -4    1.31    1.46
  26   8   4    0.26    1.37
  -4 -26   8   -0.06    1.29
  26 -10   4    4.02    1.70
  -4 -26 -10    3.41    1.54
  26  10  -4    4.73    1.69
   4 -26  10    1.81    1.52
  26 -10  -4    3.09    1.65
   4 -26 -10    2.80    1.61
  -4 -26  10    6.94    1.77
  26  10   4    3.45    1.60
   4 -26  12    1.12    1.52
  26  12  -4    1.12    1.60
  26 -12   4    2.69    1.54
  -4 -26  12    3.23    1.59
   4 -26 -12    0.47    1.39
  26 -12  -4   -0.86    1.39
  26  12   4    1.65    1.52
  26  14  -4   -1.81    1.49
   4 -26  14    0.45    1.42
  26 -14   4   -1.33    1.50
  -4 -26  14    2.15    1.54
  26  14   4   -0.03    1.56
  26 -14  -4   -0.14    1.42
   4 -26  16    4.56    1.82
  26 -16   4    6.24    1.99
  26  16  -4    6.01    2.01
  26  16   4    8.24    2.02
  -4 -26  16    9.90    2.10
  26 -16  -4    1.08    1.63
   4 -26  18    1.04    1.57
  -4 -26  18    0.82    1.51
  26  18   4    1.75    1.70
  -4 -26  20   -0.33    1.49
  -6 -26   0    7.82    1.81
  26   0  -6    9.04    1.80
   6 -26   0    6.61    1.70
  26   0   6    5.71    1.58
  -6 -26  -2    5.54    1.63
  26  -2   6    5.33    1.55
  26   2  -6    6.91    1.70
   6 -26   2    7.76    1.85
  -6 -26   2    7.55    1.86
  26  -2  -6    7.10    1.75
   6 -26  -2    8.84    1.79
  26   2   6    4.40    1.49
  -6 -26  -4    8.97    1.76
   6 -26   4   10.31    2.06
  26  -4   6    6.54    1.68
  26   4  -6    8.87    1.88
  26   4   6    6.55    1.69
  -6 -26   4    5.04    1.66
   6 -26  -4    8.91    1.84
  26  -4  -6    9.35    1.90
  -6 -26  -6   50.80    3.47
  26  -6   6   51.78    3.43
  26   6  -6   58.72    3.57
   6 -26   6   47.34    3.49
  26  -6  -6   52.17    3.45
   6 -26  -6   55.67    3.60
  -6 -26   6   54.12    3.55
  26  -8   6   -0.58    1.45
  -6 -26  -8    3.50    1.53
  26   8  -6   -0.06    1.41
   6 -26   8    3.32    1.55
   6 -26  -8    2.91    1.55
  26  -8  -6    0.31    1.41
  26   8   6    1.00    1.44
  -6 -26   8    3.84    1.59
  26  10  -6    3.09    1.60
  -6 -26 -10    1.91    1.42
   6 -26  10    2.73    1.61
  26 -10   6   -0.45    1.46
  26 -10  -6    1.26    1.50
  26  10   6    3.29    1.53
  -6 -26  10    1.53    1.52
   6 -26 -10    0.20    1.41
   6 -26  12    6.80    1.94
  26  12  -6    6.93    1.89
  26 -12   6    5.42    1.82
  26 -12  -6    7.35    1.96
  -6 -26  12    9.44    2.10
   6 -26 -12    6.26    1.83
  26  12   6    6.15    1.77
  26 -14   6    1.80    1.66
   6 -26  14   -0.81    1.45
  26  14  -6   -0.43    1.52
  26 -14  -6    1.58    1.67
  -6 -26  14    1.25    1.49
  26  14   6    0.23    1.49
  26 -16   6   34.26    3.28
   6 -26  16   34.18    3.26
  26  16  -6   32.21    3.21
  26 -16  -6   30.22    3.14
  -6 -26  16   33.82    3.21
  26  16   6   33.85    3.11
   6 -26  18    1.00    1.56
  -6 -26  18    0.98    1.60
  26  18   6    0.64    1.69
  26  20   6    1.46    1.79
  26   0  -8    5.40    1.62
  26   0   8    5.67    1.61
  -8 -26   0    9.23    1.90
   8 -26   0    6.03    1.70
  26   2  -8    5.47    1.66
  -8 -26  -2    4.95    1.68
   8 -26   2    3.38    1.57
  26  -2   8    3.07    1.46
  -8 -26   2    5.37    1.63
   8 -26  -2    6.70    1.77
  26   2   8    3.19    1.45
  26  -2  -8    4.73    1.56
  -8 -26  -4   -0.82    1.26
   8 -26   4   -0.34    1.34
  26  -4   8   -1.35    1.27
  26   4  -8    1.92    1.45
  26  -4  -8    1.47    1.35
   8 -26  -4    0.68    1.34
  -8 -26   4   -0.42    1.30
  26   4   8    0.34    1.33
  26   6  -8    4.03    1.57
   8 -26   6    1.59    1.40
  -8 -26  -6    0.64    1.44
  26  -6   8    0.36    1.40
  26   6   8    2.32    1.47
   8 -26  -6    0.69    1.46
  -8 -26   6   -0.50    1.30
  26  -6  -8    3.67    1.59
  26   8  -8    4.86    1.67
  -8 -26  -8    4.39    1.57
   8 -26   8    6.67    1.88
  26  -8   8    4.60    1.67
  -8 -26   8    6.45    1.88
   8 -26  -8    2.82    1.63
  26  -8  -8    4.20    1.76
  26   8   8    7.18    1.72
   8 -26  10    5.89    1.76
  26  10  -8   10.05    1.97
  26 -10   8    9.97    1.99
  -8 -26  10   10.18    1.98
  26 -10  -8    7.02    1.85
   8 -26 -10    9.39    2.03
  26  10   8    8.49    1.73
  26  12  -8   -1.33    1.50
   8 -26  12   -0.54    1.42
  26 -12   8   -0.53    1.42
   8 -26 -12   -0.11    1.53
  26  12   8    0.55    1.50
  -8 -26  12    1.70    1.48
  26 -12  -8   -0.27    1.47
  26 -14   8   -1.55    1.40
  26  14  -8    0.51    1.64
   8 -26  14    0.27    1.43
  26 -14  -8   -0.76    1.58
  -8 -26  14   -1.31    1.44
  26 -16   8    8.61    2.13
   8 -26  16   15.50    2.40
  -8 -26  16   13.56    2.35
  26 -16  -8   11.12    2.34
   8 -26  18    1.37    1.60
  26   0  10   12.59    1.92
 -10 -26   0   14.68    2.21
  26   0 -10   12.48    2.01
  10 -26   0   14.28    2.25
  26   2 -10    5.12    1.69
  10 -26   2    3.83    1.56
 -10 -26  -2    4.77    1.63
  26  -2  10    4.35    1.47
 -10 -26   2    9.52    1.92
  26  -2 -10    3.06    1.53
  26   2  10    4.91    1.50
  10 -26  -2    5.09    1.68
  26   4 -10    3.07    1.55
  26  -4  10    3.51    1.56
  10 -26   4    2.96    1.58
 -10 -26  -4   -0.23    1.37
  10 -26  -4    2.62    1.59
 -10 -26   4    2.13    1.47
  26  -4 -10    2.47    1.57
 -10 -26  -6    1.38    1.44
  10 -26   6    1.51    1.55
  26  -6  10    0.46    1.34
  26   6 -10    0.70    1.42
 -10 -26   6    0.23    1.41
  26  -6 -10    0.88    1.45
  10 -26  -6    1.81    1.56
  10 -26   8   12.27    2.25
  26  -8  10    7.30    1.84
 -10 -26  -8    9.32    1.81
  26   8 -10    9.68    1.98
 -10 -26   8    7.83    1.90
  10 -26  -8    4.30    1.77
  26  -8 -10   10.82    2.02
  26 -10  10    0.17    1.46
  10 -26  10    5.01    1.74
  26  10 -10    1.93    1.60
  26 -10 -10    0.40    1.53
 -10 -26  10    3.26    1.59
  10 -26 -10    4.28    1.83
  26 -12  10    0.62    1.56
  26  12 -10    2.96    1.73
  10 -26  12    2.32    1.64
 -10 -26  12    4.10    1.66
  10 -26 -12    1.45    1.65
  26 -12 -10    4.82    1.91
  10 -26  14    3.67    1.77
  26  14 -10    6.07    1.96
  26 -14  10    4.60    1.76
  26 -14 -10    0.78    1.75
 -10 -26  14    2.68    1.65
  26 -16  10    2.75    1.83
  10 -26  16    2.08    1.57
  26   0 -12   13.25    2.09
 -12 -26   0   12.88    2.14
  12 -26   0    7.31    1.82
  26   2 -12   10.73    1.97
 -12 -26  -2    6.48    1.83
  12 -26   2    7.54    1.83
 -12 -26   2    5.58    1.73
  12 -26  -2    3.74    1.67
  26  -2 -12    8.20    1.85
  12 -26   4   -3.20    1.19
  26   4 -12    4.97    1.64
 -12 -26  -4    3.20    1.55
 -12 -26   4    2.54    1.48
  26  -4 -12    1.18    1.47
  12 -26  -4    0.56    1.45
  12 -26   6    4.67    1.64
  26   6 -12    2.64    1.59
 -12 -26  -6    3.69    1.60
 -12 -26   6    6.91    1.94
  26  -6 -12    7.33    1.85
  12 -26  -6    4.04    1.68
  12 -26   8   -0.93    1.36
  26   8 -12    3.11    1.64
 -12 -26  -8   -1.44    1.35
 -12 -26   8   -0.72    1.37
  12 -26  -8    0.56    1.56
  26  -8 -12   -0.52    1.47
  26  10 -12    1.22    1.64
  12 -26  10    2.30    1.59
  26 -10  12    3.74    1.68
  26 -10 -12    0.14    1.54
  12 -26 -10    3.17    1.74
 -12 -26  10    2.20    1.61
  26  12 -12    8.48    2.04
  12 -26  12    7.11    1.85
  26 -12  12    9.16    2.11
 -12 -26  12   13.18    2.36
  26 -12 -12   10.84    2.20
  12 -26 -12    7.87    2.12
  12 -26  14   -1.20    1.46
  26 -14  12    3.96    1.78
  26 -14 -12    0.93    1.80
  12 -26  16   15.62    2.43
  26 -16  12   14.46    2.40
  14 -26   0    2.90    1.68
 -14 -26   0    4.56    1.66
  26   0 -14    7.40    1.84
 -14 -26  -2    7.43    1.86
  14 -26   2    7.23    2.08
  26   2 -14    5.47    1.73
  26  -2 -14    4.45    1.66
 -14 -26   2    5.82    1.74
  14 -26  -2    6.18    1.80
  26   4 -14    1.78    1.54
 -14 -26  -4   -1.57    1.31
  14 -26   4   -1.69    1.35
 -14 -26   4    0.13    1.36
  26  -4 -14    0.02    1.46
  14 -26  -4   -0.80    1.40
  14 -26   6   -1.62    1.39
 -14 -26  -6    1.10    1.56
  26   6 -14   -1.23    1.44
  26  -6 -14   -1.25    1.48
 -14 -26   6    0.13    1.40
  14 -26  -6    0.82    1.64
 -14 -26  -8    2.58    1.55
  26   8 -14    1.58    1.60
  14 -26   8    0.53    1.55
  26  -8 -14   -1.92    1.50
  14 -26  -8   -3.48    1.49
 -14 -26   8    0.49    1.44
  26  10 -14    2.68    1.77
  14 -26  10    3.56    1.74
 -14 -26  10    2.71    1.68
  26 -10 -14    5.37    1.93
  14 -26 -10    5.89    1.96
  14 -26  12    0.03    1.60
  26 -12 -14    1.38    1.71
  14 -26 -12    0.50    1.74
  14 -26  14   -1.48    1.57
  16 -26   0   12.69    2.36
  26   0 -16   16.03    2.32
 -16 -26   0   12.83    2.22
 -16 -26  -2   24.48    2.78
  26   2 -16   23.11    2.65
  16 -26   2   26.23    2.94
  16 -26  -2   21.09    2.76
 -16 -26   2   24.64    2.82
  26  -2 -16   24.00    2.66
  26   4 -16    6.31    1.94
 -16 -26  -4    5.45    1.78
  16 -26   4    6.64    1.95
  26  -4 -16    7.38    1.94
  16 -26  -4    6.26    1.99
 -16 -26   4    8.41    2.06
  16 -26   6   26.29    3.04
 -16 -26  -6   30.43    3.04
  26   6 -16   29.51    3.06
  16 -26  -6   34.61    3.38
 -16 -26   6   34.80    3.30
  26  -6 -16   35.73    3.17
  26   8 -16   14.05    2.25
  16 -26   8   11.23    2.25
  26  -8 -16   15.07    2.32
  16 -26  -8   10.29    2.28
  26 -10 -16   -0.59    1.69
  16 -26 -10   -0.94    1.64
  16 -26 -12   10.26    2.39
  26   0 -18    2.92    1.62
 -18 -26   0    3.44    1.73
 -18 -26  -2    2.40    1.57
  26   2 -18    0.48    1.53
  26  -2 -18    0.54    1.49
 -18 -26   2    0.42    1.57
  26   4 -18    1.76    1.69
 -18 -26  -4    1.47    1.53
  26  -4 -18    0.05    1.52
  26   6 -18   -0.02    1.60
 -18 -26  -6    1.90    1.55
  26  -6 -18    2.97    1.68
  26  -8 -18    1.09    1.62
  26 -10 -18    1.92    1.82
  26   0 -20    5.59    1.91
  26   2 -20    3.64    1.76
  26  -2 -20    4.27    1.80
  26   4 -20    0.10    1.70
  26  -4 -20    2.97    1.76
 -20 -26  -6    0.18    1.57
  26  -6 -20    0.82    1.60
  -1 -27  -1    4.63    1.55
  27  -1   1    5.98    1.66
  27   1  -1    3.65    1.43
   1 -27   1    6.93    1.80
  27  -1  -1    3.17    1.49
  -1 -27   1    8.08    1.87
   1 -27  -1    5.58    1.67
  27   1   1    5.79    1.70
  27  -3   1   -1.50    1.21
  27   3  -1   -0.01    1.46
   1 -27   3    1.79    1.35
  -1 -27  -3    0.52    1.33
  27  -3  -1    1.36    1.41
   1 -27  -3   -1.21    1.33
  -1 -27   3   -0.44    1.29
  27   3   1    0.16    1.38
   1 -27   5    2.41    1.49
  27  -5   1    2.25    1.47
  27   5  -1    4.30    1.63
  -1 -27  -5    2.36    1.47
  -1 -27   5    1.95    1.45
   1 -27  -5    5.29    1.66
  27  -5  -1    0.65    1.36
  27   5   1    3.06    1.54
  -1 -27  -7   -0.34    1.36
  27   7  -1    0.23    1.45
  27  -7   1    0.67    1.46
   1 -27   7    0.77    1.44
  27   7   1   -1.39    1.31
  27  -7  -1    0.02    1.40
  -1 -27   7   -0.97    1.35
   1 -27  -7    0.43    1.43
  -1 -27  -9    2.40    1.59
  27  -9   1    2.57    1.61
   1 -27   9    3.65    1.62
  27   9  -1    4.50    1.73
  27  -9  -1    3.26    1.62
   1 -27  -9    2.33    1.61
  -1 -27   9    2.88    1.58
  27  11  -1    2.59    1.57
  -1 -27 -11    0.80    1.53
  27 -11   1   -0.19    1.52
   1 -27  11    2.85    1.61
  -1 -27  11    2.12    1.56
  27 -11  -1   -1.57    1.40
  27  11   1    0.40    1.48
   1 -27 -11    0.51    1.46
  27 -13   1   -1.06    1.44
   1 -27  13    0.28    1.47
  27  13  -1    1.24    1.58
  -1 -27  13   -1.00    1.34
  27 -13  -1    1.47    1.70
  27  13   1    1.77    1.69
  27 -15   1   -0.09    1.72
  27  15  -1    4.76    1.92
   1 -27  15    2.76    1.63
  -1 -27  15    1.65    1.64
  27 -15  -1    3.52    1.87
  27  15   1    3.59    1.78
  27  17  -1   -1.62    1.55
   1 -27  17   -0.21    1.50
  -1 -27  17    0.43    1.49
  27  17   1   -0.37    1.68
   1 -27  19    5.80    1.93
  -1 -27  19    3.38    1.75
  27  -1   3   -1.37    1.22
  27   1  -3    1.21    1.37
  -3 -27  -1    1.49    1.38
   3 -27   1   -0.20    1.36
   3 -27  -1    0.15    1.29
  27  -1  -3   -0.39    1.31
  -3 -27   1   -0.53    1.33
  27   1   3    0.44    1.35
  27   3  -3    5.32    1.64
   3 -27   3    3.38    1.60
  27  -3   3    1.92    1.54
  -3 -27  -3    3.80    1.68
   3 -27  -3    3.61    1.59
  27   3   3    4.18    1.60
  27  -3  -3    2.02    1.50
  -3 -27   3    3.44    1.49
  -3 -27  -5    5.59    1.66
   3 -27   5   10.19    2.01
  27  -5   3    9.51    1.94
  27   5  -3    9.41    1.95
  -3 -27   5    6.75    1.81
   3 -27  -5    8.93    2.00
  27   5   3    6.12    1.69
  27  -5  -3    5.11    1.69
  27  -7   3    3.34    1.59
  -3 -27  -7    3.01    1.50
  27   7  -3    1.98    1.48
   3 -27   7    1.09    1.41
  27  -7  -3   -1.09    1.38
  -3 -27   7    3.10    1.55
   3 -27  -7    0.30    1.44
  27   7   3   -0.35    1.40
   3 -27   9    1.66    1.50
  27   9  -3    0.43    1.51
  27  -9   3    0.89    1.51
  -3 -27  -9    0.56    1.38
  27   9   3   -1.01    1.41
  27  -9  -3    0.71    1.46
   3 -27  -9   -1.66    1.29
  -3 -27   9    1.04    1.45
  27  11  -3    7.54    1.90
   3 -27  11    5.54    1.82
  27 -11   3    5.30    1.83
  -3 -27  11    9.21    2.06
   3 -27 -11    4.03    1.77
  27  11   3    5.61    1.78
  27 -11  -3    5.97    1.92
  27  13  -3    1.13    1.71
  27 -13   3    0.27    1.65
   3 -27  13    6.40    1.87
  -3 -27  13   -0.04    1.39
  27 -13  -3   -1.95    1.42
  27  13   3    3.67    1.69
  27  15  -3    7.04    2.02
  27 -15   3    4.56    1.97
   3 -27  15    5.39    1.87
  27  15   3    6.79    2.02
  27 -15  -3    6.69    2.06
  -3 -27  15    8.26    2.05
   3 -27  17    0.45    1.52
  27  17   3    1.36    1.69
  -3 -27  17    1.54    1.64
   3 -27  19    0.14    1.53
  27   1  -5    1.97    1.44
  27  -1   5    1.62    1.40
  -5 -27  -1    4.53    1.65
   5 -27   1    4.60    1.67
  27  -1  -5    4.50    1.67
  27   1   5    2.35    1.46
   5 -27  -1    2.16    1.52
  -5 -27   1    3.31    1.55
  27   3  -5    9.11    1.92
   5 -27   3    4.23    1.60
  -5 -27  -3    5.42    1.69
  27  -3   5    4.98    1.63
  27   3   5    7.38    1.73
  -5 -27   3    7.87    1.68
  27  -3  -5    6.15    1.70
   5 -27  -3    6.38    1.74
  27  -5   5    6.98    1.81
  27   5  -5    6.09    1.79
  -5 -27  -5    9.11    1.91
   5 -27   5    8.04    1.94
  27  -5  -5    5.63    1.74
  27   5   5   10.10    1.88
   5 -27  -5    7.28    1.94
  -5 -27   5    5.94    1.78
  27  -7   5   19.91    2.56
   5 -27   7   24.00    2.67
  27   7  -5   18.14    2.37
  -5 -27  -7   23.40    2.57
  27  -7  -5   18.28    2.41
  -5 -27   7   23.92    2.69
   5 -27  -7   25.15    2.76
  27   9  -5    5.46    1.81
   5 -27   9    4.18    1.64
  -5 -27  -9    7.16    1.78
  27  -9   5    0.88    1.64
  -5 -27   9    7.77    1.90
   5 -27  -9    5.29    1.78
  27  -9  -5    4.50    1.70
  27   9   5    4.52    1.70
   5 -27  11   -1.06    1.31
  27 -11   5   -3.22    1.33
  27  11  -5    1.16    1.55
  27 -11  -5    0.47    1.58
   5 -27 -11    0.67    1.50
  -5 -27  11    2.54    1.51
  27  11   5    1.86    1.58
  27  13  -5    1.12    1.67
   5 -27  13    0.89    1.56
  27 -13   5   -1.88    1.49
  -5 -27  13    1.22    1.55
  27  13   5    0.36    1.55
  27 -13  -5    1.25    1.57
  27  15  -5    3.69    1.93
  27 -15   5    8.19    2.14
   5 -27  15    4.77    1.84
  27 -15  -5    2.68    1.88
  -5 -27  15    6.08    1.85
  27  15   5    9.39    2.08
   5 -27  17    8.15    2.02
  -5 -27  17    6.35    2.01
  27  17   5    7.59    2.05
   5 -27  19   -1.00    1.57
  27   1  -7    0.47    1.40
   7 -27   1    0.93    1.48
  27  -1   7   -0.49    1.33
  -7 -27  -1    0.11    1.39
  27  -1  -7   -0.97    1.25
   7 -27  -1   -1.02    1.34
  27   1   7    0.10    1.34
  -7 -27   1    0.96    1.45
   7 -27   3    0.13    1.36
  27  -3   7   -1.01    1.37
  -7 -27  -3    0.34    1.38
  27   3  -7    1.30    1.45
  27  -3  -7    0.78    1.32
  -7 -27   3    0.88    1.41
  27   3   7    0.07    1.32
   7 -27  -3    1.59    1.53
  27   5  -7   17.35    2.35
   7 -27   5   20.49    2.57
  27  -5   7   20.06    2.43
  -7 -27  -5   23.35    2.65
  -7 -27   5   22.63    2.59
  27   5   7   19.40    2.27
  27  -5  -7   21.66    2.48
   7 -27  -5   23.25    2.72
  27  -7   7   -1.04    1.39
  -7 -27  -7    2.23    1.50
  27   7  -7    1.13    1.52
   7 -27   7    2.21    1.54
   7 -27  -7    0.30    1.45
  27   7   7   -1.34    1.35
  -7 -27   7    0.51    1.36
  27  -7  -7    0.72    1.38
  27   9  -7    1.56    1.60
   7 -27   9    1.11    1.50
  27  -9   7    0.83    1.58
  -7 -27  -9   -0.02    1.40
  -7 -27   9    1.58    1.49
  27   9   7   -0.59    1.43
   7 -27  -9    1.08    1.54
  27  -9  -7    1.55    1.51
  27  11  -7    0.42    1.47
   7 -27  11   -1.78    1.37
  27 -11   7   -0.94    1.42
   7 -27 -11    0.10    1.52
  27  11   7    0.65    1.44
  -7 -27  11    0.65    1.39
  27 -11  -7    0.78    1.60
   7 -27  13    1.66    1.58
  27 -13   7    3.26    1.73
  27  13  -7    3.78    1.80
  27 -13  -7    2.67    1.77
  27  13   7    3.17    1.72
  -7 -27  13    6.25    1.84
   7 -27  15   13.60    2.33
  27 -15   7   13.90    2.44
  27  15   7   13.14    2.19
  -7 -27  15   12.67    2.34
   7 -27  17    2.32    1.69
  27   1  -9    4.24    1.61
  27  -1   9   -0.99    1.21
   9 -27   1    1.86    1.55
  -9 -27  -1    5.68    1.86
  -9 -27   1    6.26    1.83
  27   1   9    1.72    1.36
  27  -1  -9    3.97    1.55
   9 -27  -1    0.74    1.47
  -9 -27  -3    2.40    1.51
  27   3  -9   -1.33    1.36
  27  -3   9   -0.56    1.26
   9 -27   3    2.27    1.60
   9 -27  -3   -0.19    1.41
  27  -3  -9    0.05    1.34
  -9 -27   3   -0.72    1.23
  27   3   9    0.59    1.29
   9 -27   5    3.19    1.65
  27   5  -9    3.51    1.63
  27  -5   9    2.73    1.48
  -9 -27  -5    4.69    1.66
  27   5   9    1.48    1.43
   9 -27  -5    1.04    1.42
  -9 -27   5    4.04    1.48
  27  -5  -9    4.19    1.54
  27  -7   9    0.72    1.41
   9 -27   7   -0.69    1.42
  27   7  -9    1.18    1.44
  -9 -27  -7    1.06    1.41
  -9 -27   7    0.83    1.50
  27  -7  -9    0.32    1.53
   9 -27  -7   -0.69    1.44
  27   9  -9   12.88    2.15
  27  -9   9    8.56    1.96
   9 -27   9   15.51    2.46
  -9 -27  -9    9.92    1.89
   9 -27  -9   15.24    2.39
  -9 -27   9   11.88    2.23
  27  -9  -9   11.89    2.14
   9 -27  11   -0.17    1.54
  27  11  -9   -0.14    1.47
  27 -11   9    0.55    1.54
   9 -27 -11    2.10    1.73
  -9 -27  11    1.27    1.53
  27 -11  -9   -0.69    1.46
  27 -13   9   -0.08    1.54
   9 -27  13    2.03    1.62
  27  13  -9    2.38    1.82
  27 -13  -9    3.62    1.85
  -9 -27  13    2.37    1.58
   9 -27  15    0.12    1.68
  27 -15   9    1.01    1.70
  11 -27   1    0.14    1.42
  27   1 -11    1.92    1.54
 -11 -27  -1    1.47    1.47
  11 -27  -1    1.49    1.55
 -11 -27   1   -0.74    1.35
  27  -1 -11    2.39    1.58
  11 -27   3    5.17    1.78
 -11 -27  -3    9.79    2.06
  27   3 -11    7.88    1.88
 -11 -27   3    9.00    1.95
  11 -27  -3    4.99    1.71
  27  -3 -11    7.06    1.84
  27   5 -11    1.32    1.45
 -11 -27  -5    1.26    1.49
  11 -27   5   -1.37    1.36
  27  -5 -11    2.09    1.51
 -11 -27   5    1.04    1.46
  11 -27  -5   -0.07    1.55
 -11 -27  -7    1.99    1.55
  11 -27   7   -0.08    1.42
  27   7 -11    0.87    1.50
  27  -7  11    0.22    1.41
  11 -27  -7    0.85    1.64
  27  -7 -11    0.44    1.58
 -11 -27   7    1.20    1.50
  11 -27   9   -1.08    1.33
  27  -9  11   -2.06    1.43
  27   9 -11    1.08    1.60
  27  -9 -11   -0.14    1.60
  11 -27  -9   -2.23    1.41
 -11 -27   9    1.29    1.53
  27  11 -11    0.37    1.58
  11 -27  11   -1.52    1.39
  27 -11  11    0.83    1.57
  27 -11 -11   -0.26    1.66
 -11 -27  11   -1.01    1.38
  11 -27 -11   -1.52    1.49
  27 -13  11   -0.41    1.50
  11 -27  13    0.25    1.54
  11 -27 -13    0.37    1.74
  27 -15  11    0.87    1.71
  13 -27   1    0.23    1.51
 -13 -27  -1   -0.50    1.38
  27   1 -13    0.14    1.48
  13 -27  -1   -3.09    1.33
  27  -1 -13    1.00    1.53
 -13 -27   1   -0.03    1.45
 -13 -27  -3    1.69    1.47
  27   3 -13    1.84    1.60
  13 -27   3    1.93    1.67
  27  -3 -13    3.53    1.74
 -13 -27   3    0.76    1.38
  13 -27  -3    1.56    1.61
  27   5 -13   -1.16    1.47
  13 -27   5    0.35    1.57
 -13 -27  -5   -0.71    1.38
  13 -27  -5    0.58    1.61
 -13 -27   5   -0.94    1.38
  27  -5 -13    2.39    1.67
  27   7 -13    3.26    1.81
  13 -27   7    0.32    1.56
 -13 -27  -7    4.05    1.62
  27  -7 -13    2.91    1.75
  13 -27  -7    3.58    1.82
 -13 -27   7    3.34    1.61
  13 -27   9    3.65    1.80
  27   9 -13    5.33    1.89
  13 -27  -9    3.04    1.85
 -13 -27   9    2.37    1.62
  27  -9 -13    0.73    1.65
  13 -27  11   -0.77    1.49
  13 -27 -11   -0.33    1.76
  27 -11 -13   -0.49    1.63
  13 -27 -13   -1.47    1.64
  27   1 -15    0.85    1.58
 -15 -27  -1    4.86    1.85
  15 -27   1    1.73    1.66
  27  -1 -15    0.88    1.58
 -15 -27   1    3.83    1.75
  15 -27  -1    3.82    1.89
 -15 -27  -3    4.44    1.77
  15 -27   3    7.55    2.21
  27   3 -15    6.82    1.89
 -15 -27   3    9.02    2.08
  15 -27  -3    6.52    1.98
  27  -3 -15    8.26    1.98
 -15 -27  -5    7.30    1.91
  27   5 -15    8.25    2.09
  15 -27   5    7.50    2.04
 -15 -27   5    9.07    2.18
  27  -5 -15    8.19    2.01
  15 -27  -5    5.38    2.03
  27   7 -15    8.48    2.00
 -15 -27  -7    8.34    2.08
  15 -27  -7   11.29    2.40
  27  -7 -15   13.04    2.25
  15 -27  -9   -1.92    1.66
  27  -9 -15    0.13    1.66
  15 -27 -11    1.12    1.81
 -17 -27  -1    1.16    1.50
  27   1 -17    0.79    1.56
  27  -1 -17    2.39    1.64
 -17 -27  -3    1.12    1.57
  27   3 -17    4.70    1.84
  27  -3 -17    3.42    1.73
 -17 -27  -5    7.62    1.95
  27   5 -17    4.65    1.94
  27  -5 -17    3.94    1.85
  27  -7 -17    3.64    1.93
   0 -28   0   50.61    3.47
  28   0   0   48.52    3.36
   0 -28  -2    1.08    1.47
   0 -28   2    1.62    1.46
  28  -2   0    3.31    1.53
  28   2   0    2.46    1.60
  28   4   0   14.06    2.18
   0 -28  -4   22.01    2.68
   0 -28   4   16.08    2.33
  28  -4   0   12.92    2.12
  28  -6   0   -0.57    1.41
   0 -28  -6    0.91    1.46
  28   6   0    2.49    1.55
   0 -28   6   -0.77    1.32
  28   8   0   -1.01    1.45
   0 -28  -8   -0.57    1.45
  28  -8   0    0.30    1.43
   0 -28   8   -0.14    1.36
  28 -10   0    9.19    2.09
   0 -28  10   20.32    2.62
  28  10   0   15.70    2.35
   0 -28 -10   13.37    2.32
   0 -28  12    4.57    1.76
  28 -12   0    2.47    1.76
  28  12   0    0.13    1.59
  28 -14   0   20.07    2.78
  28  14   0   13.08    2.29
   0 -28  14   14.64    2.42
   0 -28  16    6.09    1.92
   2 -28   0    3.50    1.53
  -2 -28   0    2.23    1.59
  28   0  -2    0.09    1.36
  28   0   2    3.66    1.61
  28   2  -2    5.39    1.69
   2 -28   2   11.85    2.13
  -2 -28  -2    5.53    1.77
  28  -2   2    7.65    1.79
   2 -28  -2    8.00    1.94
  28  -2  -2    9.36    1.91
  28   2   2    8.14    1.84
  -2 -28   2    9.91    2.05
   2 -28   4    1.33    1.43
  -2 -28  -4   -1.15    1.31
  28  -4   2    0.10    1.41
  28   4  -2    0.68    1.40
  -2 -28   4    1.18    1.34
  28   4   2   -1.16    1.35
  28  -4  -2    0.70    1.44
   2 -28  -4    0.08    1.49
  28  -6   2    5.73    1.75
  28   6  -2    3.32    1.67
  -2 -28  -6    2.04    1.57
   2 -28   6    0.97    1.50
  -2 -28   6    1.75    1.44
  28   6   2    2.88    1.60
  28  -6  -2    3.76    1.60
   2 -28  -6    2.08    1.66
  -2 -28  -8    4.17    1.67
   2 -28   8    2.69    1.51
  28   8  -2    2.10    1.61
  28  -8   2    0.04    1.38
  28   8   2    1.59    1.58
   2 -28  -8    3.75    1.60
  28  -8  -2   -1.33    1.45
  -2 -28   8    5.01    1.78
  28 -10   2    4.68    1.84
   2 -28  10    7.04    1.96
  28  10  -2    7.40    1.90
  -2 -28 -10    5.71    1.77
  28 -10  -2    3.99    1.76
  -2 -28  10    4.72    1.71
   2 -28 -10    6.39    1.85
  28  10   2    3.65    1.74
  28 -12   2   -0.46    1.57
  28  12  -2   -0.18    1.58
   2 -28  12    1.17    1.47
  28  12   2    0.79    1.54
  -2 -28  12    0.03    1.43
  28 -12  -2   -1.64    1.48
   2 -28  14    2.61    1.67
  28  14  -2    2.33    1.77
  28 -14   2    1.32    1.78
  28  14   2    4.19    1.86
  -2 -28  14    1.58    1.63
  28 -14  -2    3.65    1.88
   2 -28  16   -1.68    1.42
  28  16   2    3.18    1.81
  -4 -28   0   17.32    2.45
  28   0  -4   15.87    2.29
   4 -28   0   18.93    2.49
  28   0   4   14.86    2.21
  28   2  -4    1.18    1.44
  28  -2   4   -0.67    1.39
  -4 -28  -2    1.55    1.49
   4 -28   2    0.24    1.42
  -4 -28   2   -0.22    1.40
   4 -28  -2   -1.75    1.42
  28  -2  -4   -0.06    1.37
  28   2   4    1.39    1.53
  28   4  -4   30.58    2.97
   4 -28   4   31.39    3.05
  28  -4   4   39.27    3.12
  -4 -28  -4   35.43    3.16
  28  -4  -4   38.29    3.07
   4 -28  -4   34.66    3.12
  -4 -28   4   38.22    3.15
  28  -6   4    2.16    1.60
   4 -28   6    2.65    1.54
  -4 -28  -6    6.14    1.72
  28   6  -4    3.38    1.65
  28  -6  -4    0.61    1.51
   4 -28  -6    4.79    1.77
  28   6   4    4.09    1.69
  -4 -28   6    7.68    2.06
  28   8  -4    3.50    1.67
   4 -28   8    2.19    1.53
  28  -8   4    2.44    1.67
  -4 -28  -8    5.02    1.71
   4 -28  -8    1.95    1.62
  28  -8  -4    2.25    1.66
  -4 -28   8    2.71    1.52
  28   8   4    2.47    1.56
  28 -10   4   -0.20    1.52
  -4 -28 -10    1.37    1.49
   4 -28  10    0.14    1.39
  28  10  -4   -0.02    1.50
  28 -10  -4    1.27    1.58
   4 -28 -10   -1.24    1.51
  -4 -28  10    3.48    1.64
  28  10   4    4.40    1.68
  28 -12   4    2.90    1.82
   4 -28  12    4.29    1.69
  28  12  -4    6.24    2.01
  -4 -28  12    3.95    1.73
  28 -12  -4    4.74    1.92
  28  12   4    5.30    1.92
   4 -28  14   32.51    3.17
  28 -14   4   32.29    3.21
  -4 -28  14   32.30    3.21
  28  14   4   31.95    3.06
   4 -28  16    2.38    1.69
  28  16   4    2.30    1.83
  28   0  -6   -0.37    1.26
  -6 -28   0    0.34    1.36
   6 -28   0   -1.49    1.34
  28   0   6   -1.29    1.26
  28  -2   6    3.50    1.64
  -6 -28  -2    3.19    1.55
   6 -28   2    2.82    1.59
  28   2  -6   -0.03    1.28
  28   2   6    1.28    1.39
  28  -2  -6   -0.48    1.35
  -6 -28   2    2.41    1.49
   6 -28  -2    1.87    1.54
   6 -28   4    5.40    1.82
  28   4  -6    3.64    1.69
  -6 -28  -4    2.70    1.58
  28  -4   6    4.26    1.63
  28   4   6    5.05    1.66
  -6 -28   4    3.54    1.61
  28  -4  -6    0.92    1.41
   6 -28  -4    1.92    1.65
  -6 -28  -6    4.95    1.67
  28   6  -6    2.71    1.63
  28  -6   6    3.89    1.71
   6 -28   6    4.50    1.78
  28  -6  -6    3.58    1.66
   6 -28  -6    1.28    1.56
  -6 -28   6    4.47    1.70
  28   6   6    4.21    1.67
   6 -28   8    1.67    1.62
  -6 -28  -8    0.27    1.44
  28  -8   6    1.43    1.56
  28   8  -6    0.88    1.47
  28   8   6   -0.86    1.40
  -6 -28   8   -0.92    1.27
   6 -28  -8   -1.07    1.41
  28  -8  -6   -0.42    1.50
  28 -10   6   -0.07    1.53
  28  10  -6    0.59    1.59
   6 -28  10    0.06    1.50
  -6 -28  10    1.68    1.46
   6 -28 -10   -1.70    1.43
  28  10   6   -1.15    1.46
  28 -10  -6   -1.59    1.39
  28 -12   6    2.82    1.77
   6 -28  12    4.46    1.88
  28  12  -6    6.85    2.03
   6 -28 -12    5.88    1.89
  28  12   6    5.02    1.81
  -6 -28  12    1.48    1.70
  28 -12  -6    2.10    1.69
   6 -28  14    3.40    1.77
  28 -14   6    9.79    2.27
  28  14   6    8.58    2.02
  28  16   6    0.88    1.68
  -8 -28   0    0.20    1.44
  28   0  -8   -0.31    1.35
   8 -28   0    0.72    1.55
  28   0   8    0.14    1.34
  -8 -28  -2    1.93    1.59
   8 -28   2    0.42    1.44
  28   2  -8    2.32    1.55
  28  -2   8    2.35    1.45
  -8 -28   2    2.43    1.59
  28   2   8    2.78    1.49
   8 -28  -2    2.63    1.71
  28  -2  -8    1.04    1.50
  -8 -28  -4    1.50    1.54
  28   4  -8    3.75    1.61
   8 -28   4    0.72    1.41
  28  -4   8    2.39    1.54
   8 -28  -4    2.52    1.66
  28  -4  -8    4.12    1.61
  28   4   8    1.05    1.42
  -8 -28   4    4.90    1.84
  28   6  -8    1.92    1.62
  -8 -28  -6    2.13    1.57
  28  -6   8   -0.08    1.47
   8 -28   6   -0.63    1.42
  -8 -28   6   -0.21    1.45
  28   6   8   -0.80    1.36
  28  -6  -8    0.83    1.50
   8 -28  -6   -0.51    1.47
   8 -28   8    1.25    1.44
  28   8  -8    1.75    1.62
  -8 -28  -8   -0.25    1.37
  28  -8   8   -1.13    1.44
  28  -8  -8    1.40    1.48
  28   8   8    0.45    1.49
  -8 -28   8    1.34    1.50
   8 -28  -8   -0.65    1.48
  28 -10   8   -0.28    1.62
  28  10  -8    0.99    1.62
   8 -28  10   -0.58    1.40
   8 -28 -10    0.47    1.61
  28 -10  -8    0.81    1.66
  -8 -28  10    0.73    1.58
  28  10   8    0.69    1.44
  28 -12   8    1.97    1.75
   8 -28  12    0.36    1.62
   8 -28 -12   -0.82    1.69
  -8 -28  12    1.25    1.55
  28 -14   8    2.97    1.88
   8 -28  14    2.51    1.79
  10 -28   0    9.09    1.98
 -10 -28   0    9.82    2.03
  28   0 -10   17.38    2.33
 -10 -28  -2    5.48    1.78
  28   2 -10    5.00    1.79
  10 -28   2    6.38    1.97
  28  -2  10    4.87    1.70
 -10 -28   2   10.33    2.18
  28  -2 -10    4.90    1.69
  10 -28  -2    3.33    1.66
  10 -28   4    0.67    1.55
  28  -4  10    0.43    1.45
  28   4 -10    1.46    1.57
 -10 -28  -4    0.91    1.48
  10 -28  -4   -0.63    1.47
  28  -4 -10    1.98    1.60
 -10 -28   4   -0.24    1.42
  28  -6  10   -0.94    1.42
  28   6 -10   -0.24    1.51
 -10 -28  -6    2.36    1.60
  10 -28   6   -0.38    1.48
  28  -6 -10    1.34    1.58
  10 -28  -6   -0.78    1.56
 -10 -28   6    1.94    1.47
  28   8 -10    3.10    1.77
 -10 -28  -8    1.64    1.54
  28  -8  10   -0.81    1.54
  10 -28   8   -0.31    1.56
  10 -28  -8    2.19    1.71
 -10 -28   8    3.24    1.69
  28  -8 -10   -0.58    1.63
  28 -10  10    5.53    1.88
  10 -28  10    7.34    2.08
  28  10 -10    5.83    1.82
 -10 -28  10    7.52    1.92
  10 -28 -10    1.88    1.78
  28 -10 -10    5.35    1.94
  10 -28  12   -0.74    1.53
  28 -12  10    5.61    1.93
  10 -28 -12    4.51    1.86
  28 -14  10    6.32    2.06
  28   0 -12    1.84    1.54
 -12 -28   0    3.29    1.65
  12 -28   0   -0.55    1.51
  28   2 -12   -0.20    1.45
 -12 -28  -2    1.75    1.51
  12 -28   2    0.70    1.50
 -12 -28   2    1.66    1.56
  12 -28  -2   -1.40    1.49
  28  -2 -12    1.26    1.58
  28   4 -12    5.53    1.78
 -12 -28  -4    1.81    1.64
  12 -28   4    4.49    1.80
  28  -4 -12    6.06    1.84
  12 -28  -4    5.12    1.98
 -12 -28   4    5.93    2.01
 -12 -28  -6    5.38    1.79
  12 -28   6    2.84    1.74
  28   6 -12    5.46    1.85
  28  -6 -12    4.78    1.91
 -12 -28   6    3.97    1.83
  12 -28  -6    2.66    1.76
  12 -28   8    2.09    1.72
 -12 -28  -8    1.64    1.57
  28   8 -12    1.67    1.58
  28  -8 -12    1.28    1.68
  12 -28  -8    1.01    1.64
  12 -28 -10    2.56    1.82
  12 -28 -12    3.16    1.95
 -14 -28   0   15.24    2.53
  14 -28   0   12.64    2.40
  28   0 -14   13.05    2.21
 -14 -28  -2    3.96    1.67
  28   2 -14    2.81    1.78
  14 -28  -2    0.76    1.58
 -14 -28   2    3.02    1.78
  28  -2 -14    0.06    1.56
 -14 -28  -4   32.36    3.26
  28   4 -14   36.30    3.23
  14 -28  -4   33.22    3.36
  28  -4 -14   39.32    3.22
 -14 -28  -6    5.06    1.79
  28  -6 -14    4.87    1.94
  14 -28  -6    3.97    1.97
 -16 -28  -2    1.98    1.64
 -16 -28  -4    0.30    1.53
 -16 -28  -6    0.96    1.62
  -1 -29  -1    4.27    1.67
  29   1  -1    3.05    1.63
  29  -1   1    4.49    1.69
   1 -29   1    3.83    1.63
   1 -29  -1    6.46    1.86
  29  -1  -1    4.69    1.71
  -1 -29   1    6.98    1.95
  29   1   1    1.60    1.64
  -1 -29  -3   -1.62    1.33
   1 -29   3    0.26    1.40
  29  -3   1    0.78    1.43
  29   3  -1    0.22    1.56
   1 -29  -3    0.32    1.53
  29   3   1   -1.50    1.43
  -1 -29   3    1.45    1.50
  29  -3  -1    0.46    1.47
  29  -5   1   -1.60    1.41
  29   5  -1    1.89    1.62
  -1 -29  -5   -3.18    1.32
   1 -29   5    1.12    1.45
  -1 -29   5    0.04    1.42
  29   5   1   -2.06    1.36
   1 -29  -5    0.00    1.46
  29  -5  -1    0.27    1.47
   1 -29   7    0.15    1.36
  -1 -29  -7   -0.70    1.48
  29  -7   1    0.39    1.57
  29   7  -1   -2.03    1.37
  29   7   1   -1.08    1.46
   1 -29  -7    0.62    1.66
  -1 -29   7    2.54    1.62
  29  -7  -1   -1.68    1.47
   1 -29   9    1.79    1.53
  29   9  -1    0.50    1.64
  -1 -29  -9   -1.14    1.48
  29  -9   1   -1.68    1.39
  29   9   1   -2.21    1.49
  -1 -29   9    2.17    1.47
  29  -9  -1   -0.71    1.52
   1 -29  -9    1.49    1.62
  29 -11   1    2.33    1.78
  29  11  -1    2.66    1.73
   1 -29  11    8.38    2.18
  29 -11  -1    3.76    1.84
  -1 -29  11    2.45    1.57
  29  11   1    0.53    1.62
  29  13  -1    2.00    1.79
   1 -29  13    0.23    1.51
  29  13   1   -0.70    1.59
  -1 -29  13    2.38    1.64
  -3 -29  -1   -0.28    1.38
   3 -29   1   -1.86    1.30
  29   1  -3    1.48    1.47
  29  -1   3    0.62    1.40
   3 -29  -1   -0.96    1.42
  -3 -29   1   -0.08    1.45
  29  -1  -3    1.14    1.53
  29   1   3    2.80    1.62
  29  -3   3    2.27    1.59
  29   3  -3   -0.29    1.42
   3 -29   3   -1.85    1.21
  -3 -29  -3    0.66    1.51
  29   3   3    0.40    1.48
  29  -3  -3   -0.82    1.46
   3 -29  -3   -1.27    1.46
  -3 -29   3    0.97    1.41
  -3 -29  -5    1.58    1.54
  29  -5   3    2.79    1.66
   3 -29   5    1.96    1.55
  29   5  -3    2.34    1.58
  -3 -29   5    1.74    1.57
   3 -29  -5    0.81    1.61
  29  -5  -3    2.28    1.63
  29   5   3    1.12    1.52
  29  -7   3    2.58    1.69
   3 -29   7   -0.17    1.47
  -3 -29  -7   -0.93    1.41
  29   7  -3    2.63    1.59
  29  -7  -3   -1.66    1.38
  -3 -29   7   -0.24    1.34
  29   7   3    0.43    1.50
   3 -29  -7    0.29    1.47
  29   9  -3    0.47    1.57
   3 -29   9    1.38    1.64
  29  -9   3    0.24    1.67
  -3 -29  -9   -1.00    1.46
   3 -29  -9   -0.22    1.47
  -3 -29   9   -1.36    1.36
  29   9   3   -0.74    1.51
  29  -9  -3   -0.29    1.57
  29 -11   3   -0.42    1.51
   3 -29  11    0.13    1.50
  29  11  -3    3.26    1.77
  -3 -29  11    1.46    1.55
  29 -11  -3   -1.65    1.44
   3 -29 -11    1.47    1.69
  29  11   3    0.81    1.60
  29  13   3    1.71    1.78
  29   1  -5   -1.76    1.27
  29  -1   5    0.99    1.52
   5 -29   1   -0.47    1.39
  -5 -29  -1   -1.85    1.34
  29  -1  -5    1.13    1.44
   5 -29  -1    0.16    1.50
  -5 -29   1    0.00    1.44
  29   1   5    0.26    1.48
   5 -29   3   -1.06    1.38
  29  -3   5    4.77    1.72
  29   3  -5    1.81    1.51
  -5 -29  -3    1.13    1.42
  -5 -29   3    2.57    1.61
   5 -29  -3    1.04    1.57
  29   3   5    2.55    1.69
  29  -3  -5    2.54    1.61
  29   5  -5    1.05    1.59
   5 -29   5    0.54    1.49
  29  -5   5   -1.09    1.46
  -5 -29  -5    2.11    1.56
  -5 -29   5    1.36    1.54
  29  -5  -5   -2.45    1.25
  29   5   5   -0.63    1.48
   5 -29  -5    1.05    1.62
  29  -7   5    2.55    1.66
  29   7  -5    1.06    1.65
   5 -29   7    2.30    1.68
  -5 -29  -7    1.74    1.53
   5 -29  -7    1.68    1.66
  29  -7  -5    2.98    1.72
  -5 -29   7    5.50    1.83
  29   7   5    1.04    1.60
   5 -29   9    5.95    1.92
  -5 -29  -9    6.21    1.85
  29  -9   5    5.13    1.85
  29   9  -5    6.29    1.94
  -5 -29   9    6.69    1.93
  29  -9  -5    6.84    1.94
   5 -29  -9    6.11    1.96
  29   9   5    5.58    1.86
  29 -11   5    0.29    1.68
   5 -29  11   -1.08    1.54
  -5 -29  11   -0.86    1.37
   5 -29 -11   -0.22    1.57
  29  11   5    0.26    1.50
  29  13   5   -0.67    1.58
  29  15   5    0.71    1.75
   7 -29   1   -1.92    1.37
  29   1  -7    2.32    1.49
  29  -1   7    0.10    1.39
  -7 -29  -1    0.84    1.57
  29  -1  -7    1.12    1.44
  29   1   7   -0.18    1.35
   7 -29  -1    1.65    1.59
  -7 -29   1   -0.59    1.43
  29   3  -7   -0.20    1.34
  29  -3   7    1.12    1.45
  -7 -29  -3    1.08    1.54
   7 -29   3   -1.45    1.44
  -7 -29   3   -1.96    1.28
   7 -29  -3    0.15    1.61
  29  -3  -7    0.66    1.49
  29   3   7   -1.36    1.46
   7 -29   5    1.00    1.47
  29  -5   7    0.38    1.51
  -7 -29  -5    4.15    1.77
  29   5  -7    2.95    1.73
   7 -29  -5    3.60    1.82
  29   5   7    5.65    1.75
  -7 -29   5    1.10    1.47
  29  -5  -7    3.05    1.68
  29   7  -7    0.84    1.53
   7 -29   7   -0.05    1.43
  -7 -29  -7    0.07    1.49
  29  -7   7   -1.86    1.40
  -7 -29   7    3.46    1.68
  29   7   7   -0.51    1.45
   7 -29  -7   -0.01    1.51
  29  -7  -7    0.53    1.55
  29   9  -7   -0.94    1.57
  29  -9   7   -1.50    1.43
   7 -29   9    1.99    1.69
   7 -29  -9   -0.09    1.49
  -7 -29   9    1.68    1.60
  29   9   7   -0.94    1.52
  29  -9  -7    0.21    1.53
   7 -29  11    0.16    1.54
  29 -11   7    0.75    1.73
  29  11   7    2.59    1.74
   7 -29 -11    1.81    1.78
  29  -1   9   -1.00    1.36
  -9 -29  -1   -1.52    1.29
   9 -29   1   -0.13    1.55
  29   1  -9    0.18    1.53
  29   1   9   -1.27    1.27
  29  -1  -9    2.06    1.57
  -9 -29   1    0.30    1.47
   9 -29  -1    0.21    1.50
  29  -3   9    2.10    1.56
   9 -29   3    1.62    1.63
  -9 -29  -3   -0.45    1.42
  29   3  -9   -0.86    1.43
  -9 -29   3   -0.09    1.51
  29   3   9    2.18    1.54
  29  -3  -9   -2.28    1.28
   9 -29  -3   -1.42    1.50
  -9 -29  -5    3.87    1.73
  29  -5   9    4.22    1.74
   9 -29   5    2.38    1.70
  29   5  -9    5.55    1.81
  29  -5  -9    6.98    1.94
  -9 -29   5    5.44    1.85
   9 -29  -5    3.37    1.81
  29   7  -9    0.89    1.62
  29  -7   9   -0.44    1.51
   9 -29   7   -0.65    1.45
  -9 -29  -7    0.39    1.54
   9 -29  -7    2.48    1.78
  29  -7  -9   -1.57    1.44
  -9 -29   7    2.29    1.50
  29  -9   9   -0.34    1.52
   9 -29  -9    2.32    1.76
  29 -11   9    2.15    1.77
   9 -29 -11    0.14    1.76
  11 -29   1    0.77    1.54
 -11 -29  -1    4.97    1.80
  29   1 -11    1.53    1.67
  29  -1 -11    3.27    1.69
 -11 -29   1    4.24    1.75
  11 -29  -1    4.70    1.82
  29   3 -11    0.82    1.53
  11 -29   3   -0.20    1.50
 -11 -29  -3   -1.50    1.39
  11 -29  -3    1.41    1.77
 -11 -29   3    0.54    1.56
  29  -3 -11    1.20    1.53
  29   5 -11    1.05    1.60
 -11 -29  -5    1.53    1.56
  29  -5 -11    0.95    1.67
  11 -29  -5    1.05    1.73
 -11 -29   5    1.42    1.57
 -11 -29  -7    4.27    1.72
  11 -29  -7   -0.67    1.66
  11 -29  -9    0.20    1.74
  11 -29 -11   -1.19    1.69
 -13 -29  -1    1.33    1.67
 -13 -29   1   -0.85    1.52
 -13 -29  -3   -1.07    1.46
 -13 -29  -5   -0.54    1.51
 -13 -29  -7    1.06    1.55
 -15 -29  -5    1.00    1.64
   0 -30   0   -0.26    1.46
  30   0   0    1.37    1.51
  30  -2   0    0.97    1.57
  30   2   0   -0.85    1.43
   0 -30   2   -0.26    1.35
   0 -30  -2    0.00    1.56
  30  -4   0    6.10    1.89
   0 -30  -4    5.55    1.83
   0 -30   4    6.85    1.98
  30   4   0    5.21    1.84
   0 -30   6    2.35    1.57
  30   6   0    1.61    1.60
  30  -6   0    0.55    1.61
   0 -30  -6    1.21    1.67
   0 -30   8    0.84    1.60
   0 -30  -8   -0.38    1.58
  30  -8   0   -0.08    1.57
  30   8   0    0.32    1.58
  30  10   0    5.68    1.92
   0 -30 -10    2.39    1.76
  -2 -30   0    0.73    1.48
  30   0   2   -0.67    1.47
   2 -30   0   -1.79    1.39
  30   0  -2   -0.30    1.41
  -2 -30  -2   31.12    3.16
  30  -2   2   32.17    3.05
   2 -30   2   34.00    3.26
  30   2  -2   28.08    2.91
   2 -30  -2   32.48    3.23
  -2 -30   2   35.10    3.30
  30  -2  -2   32.68    3.07
  30   2   2   27.87    2.96
  30   4  -2    0.27    1.50
   2 -30   4    1.43    1.47
  -2 -30  -4    1.58    1.52
  30  -4   2    0.46    1.59
  30  -4  -2   -0.61    1.39
  -2 -30   4    1.88    1.53
  30   4   2    1.33    1.62
   2 -30  -4   -0.17    1.56
  -2 -30  -6    3.47    1.70
  30  -6   2    1.59    1.70
   2 -30   6    5.22    1.86
  30   6  -2    1.46    1.64
  30   6   2    0.44    1.58
  -2 -30   6    2.04    1.52
   2 -30  -6    3.41    1.75
  30  -6  -2    1.98    1.66
   2 -30   8    3.16    1.75
  30   8  -2    1.33    1.74
  -2 -30  -8    1.65    1.64
  30  -8   2    2.38    1.74
  30  -8  -2    2.65    1.73
  30   8   2    3.45    1.77
   2 -30  -8    2.96    1.71
  -2 -30   8    1.15    1.58
  30 -10   2    0.78    1.71
   2 -30 -10   -2.05    1.51
  30  10   2    1.19    1.68
  -4 -30   0    6.27    1.96
  30   0  -4    3.16    1.65
  30   0   4    4.27    1.67
   4 -30   0    4.32    1.85
  30  -2   4    3.64    1.61
   4 -30   2    0.01    1.59
  30   2  -4    0.26    1.42
  -4 -30  -2   -0.63    1.47
  -4 -30   2   -0.67    1.50
   4 -30  -2   -0.93    1.39
  30  -2  -4    1.49    1.45
  30   2   4    1.83    1.57
  30  -4   4    0.64    1.53
  -4 -30  -4    3.77    1.76
   4 -30   4    4.24    1.80
  30   4  -4    1.51    1.64
  30  -4  -4    1.43    1.68
  30   4   4    1.64    1.60
  -4 -30   4    4.77    1.66
   4 -30  -4   -1.52    1.41
  -4 -30  -6    0.63    1.55
   4 -30   6    2.72    1.74
  30   6  -4    2.42    1.70
  30  -6   4   -0.19    1.54
   4 -30  -6    0.27    1.54
  30  -6  -4    0.80    1.52
  30   6   4   -1.10    1.57
  -4 -30   6    3.68    1.62
   4 -30   8    0.74    1.58
  -4 -30  -8    2.93    1.69
  30  -8   4    3.34    1.77
  30   8  -4    4.03    1.86
  -4 -30   8   -0.53    1.44
   4 -30  -8    0.50    1.69
  30  -8  -4    1.92    1.71
  30   8   4    0.87    1.71
  30 -10   4    0.74    1.68
  30  10   4   -0.09    1.61
   4 -30 -10    5.64    1.98
  30  12   4    1.07    1.76
  30   0  -6    3.90    1.70
   6 -30   0    3.55    1.75
  -6 -30   0    3.07    1.68
  30   0   6    0.30    1.44
  30   2  -6    3.18    1.58
  -6 -30  -2    3.35    1.72
   6 -30   2    4.12    1.73
  30  -2   6    2.27    1.62
  30   2   6    5.42    1.82
  30  -2  -6    1.42    1.63
  -6 -30   2    3.02    1.68
   6 -30  -2    2.00    1.69
  30   4  -6    3.11    1.69
  30  -4   6    1.88    1.68
   6 -30   4    3.10    1.71
  -6 -30  -4    2.05    1.59
  -6 -30   4    0.97    1.60
   6 -30  -4    1.48    1.66
  30   4   6    1.84    1.54
  30  -4  -6    2.98    1.58
   6 -30   6    0.94    1.67
  -6 -30  -6   -1.23    1.42
  30   6  -6   -0.48    1.59
  30  -6   6    1.19    1.59
  30   6   6   -1.83    1.40
  30  -6  -6   -0.59    1.34
   6 -30  -6   -1.19    1.55
  -6 -30   6    2.42    1.62
  -6 -30  -8    0.83    1.57
  30  -8   6   -0.62    1.56
   6 -30  -8   -1.01    1.57
  30   8   6    1.07    1.66
  30 -10   6    4.37    1.87
  30  10   6    3.03    1.79
   6 -30 -10    4.73    1.88
  30  12   6    2.59    1.70
  30   0  -8    0.58    1.44
  30   0   8    1.43    1.52
  -8 -30   0    1.91    1.57
   8 -30   0    2.23    1.70
  30   2  -8    3.91    1.73
   8 -30   2    1.00    1.58
  30  -2   8    1.66    1.62
  -8 -30  -2    4.65    1.73
  30  -2  -8    0.98    1.51
   8 -30  -2    1.67    1.66
  -8 -30   2    3.94    1.79
  30   2   8    1.41    1.62
  30   4  -8    0.82    1.54
  -8 -30  -4    1.47    1.64
  30  -4   8    3.58    1.68
   8 -30   4   -2.43    1.42
   8 -30  -4   -0.11    1.59
  30  -4  -8    3.20    1.58
  30   4   8    0.53    1.54
  -8 -30   4    3.16    1.62
  -8 -30  -6    3.30    1.65
  30  -6   8    0.56    1.61
  30   6   8    1.76    1.59
   8 -30  -6   -0.93    1.54
  -8 -30  -8    1.01    1.63
  30  -8   8   -0.02    1.56
   8 -30  -8    0.18    1.57
  30 -10   8   -0.05    1.57
   8 -30 -10    0.05    1.73
 -10 -30   0    5.11    1.79
 -10 -30  -2   -0.83    1.42
 -10 -30   2    0.85    1.60
 -10 -30  -4    1.48    1.64
  30  -6  10    0.05    1.57
 -10 -30  -6    2.37    1.63
  30  -8  10   -1.78    1.47
  30 -10  10   -0.92    1.59
 -12 -30  -4    2.03    1.70
 -12 -30  -6    3.71    1.72
  -1 -31  -1    8.36    2.04
  31   1  -1    6.49    1.89
  31  -1   1    5.02    1.77
   1 -31   1    6.00    1.93
   1 -31  -1    7.79    2.01
  31  -1  -1    8.84    2.12
  -1 -31   1    6.20    2.08
  31   1   1    4.93    1.89
  -1 -31  -3    1.08    1.56
   1 -31   3    1.51    1.65
  31   3  -1    0.02    1.54
  31  -3   1    2.30    1.71
  31  -3  -1    1.31    1.61
  31   3   1    1.15    1.67
   1 -31  -3    1.89    1.68
  -1 -31   3    2.44    1.72
  31   5  -1    1.49    1.68
  31  -5   1   -0.15    1.56
  -1 -31  -5   -0.92    1.51
  31   5   1    0.78    1.66
  31  -5  -1   -2.62    1.43
   1 -31  -5    3.07    1.77
  -1 -31  -7   -1.01    1.60
   1 -31  -7   -0.59    1.63
  31   7   1   -0.62    1.57
  -1 -31  -9    4.68    1.92
   1 -31  -9    5.19    1.90
  31   1  -3    1.33    1.58
  31  -1   3    3.00    1.71
  -3 -31  -1    3.40    1.77
   3 -31   1    1.31    1.57
   3 -31  -1    0.18    1.60
  31  -1  -3    1.24    1.59
  31   1   3   -0.23    1.56
  -3 -31   1    2.87    1.70
  -3 -31  -3    2.99    1.72
  31  -3   3    2.62    1.72
   3 -31   3    2.95    1.64
  31   3  -3    2.03    1.60
  -3 -31   3    1.38    1.67
   3 -31  -3   -1.46    1.59
  31  -3  -3    2.65    1.74
  31   3   3   -1.17    1.44
  31  -5   3    0.91    1.66
  31   5  -3   -0.15    1.64
  -3 -31  -5    1.07    1.60
   3 -31  -5   -1.83    1.45
  31   5   3    1.60    1.65
  31  -7   3    6.24    1.98
  -3 -31  -7   10.22    2.20
  31   7   3    6.87    2.03
   3 -31  -7    6.81    2.06
  -3 -31  -9    0.72    1.66
  31   9   3    0.22    1.68
   3 -31  -9    0.29    1.70
   5 -31   1    0.03    1.58
  -5 -31  -1    0.13    1.57
  31  -1   5    1.88    1.59
   5 -31  -1    3.42    1.72
  -5 -31   1    0.66    1.60
  31   1   5   -0.03    1.55
  -5 -31  -3   -0.39    1.49
  31  -3   5    1.00    1.62
  31   3   5    0.54    1.58
   5 -31  -3   -1.63    1.56
  -5 -31  -5   -0.05    1.50
  31  -5   5    0.27    1.61
   5 -31  -5    2.75    1.78
  31   5   5   -0.84    1.53
  31  -7   5    0.26    1.69
  -5 -31  -7   -3.11    1.37
  31   7   5    1.61    1.71
   5 -31  -7    0.68    1.83
  31   9   5   -0.32    1.63
   5 -31  -9   -0.04    1.67
  -7 -31  -1   -1.30    1.53
  31  -1   7    0.56    1.42
  31   1   7   -0.71    1.45
  31  -3   7    7.25    1.93
  -7 -31  -3    7.56    2.02
  31   3   7    5.30    1.80
  31  -5   7   -1.39    1.53
  -7 -31  -5    2.51    1.74
  31   5   7    1.42    1.64
  -7 -31  -7    9.22    2.08
  31  -7   7   10.93    2.32
  31   7   7   12.22    2.16
  31   9   7   -0.60    1.51
  -9 -31  -3    1.22    1.66
  31  -3   9    2.43    1.63
  31  -5   9   -1.29    1.50
  -9 -31  -5    1.41    1.71
  31  -7   9    0.79    1.72
  -9 -31  -7   -0.25    1.57
   0 -32  -4    2.59    1.90
   0 -32  -6   -2.20    1.55
   0 -32  -8    4.00    1.99
  32   0   2    1.12    1.76
  32   2   2    0.13    1.66
  -2 -32  -4    2.11    1.75
  -2 -32  -6   -1.01    1.65
  -2 -32  -8    0.66    1.74
  32   0   4    4.83    1.89
  32  -2   4   -0.79    1.58
  32   2   4    0.53    1.73
  32   4   4    1.86    1.76
  -4 -32  -6    4.40    1.92
  -4 -32  -8   -0.71    1.70
  32   0   6    0.59    1.68
  32  -2   6    1.33    1.64
  32   2   6    2.76    1.80
  32  -4   6    1.68    1.74
  32   4   6    0.78    1.68
  32   6   6    1.96    1.75
  -6 -32  -8    1.39    1.79
  32   0   8    4.45    1.84
  32  -2   8    1.33    1.58
  32   2   8   -0.37    1.49
  32  -4   8   -1.42    1.45
   0   0   0    0.00    0.00
;
_shelx_hkl_checksum              73552
_shelx_fab_file
;
    1    1    1   -768.74      0.00
    0    0    2    163.65      0.00
    0    2    2    350.98      0.00
    2    2    2   -192.50      0.00
    1    1    3    124.61      0.00
    1    3    3    -88.48      0.00
    3    3    3    318.77      0.00
    0    0    4   -248.94      0.00
    0    2    4    -53.24      0.00
    2    2    4     -9.84      0.00
    0    4    4    182.63      0.00
    2    4    4    -87.84      0.00
    4    4    4   -132.63      0.00
    1    1    5     25.84      0.00
    1    3    5    -49.58      0.00
    3    3    5      2.36      0.00
    1    5    5     30.64      0.00
    3    5    5     90.19      0.00
    5    5    5    -42.92      0.00
    0    0    6    -40.19      0.00
    0    2    6     36.77      0.00
    0    4    6    -25.78      0.00
    2    2    6     73.09      0.00
    2    4    6    -12.14      0.00
    4    4    6     21.13      0.00
    0    6    6    -37.54      0.00
    2    6    6   -113.36      0.00
    4    6    6    -23.90      0.00
    6    6    6     67.44      0.00
    1    1    7     46.83      0.00
    1    3    7    -20.39      0.00
    1    5    7     55.84      0.00
    3    3    7    -40.83      0.00
    3    5    7     32.91      0.00
    5    5    7    -37.79      0.00
    1    7    7    -12.48      0.00
    3    7    7     56.76      0.00
    5    7    7     -9.34      0.00
    7    7    7     -3.14      0.00
    0    0    8   -154.40      0.00
    0    2    8    -69.12      0.00
    0    4    8     15.47      0.00
    0    6    8      3.96      0.00
    2    2    8     10.48      0.00
    2    4    8     -6.07      0.00
    2    6    8    -10.28      0.00
    4    4    8     18.46      0.00
    4    6    8     -2.71      0.00
    6    6    8     13.61      0.00
    0    8    8     98.62      0.00
    2    8    8     47.27      0.00
    4    8    8      0.80      0.00
    6    8    8     -8.04      0.00
    8    8    8     14.65      0.00
    1    1    9     75.51      0.00
    1    3    9      0.11      0.00
    1    5    9    -27.76      0.00
    1    7    9    -42.32      0.00
    3    3    9    -19.66      0.00
    3    5    9      0.89      0.00
    3    7    9    -38.86      0.00
    5    5    9     -6.46      0.00
    5    7    9      9.75      0.00
    7    7    9     -5.79      0.00
    1    9    9    -82.20      0.00
    3    9    9     -2.97      0.00
    5    9    9    -32.90      0.00
    7    9    9     -7.15      0.00
    9    9    9    -72.85      0.00
    0    0   10      5.25      0.00
    0    2   10      0.72      0.00
    0    4   10      9.00      0.00
    0    6   10     26.56      0.00
    0    8   10     50.59      0.00
    2    2   10    -16.60      0.00
    2    4   10     41.16      0.00
    2    6   10     20.20      0.00
    2    8   10     21.62      0.00
    4    4   10    -28.33      0.00
    4    6   10      8.61      0.00
    4    8   10     18.30      0.00
    6    6   10    -20.07      0.00
    6    8   10      3.42      0.00
    8    8   10     32.03      0.00
    0   10   10     30.68      0.00
    2   10   10     -0.59      0.00
    4   10   10     20.10      0.00
    6   10   10     34.96      0.00
    8   10   10     23.12      0.00
   10   10   10     19.27      0.00
    1    1   11    -50.20      0.00
    1    3   11      0.81      0.00
    1    5   11     -8.62      0.00
    1    7   11     -8.99      0.00
    1    9   11      2.26      0.00
    3    3   11      1.31      0.00
    3    5   11    -11.00      0.00
    3    7   11      8.12      0.00
    3    9   11     -8.93      0.00
    5    5   11     21.52      0.00
    5    7   11     -4.72      0.00
    5    9   11     -9.01      0.00
    7    7   11     15.80      0.00
    7    9   11    -25.37      0.00
    9    9   11     -4.42      0.00
    1   11   11     -3.81      0.00
    3   11   11     -1.18      0.00
    5   11   11      3.83      0.00
    7   11   11      0.27      0.00
    9   11   11     -0.11      0.00
   11   11   11      1.57      0.00
    0    0   12    107.15      0.00
    0    2   12     25.22      0.00
    0    4   12    -13.81      0.00
    0    6   12      2.82      0.00
    0    8   12    -13.51      0.00
    0   10   12    -12.25      0.00
    2    2   12      7.98      0.00
    2    4   12    -25.35      0.00
    2    6   12     -3.76      0.00
    2    8   12     -5.47      0.00
    2   10   12     11.13      0.00
    4    4   12     28.74      0.00
    4    6   12     -1.14      0.00
    4    8   12     -8.97      0.00
    4   10   12     -6.59      0.00
    6    6   12      8.83      0.00
    6    8   12      0.85      0.00
    6   10   12     -7.31      0.00
    8    8   12     -3.85      0.00
    8   10   12      2.07      0.00
   10   10   12    -11.99      0.00
    0   12   12     31.20      0.00
    2   12   12     -0.97      0.00
    4   12   12    -21.12      0.00
    6   12   12    -31.50      0.00
    8   12   12      4.04      0.00
   10   12   12      2.98      0.00
   12   12   12     -7.61      0.00
    1    1   13    -44.93      0.00
    1    3   13     11.54      0.00
    1    5   13      4.26      0.00
    1    7   13     -3.38      0.00
    1    9   13      8.47      0.00
    1   11   13    -15.78      0.00
    3    3   13     10.17      0.00
    3    5   13     -4.02      0.00
    3    7   13      6.55      0.00
    3    9   13     -7.40      0.00
    3   11   13      6.96      0.00
    5    5   13    -44.35      0.00
    5    7   13     -4.42      0.00
    5    9   13     12.32      0.00
    5   11   13     23.07      0.00
    7    7   13     -4.10      0.00
    7    9   13      2.34      0.00
    7   11   13      4.87      0.00
    9    9   13     13.20      0.00
    9   11   13     -6.97      0.00
   11   11   13     14.05      0.00
    1   13   13      6.70      0.00
    3   13   13      3.29      0.00
    5   13   13     13.42      0.00
    7   13   13      6.16      0.00
    9   13   13     -6.10      0.00
   11   13   13     -9.46      0.00
   13   13   13    -13.69      0.00
    0    0   14     29.11      0.00
    0    2   14     18.75      0.00
    0    4   14     11.02      0.00
    0    6   14     30.76      0.00
    0    8   14     -3.52      0.00
    0   10   14     -6.75      0.00
    0   12   14     -7.94      0.00
    2    2   14     -6.26      0.00
    2    4   14      3.00      0.00
    2    6   14      7.44      0.00
    2    8   14     -5.80      0.00
    2   10   14      9.95      0.00
    2   12   14     -3.47      0.00
    4    4   14     11.67      0.00
    4    6   14     10.15      0.00
    4    8   14      5.09      0.00
    4   10   14     -9.63      0.00
    4   12   14     -2.40      0.00
    6    6   14     15.78      0.00
    6    8   14     -4.03      0.00
    6   10   14      1.53      0.00
    6   12   14      2.52      0.00
    8    8   14    -14.33      0.00
    8   10   14     11.27      0.00
    8   12   14      1.81      0.00
   10   10   14    -13.85      0.00
   10   12   14      2.73      0.00
   12   12   14      6.09      0.00
    0   14   14     -1.62      0.00
    2   14   14     -9.47      0.00
    4   14   14     -1.13      0.00
    6   14   14     -1.11      0.00
    8   14   14     13.42      0.00
   10   14   14      9.44      0.00
   12   14   14     16.08      0.00
   14   14   14    -10.67      0.00
    1    1   15     -5.90      0.00
    1    3   15     -9.19      0.00
    1    5   15    -25.27      0.00
    1    7   15     -9.23      0.00
    1    9   15      9.50      0.00
    1   11   15     10.09      0.00
    1   13   15      4.16      0.00
    3    3   15      3.63      0.00
    3    5   15     -6.99      0.00
    3    7   15      9.79      0.00
    3    9   15      1.40      0.00
    3   11   15     -3.78      0.00
    3   13   15      8.47      0.00
    5    5   15      5.53      0.00
    5    7   15     -0.75      0.00
    5    9   15      5.48      0.00
    5   11   15     -6.06      0.00
    5   13   15     -8.88      0.00
    7    7   15     22.41      0.00
    7    9   15     -1.23      0.00
    7   11   15    -17.33      0.00
    7   13   15     -6.86      0.00
    9    9   15      1.03      0.00
    9   11   15     -2.27      0.00
    9   13   15     -2.86      0.00
   11   11   15      4.64      0.00
   11   13   15     -9.28      0.00
   13   13   15     -6.96      0.00
    1   15   15     -9.13      0.00
    3   15   15     -1.12      0.00
    5   15   15     -7.10      0.00
    7   15   15     -2.67      0.00
    9   15   15    -10.92      0.00
   11   15   15     -0.71      0.00
   13   15   15      0.29      0.00
   15   15   15     -7.51      0.00
    0    0   16     -3.82      0.00
    0    2   16      6.50      0.00
    0    4   16     -0.21      0.00
    0    6   16      6.49      0.00
    0    8   16     -1.99      0.00
    0   10   16     -2.03      0.00
    0   12   16     -4.23      0.00
    0   14   16     16.91      0.00
    2    2   16     -6.84      0.00
    2    4   16      2.17      0.00
    2    6   16     -6.12      0.00
    2    8   16     -2.25      0.00
    2   10   16     -3.87      0.00
    2   12   16     -4.20      0.00
    2   14   16     -1.96      0.00
    4    4   16      1.37      0.00
    4    6   16     -4.09      0.00
    4    8   16    -22.93      0.00
    4   10   16      3.32      0.00
    4   12   16     -1.82      0.00
    4   14   16      6.84      0.00
    6    6   16    -16.29      0.00
    6    8   16    -12.73      0.00
    6   10   16     -5.19      0.00
    6   12   16     10.33      0.00
    6   14   16      1.28      0.00
    8    8   16    -11.85      0.00
    8   10   16      0.57      0.00
    8   12   16     11.37      0.00
    8   14   16     -3.16      0.00
   10   10   16     18.88      0.00
   10   12   16     -6.86      0.00
   10   14   16      1.66      0.00
   12   12   16     11.56      0.00
   12   14   16     -0.04      0.00
   14   14   16     15.48      0.00
    0   16   16     28.53      0.00
    2   16   16      0.52      0.00
    4   16   16      2.16      0.00
    6   16   16     23.93      0.00
    8   16   16     -4.05      0.00
   10   16   16     13.85      0.00
   12   16   16     -1.80      0.00
   14   16   16     -7.87      0.00
   16   16   16      5.21      0.00
    1    1   17      1.26      0.00
    1    3   17      9.37      0.00
    1    5   17     19.91      0.00
    1    7   17      9.04      0.00
    1    9   17    -20.83      0.00
    1   11   17     -6.06      0.00
    1   13   17     -3.16      0.00
    1   15   17    -23.28      0.00
    3    3   17     -0.66      0.00
    3    5   17      0.74      0.00
    3    7   17      7.21      0.00
    3    9   17      4.61      0.00
    3   11   17     -0.68      0.00
    3   13   17      0.47      0.00
    3   15   17     10.12      0.00
    5    5   17     -6.83      0.00
    5    7   17     11.41      0.00
    5    9   17      9.98      0.00
    5   11   17      6.26      0.00
    5   13   17      5.77      0.00
    5   15   17    -12.55      0.00
    7    7   17     -0.97      0.00
    7    9   17     31.86      0.00
    7   11   17      0.18      0.00
    7   13   17      1.97      0.00
    7   15   17      4.16      0.00
    9    9   17    -11.26      0.00
    9   11   17     -8.90      0.00
    9   13   17      0.16      0.00
    9   15   17      1.12      0.00
   11   11   17    -13.78      0.00
   11   13   17      4.01      0.00
   11   15   17     -7.67      0.00
   13   13   17    -13.67      0.00
   13   15   17     -0.17      0.00
   15   15   17     -0.68      0.00
    1   17   17      0.35      0.00
    3   17   17    -11.20      0.00
    5   17   17     -8.55      0.00
    7   17   17    -18.85      0.00
    9   17   17     -7.31      0.00
   11   17   17    -14.51      0.00
   13   17   17     20.92      0.00
   15   17   17     23.80      0.00
   17   17   17     -1.15      0.00
    0    0   18     10.10      0.00
    0    2   18    -19.03      0.00
    0    4   18     -8.76      0.00
    0    6   18    -31.99      0.00
    0    8   18     27.13      0.00
    0   10   18     43.85      0.00
    0   12   18     -7.30      0.00
    0   14   18     19.87      0.00
    0   16   18      5.61      0.00
    2    2   18      8.37      0.00
    2    4   18      0.85      0.00
    2    6   18     -6.18      0.00
    2    8   18      5.70      0.00
    2   10   18     18.35      0.00
    2   12   18      0.51      0.00
    2   14   18      8.46      0.00
    2   16   18     12.57      0.00
    4    4   18     -0.57      0.00
    4    6   18     -1.26      0.00
    4    8   18     14.64      0.00
    4   10   18     -3.33      0.00
    4   12   18      0.89      0.00
    4   14   18    -18.10      0.00
    4   16   18      6.44      0.00
    6    6   18     21.19      0.00
    6    8   18    -16.30      0.00
    6   10   18    -19.63      0.00
    6   12   18     -8.13      0.00
    6   14   18     -2.62      0.00
    6   16   18     -0.61      0.00
    8    8   18    -25.82      0.00
    8   10   18     -4.62      0.00
    8   12   18      3.62      0.00
    8   14   18     -6.12      0.00
    8   16   18      9.09      0.00
   10   10   18     10.94      0.00
   10   12   18     11.95      0.00
   10   14   18      8.55      0.00
   10   16   18      5.47      0.00
   12   12   18      2.15      0.00
   12   14   18      1.87      0.00
   12   16   18      4.76      0.00
   14   14   18      0.35      0.00
   14   16   18    -18.05      0.00
   16   16   18    -21.14      0.00
    0   18   18     18.94      0.00
    2   18   18    -12.00      0.00
    4   18   18      9.32      0.00
    6   18   18     16.31      0.00
    8   18   18     -6.36      0.00
   10   18   18      3.73      0.00
   12   18   18    -15.79      0.00
   14   18   18     -5.32      0.00
   16   18   18     -1.42      0.00
   18   18   18    -18.20      0.00
    1    1   19      7.56      0.00
    1    3   19     -7.81      0.00
    1    5   19      2.65      0.00
    1    7   19      6.04      0.00
    1    9   19    -46.80      0.00
    1   11   19     -8.05      0.00
    1   13   19      1.39      0.00
    1   15   19     -9.98      0.00
    1   17   19    -15.07      0.00
    3    3   19    -22.69      0.00
    3    5   19     11.13      0.00
    3    7   19    -14.51      0.00
    3    9   19     -8.99      0.00
    3   11   19     -8.46      0.00
    3   13   19      8.23      0.00
    3   15   19    -18.69      0.00
    3   17   19      4.82      0.00
    5    5   19      0.01      0.00
    5    7   19     -7.68      0.00
    5    9   19      8.96      0.00
    5   11   19      0.08      0.00
    5   13   19      5.03      0.00
    5   15   19     19.15      0.00
    5   17   19    -13.14      0.00
    7    7   19     20.63      0.00
    7    9   19     22.92      0.00
    7   11   19      8.16      0.00
    7   13   19     -1.19      0.00
    7   15   19     -3.96      0.00
    7   17   19      6.44      0.00
    9    9   19      4.53      0.00
    9   11   19     -7.79      0.00
    9   13   19    -10.10      0.00
    9   15   19      2.30      0.00
    9   17   19     -1.97      0.00
   11   11   19     -3.46      0.00
   11   13   19    -11.66      0.00
   11   15   19    -10.82      0.00
   11   17   19      9.79      0.00
   13   13   19     10.48      0.00
   13   15   19      3.33      0.00
   13   17   19     -0.91      0.00
   15   15   19     14.60      0.00
   15   17   19     -0.39      0.00
   17   17   19     29.51      0.00
    1   19   19    -14.67      0.00
    3   19   19     11.90      0.00
    5   19   19      8.71      0.00
    7   19   19     11.57      0.00
    9   19   19      6.29      0.00
   11   19   19      1.77      0.00
   13   19   19      1.49      0.00
   15   19   19      1.67      0.00
   17   19   19    -35.53      0.00
    0    0   20    -25.16      0.00
    0    2   20     10.74      0.00
    0    4   20      6.95      0.00
    0    6   20    -23.99      0.00
    0    8   20     28.99      0.00
    0   10   20     30.90      0.00
    0   12   20     -7.46      0.00
    0   14   20     -3.72      0.00
    0   16   20     12.15      0.00
    0   18   20     22.17      0.00
    2    2   20     20.66      0.00
    2    4   20      0.80      0.00
    2    6   20     -8.53      0.00
    2    8   20     22.40      0.00
    2   10   20      9.83      0.00
    2   12   20     -1.94      0.00
    2   14   20      3.85      0.00
    2   16   20     20.48      0.00
    2   18   20      7.59      0.00
    4    4   20      1.66      0.00
    4    6   20      2.96      0.00
    4    8   20    -22.69      0.00
    4   10   20      7.54      0.00
    4   12   20     -3.03      0.00
    4   14   20      6.41      0.00
    4   16   20     -0.44      0.00
    4   18   20    -17.03      0.00
    6    6   20    -27.74      0.00
    6    8   20    -25.24      0.00
    6   10   20    -15.55      0.00
    6   12   20      9.03      0.00
    6   14   20     -2.26      0.00
    6   16   20     -1.66      0.00
    6   18   20    -15.09      0.00
    8    8   20     -5.13      0.00
    8   10   20     -6.21      0.00
    8   12   20      3.23      0.00
    8   14   20      1.25      0.00
    8   16   20     -7.11      0.00
    8   18   20     -5.42      0.00
   10   10   20      9.22      0.00
   10   12   20      3.47      0.00
   10   14   20      4.18      0.00
   10   16   20     -7.00      0.00
   10   18   20     -3.48      0.00
   12   12   20     -2.83      0.00
   12   14   20      8.86      0.00
   12   16   20      2.59      0.00
   12   18   20      9.45      0.00
   14   14   20     -8.46      0.00
   14   16   20     18.28      0.00
   14   18   20      1.15      0.00
   16   16   20    -11.83      0.00
   16   18   20     -2.95      0.00
    0   20   20     14.59      0.00
    2   20   20    -11.33      0.00
    4   20   20     -6.71      0.00
    6   20   20    -17.50      0.00
    8   20   20      4.18      0.00
   10   20   20     -7.24      0.00
   12   20   20     -3.09      0.00
   14   20   20     -7.03      0.00
    1    1   21     -6.90      0.00
    1    3   21    -18.93      0.00
    1    5   21     35.08      0.00
    1    7   21     -4.02      0.00
    1    9   21    -16.33      0.00
    1   11   21     -1.73      0.00
    1   13   21      1.57      0.00
    1   15   21    -11.96      0.00
    1   17   21    -12.06      0.00
    1   19   21     -2.82      0.00
    3    3   21      7.99      0.00
    3    5   21    -10.98      0.00
    3    7   21     13.70      0.00
    3    9   21      1.53      0.00
    3   11   21     -1.73      0.00
    3   13   21      0.13      0.00
    3   15   21     -2.73      0.00
    3   17   21    -12.84      0.00
    3   19   21     11.42      0.00
    5    5   21      2.03      0.00
    5    7   21     48.85      0.00
    5    9   21     25.78      0.00
    5   11   21     -7.10      0.00
    5   13   21     -6.58      0.00
    5   15   21     -7.97      0.00
    5   17   21     30.82      0.00
    5   19   21     23.17      0.00
    7    7   21     22.65      0.00
    7    9   21     -1.08      0.00
    7   11   21      5.16      0.00
    7   13   21     -6.69      0.00
    7   15   21      4.74      0.00
    7   17   21      1.58      0.00
    7   19   21      1.53      0.00
    9    9   21     -7.31      0.00
    9   11   21     -2.26      0.00
    9   13   21      5.88      0.00
    9   15   21      5.69      0.00
    9   17   21      9.84      0.00
    9   19   21      1.69      0.00
   11   11   21      5.29      0.00
   11   13   21     -3.28      0.00
   11   15   21      2.29      0.00
   11   17   21     -9.37      0.00
   11   19   21     -6.62      0.00
   13   13   21     -3.78      0.00
   13   15   21    -22.20      0.00
   13   17   21    -20.27      0.00
   13   19   21     -5.35      0.00
   15   15   21    -19.38      0.00
   15   17   21      8.68      0.00
   15   19   21      2.16      0.00
   17   17   21    -11.93      0.00
    1   21   21     -0.34      0.00
    3   21   21      9.51      0.00
    5   21   21    -18.40      0.00
    7   21   21      3.22      0.00
    9   21   21     -9.49      0.00
   11   21   21     44.79      0.00
    0    0   22     -1.78      0.00
    0    2   22     24.42      0.00
    0    4   22    -19.77      0.00
    0    6   22    -17.13      0.00
    0    8   22     -2.75      0.00
    0   10   22    -12.80      0.00
    0   12   22     12.69      0.00
    0   14   22     15.65      0.00
    0   16   22      8.35      0.00
    0   18   22    -20.20      0.00
    0   20   22     -2.19      0.00
    2    2   22      9.54      0.00
    2    4   22     -0.46      0.00
    2    6   22     -9.56      0.00
    2    8   22     -2.07      0.00
    2   10   22      8.28      0.00
    2   12   22     -6.53      0.00
    2   14   22      4.79      0.00
    2   16   22      6.00      0.00
    2   18   22      2.46      0.00
    2   20   22     -5.32      0.00
    4    4   22     10.78      0.00
    4    6   22    -13.47      0.00
    4    8   22    -15.82      0.00
    4   10   22     -5.74      0.00
    4   12   22     13.45      0.00
    4   14   22    -15.08      0.00
    4   16   22     -4.18      0.00
    4   18   22    -14.99      0.00
    4   20   22    -14.47      0.00
    6    6   22    -41.11      0.00
    6    8   22    -16.35      0.00
    6   10   22     13.23      0.00
    6   12   22     -1.80      0.00
    6   14   22      9.33      0.00
    6   16   22    -13.68      0.00
    6   18   22    -15.90      0.00
    6   20   22     11.63      0.00
    8    8   22     13.25      0.00
    8   10   22      8.23      0.00
    8   12   22     -5.96      0.00
    8   14   22      2.58      0.00
    8   16   22      3.72      0.00
    8   18   22      4.56      0.00
    8   20   22      1.27      0.00
   10   10   22    -11.71      0.00
   10   12   22      0.56      0.00
   10   14   22     -2.13      0.00
   10   16   22     -4.75      0.00
   10   18   22     -3.92      0.00
   10   20   22     -6.13      0.00
   12   12   22     -3.48      0.00
   12   14   22      8.59      0.00
   12   16   22     19.50      0.00
   12   18   22     26.04      0.00
   14   14   22     28.06      0.00
   14   16   22      3.99      0.00
   14   18   22      4.20      0.00
   16   16   22      3.95      0.00
    0   22   22      6.58      0.00
    2   22   22      2.29      0.00
    4   22   22     36.51      0.00
    6   22   22     -4.63      0.00
    1    1   23    -15.69      0.00
    1    3   23     -3.23      0.00
    1    5   23     -2.30      0.00
    1    7   23     11.66      0.00
    1    9   23     16.97      0.00
    1   11   23     -5.07      0.00
    1   13   23    -10.89      0.00
    1   15   23     -5.57      0.00
    1   17   23     16.96      0.00
    1   19   23     15.30      0.00
    1   21   23     -1.82      0.00
    3    3   23    -22.00      0.00
    3    5   23      1.84      0.00
    3    7   23     -0.68      0.00
    3    9   23    -10.36      0.00
    3   11   23      2.78      0.00
    3   13   23      4.77      0.00
    3   15   23      8.72      0.00
    3   17   23      5.67      0.00
    3   19   23      9.62      0.00
    3   21   23    -14.33      0.00
    5    5   23     24.33      0.00
    5    7   23     -4.62      0.00
    5    9   23     -7.86      0.00
    5   11   23    -10.62      0.00
    5   13   23      7.13      0.00
    5   15   23     20.49      0.00
    5   17   23     -2.48      0.00
    5   19   23     12.81      0.00
    5   21   23     -2.23      0.00
    7    7   23     15.74      0.00
    7    9   23    -26.25      0.00
    7   11   23     -3.66      0.00
    7   13   23     -0.18      0.00
    7   15   23    -13.27      0.00
    7   17   23     -0.66      0.00
    7   19   23    -12.42      0.00
    7   21   23     -2.84      0.00
    9    9   23      4.35      0.00
    9   11   23      5.10      0.00
    9   13   23     -6.98      0.00
    9   15   23     -8.62      0.00
    9   17   23      0.17      0.00
    9   19   23     -2.71      0.00
   11   11   23      5.81      0.00
   11   13   23      0.22      0.00
   11   15   23     -8.33      0.00
   11   17   23     -0.46      0.00
   11   19   23      7.53      0.00
   13   13   23    -12.83      0.00
   13   15   23     -5.22      0.00
   13   17   23    -11.15      0.00
   15   15   23     10.19      0.00
    0    0   24     18.43      0.00
    0    2   24      7.84      0.00
    0    4   24      0.05      0.00
    0    6   24     -4.88      0.00
    0    8   24    -25.77      0.00
    0   10   24      3.99      0.00
    0   12   24     15.05      0.00
    0   14   24     -8.86      0.00
    0   16   24    -14.55      0.00
    0   18   24    -18.54      0.00
    0   20   24    -12.80      0.00
    2    2   24      9.12      0.00
    2    4   24     12.79      0.00
    2    6   24      0.31      0.00
    2    8   24     -3.29      0.00
    2   10   24     -3.54      0.00
    2   12   24      6.64      0.00
    2   14   24     -0.58      0.00
    2   16   24    -17.93      0.00
    2   18   24    -14.20      0.00
    2   20   24      5.96      0.00
    4    4   24     -1.98      0.00
    4    6   24     -0.61      0.00
    4    8   24     19.19      0.00
    4   10   24      2.13      0.00
    4   12   24    -12.28      0.00
    4   14   24     -3.27      0.00
    4   16   24     -1.66      0.00
    4   18   24     -7.64      0.00
    4   20   24      1.21      0.00
    6    6   24      9.04      0.00
    6    8   24     15.95      0.00
    6   10   24      7.94      0.00
    6   12   24      2.88      0.00
    6   14   24    -15.30      0.00
    6   16   24     17.80      0.00
    6   18   24     13.89      0.00
    6   20   24     -8.04      0.00
    8    8   24     10.90      0.00
    8   10   24      1.48      0.00
    8   12   24      2.17      0.00
    8   14   24     16.53      0.00
    8   16   24      4.02      0.00
    8   18   24     21.26      0.00
   10   10   24     -0.56      0.00
   10   12   24     -5.93      0.00
   10   14   24      6.55      0.00
   10   16   24      1.31      0.00
   10   18   24     -9.16      0.00
   12   12   24      0.21      0.00
   12   14   24      7.15      0.00
   12   16   24     -0.26      0.00
   14   14   24     -7.75      0.00
    1    1   25    -13.44      0.00
    1    3   25      3.63      0.00
    1    5   25     14.18      0.00
    1    7   25     11.93      0.00
    1    9   25      1.40      0.00
    1   11   25    -14.57      0.00
    1   13   25      0.90      0.00
    1   15   25     23.11      0.00
    1   17   25      9.31      0.00
    1   19   25      6.70      0.00
    3    3   25     -1.49      0.00
    3    5   25     -4.03      0.00
    3    7   25      0.85      0.00
    3    9   25      8.80      0.00
    3   11   25      4.12      0.00
    3   13   25     -7.12      0.00
    3   15   25      0.57      0.00
    3   17   25     12.77      0.00
    3   19   25     -5.71      0.00
    5    5   25    -11.57      0.00
    5    7   25     -3.51      0.00
    5    9   25     -4.50      0.00
    5   11   25     17.21      0.00
    5   13   25      6.18      0.00
    5   15   25    -20.50      0.00
    5   17   25     -7.28      0.00
    5   19   25     -0.39      0.00
    7    7   25    -35.28      0.00
    7    9   25     11.39      0.00
    7   11   25     -8.03      0.00
    7   13   25      3.26      0.00
    7   15   25      7.75      0.00
    7   17   25    -34.16      0.00
    9    9   25    -13.84      0.00
    9   11   25      9.59      0.00
    9   13   25     -6.58      0.00
    9   15   25      3.97      0.00
    9   17   25     -5.28      0.00
   11   11   25      0.74      0.00
   11   13   25     13.26      0.00
   11   15   25     -7.10      0.00
   13   13   25     -7.29      0.00
   13   15   25     -5.58      0.00
    0    0   26     38.75      0.00
    0    2   26     -7.09      0.00
    0    4   26    -24.47      0.00
    0    6   26    -19.14      0.00
    0    8   26      2.15      0.00
    0   10   26      7.22      0.00
    0   12   26      0.44      0.00
    0   14   26     -4.85      0.00
    0   16   26    -11.49      0.00
    0   18   26      0.52      0.00
    2    2   26     -1.21      0.00
    2    4   26    -16.69      0.00
    2    6   26     -7.39      0.00
    2    8   26    -13.55      0.00
    2   10   26      0.52      0.00
    2   12   26     15.96      0.00
    2   14   26    -13.71      0.00
    2   16   26     -2.01      0.00
    2   18   26      0.68      0.00
    4    4   26     10.21      0.00
    4    6   26     -6.26      0.00
    4    8   26    -13.81      0.00
    4   10   26    -11.53      0.00
    4   12   26     -3.77      0.00
    4   14   26     20.10      0.00
    4   16   26     -0.75      0.00
    4   18   26      4.01      0.00
    6    6   26     14.16      0.00
    6    8   26      7.37      0.00
    6   10   26    -10.69      0.00
    6   12   26     -5.45      0.00
    6   14   26      1.02      0.00
    6   16   26      4.05      0.00
    8    8   26     -3.47      0.00
    8   10   26     -2.32      0.00
    8   12   26      8.97      0.00
    8   14   26    -22.23      0.00
    8   16   26      4.30      0.00
   10   10   26    -13.89      0.00
   10   12   26    -10.57      0.00
   10   14   26     -4.93      0.00
   12   12   26    -22.32      0.00
   12   14   26      4.69      0.00
    1    1   27    -10.89      0.00
    1    3   27     21.13      0.00
    1    5   27      3.32      0.00
    1    7   27      3.35      0.00
    1    9   27      4.57      0.00
    1   11   27     -0.49      0.00
    1   13   27      1.23      0.00
    1   15   27      0.44      0.00
    1   17   27     -4.96      0.00
    3    3   27      1.48      0.00
    3    5   27     10.59      0.00
    3    7   27     11.17      0.00
    3    9   27     12.82      0.00
    3   11   27    -12.74      0.00
    3   13   27      0.57      0.00
    3   15   27     -0.25      0.00
    3   17   27     -1.37      0.00
    5    5   27     11.02      0.00
    5    7   27     -3.46      0.00
    5    9   27     -1.98      0.00
    5   11   27      5.58      0.00
    5   13   27    -16.94      0.00
    5   15   27     17.17      0.00
    7    7   27      1.88      0.00
    7    9   27     -2.77      0.00
    7   11   27     -8.08      0.00
    7   13   27      1.40      0.00
    7   15   27     13.06      0.00
    9    9   27     33.27      0.00
    9   11   27     -4.57      0.00
    9   13   27     12.86      0.00
   11   11   27     41.88      0.00
   11   13   27      4.76      0.00
    0    0   28     22.66      0.00
    0    2   28     -8.08      0.00
    0    4   28      4.91      0.00
    0    6   28     19.92      0.00
    0    8   28     -8.30      0.00
    0   10   28     -1.55      0.00
    0   12   28     -0.38      0.00
    0   14   28    -21.76      0.00
    2    2   28     -7.04      0.00
    2    4   28      1.62      0.00
    2    6   28      2.92      0.00
    2    8   28     -4.27      0.00
    2   10   28      0.28      0.00
    2   12   28     -9.81      0.00
    2   14   28      4.13      0.00
    4    4   28    -19.77      0.00
    4    6   28      1.20      0.00
    4    8   28      3.93      0.00
    4   10   28     -1.02      0.00
    4   12   28     17.00      0.00
    4   14   28    -12.82      0.00
    6    6   28     -4.61      0.00
    6    8   28      6.89      0.00
    6   10   28     11.81      0.00
    6   12   28     20.48      0.00
    6   14   28     -5.29      0.00
    8    8   28    -15.06      0.00
    8   10   28     -3.26      0.00
    8   12   28      5.87      0.00
   10   10   28    -22.20      0.00
    1    1   29      3.23      0.00
    1    3   29     -5.28      0.00
    1    5   29    -19.22      0.00
    1    7   29     -5.70      0.00
    1    9   29     -1.32      0.00
    1   11   29     -8.34      0.00
    1   13   29     28.17      0.00
    3    3   29     11.92      0.00
    3    5   29     -2.18      0.00
    3    7   29    -10.26      0.00
    3    9   29      0.23      0.00
    3   11   29     16.97      0.00
    3   13   29     -9.91      0.00
    5    5   29    -12.82      0.00
    5    7   29     -4.68      0.00
    5    9   29     12.55      0.00
    5   11   29    -26.70      0.00
    7    7   29      0.61      0.00
    7    9   29     -0.77      0.00
    7   11   29     -6.12      0.00
    9    9   29      0.19      0.00
    0    0   30    -32.85      0.00
    0    2   30     10.31      0.00
    0    4   30     14.34      0.00
    0    6   30     14.76      0.00
    0    8   30      2.35      0.00
    0   10   30     28.40      0.00
    2    2   30    -12.87      0.00
    2    4   30      0.00      0.00
    2    6   30      9.76      0.00
    2    8   30      6.69      0.00
    2   10   30     -5.01      0.00
    4    4   30     13.20      0.00
    4    6   30     13.35      0.00
    4    8   30    -15.11      0.00
    4   10   30    -11.62      0.00
    6    6   30     20.82      0.00
    6    8   30    -17.03      0.00
    1    1   31     14.66      0.00
    1    3   31     -1.44      0.00
    1    5   31     -8.81      0.00
    1    7   31    -10.54      0.00
    3    3   31      7.80      0.00
    3    5   31    -14.44      0.00
    3    7   31      9.58      0.00
    5    5   31    -18.35      0.00
   19   19   19      8.96      0.00
   18   18   20     27.25      0.00
   16   20   20     19.37      0.00
   18   20   20      6.73      0.00
   17   19   21      0.96      0.00
   19   19   21    -22.05      0.00
   13   21   21     10.85      0.00
   15   21   21     -2.53      0.00
   17   21   21      0.10      0.00
   16   18   22     -9.80      0.00
   18   18   22      1.10      0.00
   12   20   22    -19.92      0.00
   14   20   22     12.69      0.00
   16   20   22    -16.28      0.00
    8   22   22      0.26      0.00
   10   22   22    -24.17      0.00
   12   22   22    -27.91      0.00
   14   22   22    -12.55      0.00
   15   17   23      3.86      0.00
   17   17   23      8.02      0.00
   13   19   23    -20.90      0.00
   15   19   23      1.56      0.00
   17   19   23     12.87      0.00
    9   21   23     16.78      0.00
   11   21   23      6.38      0.00
   13   21   23     12.76      0.00
   15   21   23     -2.55      0.00
    1   23   23    -12.52      0.00
    3   23   23     -9.01      0.00
    5   23   23    -17.31      0.00
    7   23   23     11.29      0.00
    9   23   23     -2.47      0.00
   11   23   23     12.86      0.00
   14   16   24     -9.18      0.00
   16   16   24    -18.39      0.00
   12   18   24     -7.41      0.00
   14   18   24     11.63      0.00
   16   18   24     -2.10      0.00
    8   20   24      3.28      0.00
   10   20   24     -8.21      0.00
   12   20   24     14.60      0.00
   14   20   24      3.14      0.00
    0   22   24     11.25      0.00
    2   22   24     15.37      0.00
    4   22   24     -2.23      0.00
    6   22   24      9.06      0.00
    8   22   24    -14.85      0.00
   10   22   24      2.97      0.00
    0   24   24     13.54      0.00
    2   24   24     -8.43      0.00
    4   24   24     12.65      0.00
    6   24   24     -2.12      0.00
   15   15   25     14.64      0.00
   11   17   25     12.34      0.00
   13   17   25      7.09      0.00
   15   17   25      5.16      0.00
    7   19   25    -12.24      0.00
    9   19   25     -6.08      0.00
   11   19   25      4.13      0.00
   13   19   25     -1.89      0.00
    1   21   25     -9.59      0.00
    3   21   25     -6.70      0.00
    5   21   25      3.20      0.00
    7   21   25      4.62      0.00
    9   21   25      8.02      0.00
   11   21   25     -8.85      0.00
    1   23   25     -7.57      0.00
    3   23   25      2.60      0.00
    5   23   25     -3.18      0.00
   14   14   26     19.83      0.00
   10   16   26     -1.59      0.00
   12   16   26      7.30      0.00
   14   16   26      0.04      0.00
   16   16   26      0.26      0.00
    6   18   26     17.33      0.00
    8   18   26     12.23      0.00
   10   18   26      0.25      0.00
   12   18   26     -5.51      0.00
    0   20   26      2.18      0.00
    2   20   26      8.77      0.00
    4   20   26      5.66      0.00
    6   20   26      2.90      0.00
    8   20   26     -2.88      0.00
   10   20   26     -0.54      0.00
    0   22   26      9.86      0.00
    2   22   26      3.84      0.00
    4   22   26     -2.67      0.00
   13   13   27      6.35      0.00
    9   15   27      1.97      0.00
   11   15   27     -0.62      0.00
   13   15   27    -15.39      0.00
   15   15   27    -16.80      0.00
    5   17   27     -2.28      0.00
    7   17   27     10.31      0.00
    9   17   27     -3.81      0.00
   11   17   27    -11.06      0.00
   13   17   27     -2.13      0.00
    1   19   27     -2.25      0.00
    3   19   27     -8.40      0.00
    5   19   27    -15.78      0.00
    7   19   27     -2.29      0.00
    9   19   27     10.68      0.00
    1   21   27     -7.36      0.00
    3   21   27      0.24      0.00
    5   21   27      4.71      0.00
   10   12   28    -16.17      0.00
   12   12   28    -10.06      0.00
    8   14   28      1.69      0.00
   10   14   28     -2.91      0.00
   12   14   28     -6.47      0.00
   14   14   28      6.74      0.00
    0   16   28     11.14      0.00
    2   16   28     -0.45      0.00
    4   16   28    -11.40      0.00
    6   16   28    -30.62      0.00
    8   16   28     -8.24      0.00
   10   16   28     14.46      0.00
   12   16   28      5.36      0.00
    0   18   28      3.23      0.00
    2   18   28     -0.03      0.00
    4   18   28     14.68      0.00
    6   18   28     -0.89      0.00
    8   18   28    -19.46      0.00
    0   20   28      6.34      0.00
    2   20   28      2.69      0.00
    9   11   29     16.80      0.00
   11   11   29     -4.79      0.00
    5   13   29     -3.23      0.00
    7   13   29    -19.60      0.00
    9   13   29      0.73      0.00
   11   13   29     10.73      0.00
   13   13   29      5.41      0.00
    1   15   29     11.14      0.00
    3   15   29      9.18      0.00
    5   15   29     15.21      0.00
    7   15   29     11.62      0.00
    9   15   29     -8.19      0.00
   11   15   29      1.35      0.00
    1   17   29      0.19      0.00
    3   17   29     -3.43      0.00
    5   17   29     10.62      0.00
    7   17   29     18.26      0.00
    8    8   30     16.65      0.00
    6   10   30     -4.56      0.00
    8   10   30     -9.72      0.00
   10   10   30     -0.32      0.00
    0   12   30    -16.47      0.00
    2   12   30     -0.56      0.00
    4   12   30      4.42      0.00
    6   12   30     16.17      0.00
    8   12   30     -5.37      0.00
   10   12   30      0.23      0.00
   12   12   30      3.73      0.00
    0   14   30    -30.79      0.00
    2   14   30    -17.72      0.00
    4   14   30      7.47      0.00
    6   14   30      3.56      0.00
    8   14   30      6.40      0.00
    0   16   30    -15.70      0.00
    2   16   30     -0.96      0.00
    4   16   30     -3.88      0.00
    6   16   30     -9.25      0.00
    5    7   31      2.84      0.00
    7    7   31     -7.75      0.00
    1    9   31     -9.47      0.00
    3    9   31     14.04      0.00
    5    9   31     15.92      0.00
    7    9   31      9.21      0.00
    9    9   31      4.59      0.00
    1   11   31     -5.24      0.00
    3   11   31    -11.33      0.00
    5   11   31     11.03      0.00
    7   11   31      5.37      0.00
    9   11   31      3.54      0.00
    1   13   31      9.34      0.00
    3   13   31      7.51      0.00
    5   13   31    -15.54      0.00
    7   13   31      0.18      0.00
    1   15   31     15.22      0.00
    3   15   31     -3.92      0.00
    0    0   32     -3.13      0.00
    0    2   32    -14.31      0.00
    2    2   32     -5.29      0.00
    0    4   32      7.02      0.00
    2    4   32      5.36      0.00
    4    4   32      9.77      0.00
    0    6   32     12.28      0.00
    2    6   32      7.58      0.00
    4    6   32      2.07      0.00
    6    6   32      1.54      0.00
    0    8   32     16.26      0.00
    2    8   32    -13.70      0.00
    4    8   32    -11.63      0.00
    6    8   32      8.59      0.00
    8    8   32    -16.34      0.00
    0   10   32     -8.66      0.00
    2   10   32     14.59      0.00
    4   10   32      0.06      0.00
    6   10   32    -13.46      0.00
    8   10   32     -3.81      0.00
    0   12   32      8.95      0.00
    2   12   32      1.24      0.00
    4   12   32      3.59      0.00
    0    0    0      0.00      0.00
# SQUEEZE RESULTS (Version =  31017)
# Note: Data are Listed for all Voids in the P1 Unit Cell
# i.e. Centre of Gravity, Solvent Accessible Volume,
# Recovered number of Electrons in the Void and
# Details about the Squeezed Material
loop_
  _platon_squeeze_void_nr
  _platon_squeeze_void_average_x
  _platon_squeeze_void_average_y
  _platon_squeeze_void_average_z
  _platon_squeeze_void_volume
  _platon_squeeze_void_count_electrons
  _platon_squeeze_void_content
   1  0.412 -0.007 -0.005      6176      1975 ' '
_platon_squeeze_void_probe_radius                  1.20
_platon_squeeze_details
)
TITL a01 in Fm-3m
CELL   26.4540   26.4540   26.4540     90.00     90.00     90.00
SPGR Fm-3m
# Solvent Accessible Volume =      6244
# Electrons Found in S.A.V. =      1956
# Note: Atoms in Void are Labelled as Cxxx and Qxxx for all Others
Q101 0.404 0.502 0.094 !       7.77 eA-3
C102 0.586 0.164 0.082 !       2.07 eA-3
C103 0.500 0.086 0.004 !       1.45 eA-3
C104 0.587 0.038 0.038 !       1.43 eA-3
C105 0.581 0.081 0.081 !       1.43 eA-3
Q106 0.094 0.305 0.408 !       1.29 eA-3
C107 0.953 0.423 0.077 !       1.28 eA-3
C108 0.693 0.110 0.110 !       1.26 eA-3
Q109 0.310 0.500 0.000 !       1.23 eA-3
Q110 1.000 0.389 0.111 !       1.16 eA-3
Q111 0.212 0.384 0.210 !       1.15 eA-3
C112 0.348 0.824 0.146 !       1.14 eA-3
C113 0.848 0.324 0.146 !       1.14 eA-3
C114 0.982 0.426 0.057 !       1.13 eA-3
C115 0.860 0.358 0.142 !       1.12 eA-3
Q116 0.236 0.391 0.109 !       1.10 eA-3
Q117 1.000 0.309 0.069 !       1.10 eA-3
Q118 0.063 0.066 0.321 !       1.10 eA-3
C119 0.127 0.344 0.156 !       1.07 eA-3
C120 0.231 0.262 0.238 !       1.07 eA-3
C121 0.782 0.336 0.220 !       1.06 eA-3
C122 0.174 0.170 0.330 !       1.04 eA-3
C123 0.996 0.379 0.007 !       1.04 eA-3
C124 0.947 0.447 0.142 !       1.02 eA-3
Q125 0.977 0.163 0.430 !       1.00 eA-3
Q126 0.852 0.088 0.386 !       1.00 eA-3
C127 0.900 0.397 0.118 !       0.99 eA-3
C128 0.205 0.292 0.236 !       0.94 eA-3
C129 0.971 0.334 0.031 !       0.94 eA-3
C130 0.500 0.055 0.091 !       0.92 eA-3
Q131 0.909 0.804 0.533 !       0.90 eA-3
Q132 0.409 0.304 0.533 !       0.90 eA-3
Q133 0.909 0.304 0.033 !       0.90 eA-3
Q134 0.591 0.196 0.967 !       0.90 eA-3
Q135 0.693 0.466 0.595 !       0.90 eA-3
Q136 0.194 0.595 0.966 !       0.90 eA-3
Q137 0.530 0.592 0.693 !       0.90 eA-3
Q138 0.823 0.420 0.131 !       0.88 eA-3
Q139 0.250 0.252 0.156 !       0.87 eA-3
C140 0.507 0.007 0.007 !       0.86 eA-3
Q141 0.500 0.502 0.141 !       0.85 eA-3
C142 0.622 0.125 0.161 !       0.85 eA-3
Q143 0.477 0.218 0.019 !       0.85 eA-3
C144 0.250 0.250 0.250 !       0.85 eA-3
Q145 0.612 0.310 0.056 !       0.83 eA-3
C146 0.548 0.454 0.546 !       0.83 eA-3
C147 0.048 0.454 0.046 !       0.83 eA-3
Q148 0.926 0.500 0.234 !       0.82 eA-3
Q149 0.308 0.504 0.187 !       0.82 eA-3
C150 0.974 0.362 0.024 !       0.81 eA-3
Q151 0.420 0.141 0.003 !       0.81 eA-3
Q152 0.500 0.098 0.331 !       0.80 eA-3
C153 0.305 0.300 0.300 !       0.79 eA-3
Q154 1.000 0.289 0.000 !       0.78 eA-3
Q155 0.197 0.447 0.195 !       0.78 eA-3
Q156 0.616 0.367 0.024 !       0.78 eA-3
Q157 0.186 0.256 0.188 !       0.77 eA-3
Q158 0.524 0.414 0.414 !       0.76 eA-3
C159 0.185 0.365 0.187 !       0.76 eA-3
C160 0.750 0.289 0.245 !       0.75 eA-3
Q161 0.626 0.123 0.275 !       0.74 eA-3
Q162 0.300 0.028 0.205 !       0.72 eA-3
Q163 0.264 0.497 0.383 !       0.71 eA-3
Q164 0.901 0.295 0.985 !       0.70 eA-3
Q165 0.621 0.191 0.257 !       0.70 eA-3
Q166 1.000 0.233 0.179 !       0.67 eA-3
Q167 0.894 0.392 0.058 !       0.67 eA-3
Q168 0.288 0.318 0.350 !       0.66 eA-3
Q169 0.946 0.350 0.127 !       0.66 eA-3
Q170 0.649 0.313-0.001 !       0.66 eA-3
Q171 0.132 0.020 0.297 !       0.66 eA-3
Q172 0.946 0.089 0.103 !       0.65 eA-3
Q173 0.616 0.503 0.352 !       0.63 eA-3
Q174 0.937 0.124 0.022 !       0.63 eA-3
Q175 0.500 0.173 0.031 !       0.62 eA-3
C176 0.614 0.445 0.434 !       0.61 eA-3
Q177 0.195 0.195 0.195 !       0.60 eA-3
Q178 0.266 0.356 0.024 !       0.59 eA-3
Q179 0.905 0.369 0.294 !       0.59 eA-3
Q180 0.405 0.369 0.794 !       0.59 eA-3
Q181 0.135 0.592 0.704 !       0.58 eA-3
Q182 0.865 0.796 0.908 !       0.58 eA-3
Q183 0.600 0.431 0.069 !       0.58 eA-3
Q184 0.750 0.252 0.078 !       0.58 eA-3
Q185 0.111 0.288 0.065 !       0.57 eA-3
Q186 0.851 0.153 0.153 !       0.56 eA-3
Q187 0.171 0.452 0.141 !       0.56 eA-3
Q188 0.134 0.501 0.273 !       0.56 eA-3
Q189 0.126 0.197 0.197 !       0.54 eA-3
C190 0.627 0.055 0.020 !       0.54 eA-3
Q191 0.438 0.437 0.063 !       0.54 eA-3
Q192 0.665 0.476 0.334 !       0.53 eA-3
Q193 0.936 0.375 0.375 !       0.53 eA-3
Q194 0.603 0.159 0.284 !       0.52 eA-3
C195 0.468 0.499 0.469 !       0.52 eA-3
C196 0.967 0.467 0.967 !       0.51 eA-3
Q197 0.410 0.265 0.451 !       0.51 eA-3
Q198 0.968 0.286 0.236 !       0.51 eA-3
Q199 0.461 0.367 0.095 !       0.51 eA-3
)
;
_shelx_fab_checksum              18779
loop_
_space_group_symop_operation_xyz
'x, y, z'
'-x, -y, z'
'-x, y, -z'
'x, -y, -z'
'z, x, y'
'z, -x, -y'
'-z, -x, y'
'-z, x, -y'
'y, z, x'
'-y, z, -x'
'y, -z, -x'
'-y, -z, x'
'y, x, -z'
'-y, -x, -z'
'y, -x, z'
'-y, x, z'
'x, z, -y'
'-x, z, y'
'-x, -z, -y'
'x, -z, y'
'z, y, -x'
'z, -y, x'
'-z, y, x'
'-z, -y, -x'
'x, y+1/2, z+1/2'
'-x, -y+1/2, z+1/2'
'-x, y+1/2, -z+1/2'
'x, -y+1/2, -z+1/2'
'z, x+1/2, y+1/2'
'z, -x+1/2, -y+1/2'
'-z, -x+1/2, y+1/2'
'-z, x+1/2, -y+1/2'
'y, z+1/2, x+1/2'
'-y, z+1/2, -x+1/2'
'y, -z+1/2, -x+1/2'
'-y, -z+1/2, x+1/2'
'y, x+1/2, -z+1/2'
'-y, -x+1/2, -z+1/2'
'y, -x+1/2, z+1/2'
'-y, x+1/2, z+1/2'
'x, z+1/2, -y+1/2'
'-x, z+1/2, y+1/2'
'-x, -z+1/2, -y+1/2'
'x, -z+1/2, y+1/2'
'z, y+1/2, -x+1/2'
'z, -y+1/2, x+1/2'
'-z, y+1/2, x+1/2'
'-z, -y+1/2, -x+1/2'
'x+1/2, y, z+1/2'
'-x+1/2, -y, z+1/2'
'-x+1/2, y, -z+1/2'
'x+1/2, -y, -z+1/2'
'z+1/2, x, y+1/2'
'z+1/2, -x, -y+1/2'
'-z+1/2, -x, y+1/2'
'-z+1/2, x, -y+1/2'
'y+1/2, z, x+1/2'
'-y+1/2, z, -x+1/2'
'y+1/2, -z, -x+1/2'
'-y+1/2, -z, x+1/2'
'y+1/2, x, -z+1/2'
'-y+1/2, -x, -z+1/2'
'y+1/2, -x, z+1/2'
'-y+1/2, x, z+1/2'
'x+1/2, z, -y+1/2'
'-x+1/2, z, y+1/2'
'-x+1/2, -z, -y+1/2'
'x+1/2, -z, y+1/2'
'z+1/2, y, -x+1/2'
'z+1/2, -y, x+1/2'
'-z+1/2, y, x+1/2'
'-z+1/2, -y, -x+1/2'
'x+1/2, y+1/2, z'
'-x+1/2, -y+1/2, z'
'-x+1/2, y+1/2, -z'
'x+1/2, -y+1/2, -z'
'z+1/2, x+1/2, y'
'z+1/2, -x+1/2, -y'
'-z+1/2, -x+1/2, y'
'-z+1/2, x+1/2, -y'
'y+1/2, z+1/2, x'
'-y+1/2, z+1/2, -x'
'y+1/2, -z+1/2, -x'
'-y+1/2, -z+1/2, x'
'y+1/2, x+1/2, -z'
'-y+1/2, -x+1/2, -z'
'y+1/2, -x+1/2, z'
'-y+1/2, x+1/2, z'
'x+1/2, z+1/2, -y'
'-x+1/2, z+1/2, y'
'-x+1/2, -z+1/2, -y'
'x+1/2, -z+1/2, y'
'z+1/2, y+1/2, -x'
'z+1/2, -y+1/2, x'
'-z+1/2, y+1/2, x'
'-z+1/2, -y+1/2, -x'
'-x, -y, -z'
'x, y, -z'
'x, -y, z'
'-x, y, z'
'-z, -x, -y'
'-z, x, y'
'z, x, -y'
'z, -x, y'
'-y, -z, -x'
'y, -z, x'
'-y, z, x'
'y, z, -x'
'-y, -x, z'
'y, x, z'
'-y, x, -z'
'y, -x, -z'
'-x, -z, y'
'x, -z, -y'
'x, z, y'
'-x, z, -y'
'-z, -y, x'
'-z, y, -x'
'z, -y, -x'
'z, y, x'
'-x, -y+1/2, -z+1/2'
'x, y+1/2, -z+1/2'
'x, -y+1/2, z+1/2'
'-x, y+1/2, z+1/2'
'-z, -x+1/2, -y+1/2'
'-z, x+1/2, y+1/2'
'z, x+1/2, -y+1/2'
'z, -x+1/2, y+1/2'
'-y, -z+1/2, -x+1/2'
'y, -z+1/2, x+1/2'
'-y, z+1/2, x+1/2'
'y, z+1/2, -x+1/2'
'-y, -x+1/2, z+1/2'
'y, x+1/2, z+1/2'
'-y, x+1/2, -z+1/2'
'y, -x+1/2, -z+1/2'
'-x, -z+1/2, y+1/2'
'x, -z+1/2, -y+1/2'
'x, z+1/2, y+1/2'
'-x, z+1/2, -y+1/2'
'-z, -y+1/2, x+1/2'
'-z, y+1/2, -x+1/2'
'z, -y+1/2, -x+1/2'
'z, y+1/2, x+1/2'
'-x+1/2, -y, -z+1/2'
'x+1/2, y, -z+1/2'
'x+1/2, -y, z+1/2'
'-x+1/2, y, z+1/2'
'-z+1/2, -x, -y+1/2'
'-z+1/2, x, y+1/2'
'z+1/2, x, -y+1/2'
'z+1/2, -x, y+1/2'
'-y+1/2, -z, -x+1/2'
'y+1/2, -z, x+1/2'
'-y+1/2, z, x+1/2'
'y+1/2, z, -x+1/2'
'-y+1/2, -x, z+1/2'
'y+1/2, x, z+1/2'
'-y+1/2, x, -z+1/2'
'y+1/2, -x, -z+1/2'
'-x+1/2, -z, y+1/2'
'x+1/2, -z, -y+1/2'
'x+1/2, z, y+1/2'
'-x+1/2, z, -y+1/2'
'-z+1/2, -y, x+1/2'
'-z+1/2, y, -x+1/2'
'z+1/2, -y, -x+1/2'
'z+1/2, y, x+1/2'
'-x+1/2, -y+1/2, -z'
'x+1/2, y+1/2, -z'
'x+1/2, -y+1/2, z'
'-x+1/2, y+1/2, z'
'-z+1/2, -x+1/2, -y'
'-z+1/2, x+1/2, y'
'z+1/2, x+1/2, -y'
'z+1/2, -x+1/2, y'
'-y+1/2, -z+1/2, -x'
'y+1/2, -z+1/2, x'
'-y+1/2, z+1/2, x'
'y+1/2, z+1/2, -x'
'-y+1/2, -x+1/2, z'
'y+1/2, x+1/2, z'
'-y+1/2, x+1/2, -z'
'y+1/2, -x+1/2, -z'
'-x+1/2, -z+1/2, y'
'x+1/2, -z+1/2, -y'
'x+1/2, z+1/2, y'
'-x+1/2, z+1/2, -y'
'-z+1/2, -y+1/2, x'
'-z+1/2, y+1/2, -x'
'z+1/2, -y+1/2, -x'
'z+1/2, y+1/2, x'
loop_
_atom_site_label
_atom_site_type_symbol
_atom_site_fract_x
_atom_site_fract_y
_atom_site_fract_z
_atom_site_U_iso_or_equiv
_atom_site_adp_type
_atom_site_occupancy
_atom_site_site_symmetry_order
_atom_site_calc_flag
_atom_site_refinement_flags_posn
_atom_site_refinement_flags_adp
_atom_site_refinement_flags_occupancy
_atom_site_disorder_assembly
_atom_site_disorder_group
Cu1 Cu 0.000000 0.28512(3) 0.21488(3) 0.0225(5) Uani 1 4 d S T P . .
Mo1 Mo 0.000000 0.40493(3) 0.40493(3) 0.0493(5) Uani 0.9167 4 d S T P . .
V1 V 0.000000 0.40493(3) 0.40493(3) 0.0493(5) Uani 0.0833 4 d S T P . .
P1 P 0.000000 0.500000 0.500000 0.024(2) Uani 1 48 d S T P . .
O1 O 0.05247(17) 0.24342(16) 0.18322(17) 0.0358(11) Uani 1 1 d D . . . .
O2 O 0.000000 0.3609(3) 0.3609(3) 0.069(3) Uani 1 4 d S T P . .
O3 O -0.0341(5) 0.4659(5) 0.4659(5) 0.036(5) Uani 0.5 6 d S T P . 1
O4 O -0.0502(3) 0.3792(4) 0.4498(3) 0.091(4) Uani 1 2 d S T P . 2
C1 C 0.1344(2) 0.1987(3) 0.1344(2) 0.0300(18) Uani 1 2 d S T P . .
H1A H 0.119789 0.227132 0.119787 0.036 Uiso 1 2 calc R U P . .
C2 C 0.1125(3) 0.1777(2) 0.1777(2) 0.0305(19) Uani 1 2 d S T P . .
C3 C 0.0697(3) 0.2031(2) 0.2031(2) 0.0292(19) Uani 1 2 d S T P . .
O1W O 0.000000 0.3438(3) 0.1562(3) 0.087(4) Uani 1 4 d S TU P . .
O2W O 0.000000 0.2451(9) 0.0751(8) 0.214(8) Uani 1 2 d DS TU P . .
H2WA H 0.019(6) 0.232(4) 0.098(3) 0.322 Uiso 1 1 d D U . . .
O3W O 0.000000 0.1787(14) 0.000000 0.221(9) Uani 1 8 d DS TU P . .
H3WA H 0.000000 0.2109(16) 0.000000 0.332 Uiso 1 8 d DS U P . .
H3WB H 0.000000 0.160(3) 0.027(3) 0.332 Uiso 0.25 2 d DS U P . .
loop_
_atom_site_aniso_label
_atom_site_aniso_U_11
_atom_site_aniso_U_22
_atom_site_aniso_U_33
_atom_site_aniso_U_23
_atom_site_aniso_U_13
_atom_site_aniso_U_12
Cu1 0.0225(8) 0.0225(6) 0.0225(6) 0.0035(5) 0.000 0.000
Mo1 0.0567(9) 0.0456(6) 0.0456(6) -0.0204(6) 0.000 0.000
V1 0.0567(9) 0.0456(6) 0.0456(6) -0.0204(6) 0.000 0.000
P1 0.024(2) 0.024(2) 0.024(2) 0.000 0.000 0.000
O1 0.039(2) 0.032(2) 0.036(2) 0.0052(19) 0.010(2) 0.0075(19)
O2 0.105(10) 0.051(4) 0.051(4) -0.022(5) 0.000 0.000
O3 0.036(5) 0.036(5) 0.036(5) 0.002(6) 0.002(6) 0.002(6)
O4 0.093(5) 0.088(7) 0.093(5) 0.051(5) 0.053(6) 0.051(5)
C1 0.032(3) 0.025(4) 0.032(3) 0.010(3) 0.000(4) 0.010(3)
C2 0.036(5) 0.028(3) 0.028(3) 0.002(3) 0.001(3) 0.001(3)
C3 0.020(4) 0.034(3) 0.034(3) 0.006(4) 0.000(2) 0.000(2)
O1W 0.093(9) 0.084(6) 0.084(6) 0.048(7) 0.000 0.000
O2W 0.220(12) 0.236(16) 0.187(11) -0.003(8) 0.000 0.000
O3W 0.212(11) 0.241(18) 0.212(11) 0.000 0.000 0.000
loop_
_atom_type_symbol
_atom_type_description
_atom_type_scat_dispersion_real
_atom_type_scat_dispersion_imag
_atom_type_scat_source
C C 0.0033 0.0016 'International Tables Vol C Tables 4.2.6.8 and 6.1.1.4'
H H 0.0000 0.0000 'International Tables Vol C Tables 4.2.6.8 and 6.1.1.4'
O O 0.0106 0.0060 'International Tables Vol C Tables 4.2.6.8 and 6.1.1.4'
P P 0.1023 0.0942 'International Tables Vol C Tables 4.2.6.8 and 6.1.1.4'
V V 0.3005 0.5294 'International Tables Vol C Tables 4.2.6.8 and 6.1.1.4'
Cu Cu 0.3201 1.2651 'International Tables Vol C Tables 4.2.6.8 and 6.1.1.4'
Mo Mo -1.6832 0.6857 'International Tables Vol C Tables 4.2.6.8 and 6.1.1.4'
loop_
_geom_angle_atom_site_label_1
_geom_angle_atom_site_label_2
_geom_angle_atom_site_label_3
_geom_angle
_geom_angle_site_symmetry_1
_geom_angle_site_symmetry_3
_geom_angle_publ_flag
O1 Cu1 O1 169.0(3) 100 138 ?
O1 Cu1 O1 88.8(3) 100 43 ?
O1 Cu1 O1 90.1(3) 138 43 ?
O1 Cu1 O1 90.1(3) 100 . ?
O1 Cu1 O1 88.8(3) 138 . ?
O1 Cu1 O1 169.0(3) 43 . ?
O1 Cu1 O1W 95.50(13) 100 . ?
O1 Cu1 O1W 95.50(13) 138 . ?
O1 Cu1 O1W 95.50(13) 43 . ?
O1 Cu1 O1W 95.50(13) . . ?
O1 Cu1 Cu1 84.50(13) 100 121 ?
O1 Cu1 Cu1 84.50(13) 138 121 ?
O1 Cu1 Cu1 84.50(13) 43 121 ?
O1 Cu1 Cu1 84.50(13) . 121 ?
O1W Cu1 Cu1 180.0(3) . 121 ?
O2 Mo1 O4 100.8(4) . . ?
O2 Mo1 O4 100.8(4) . 100 ?
O4 Mo1 O4 88.3(6) . 100 ?
O2 Mo1 O4 100.8(4) . 174 ?
O4 Mo1 O4 158.3(7) . 174 ?
O4 Mo1 O4 87.7(5) 100 174 ?
O2 Mo1 O4 100.8(4) . 77_455 ?
O4 Mo1 O4 87.7(5) . 77_455 ?
O4 Mo1 O4 158.3(7) 100 77_455 ?
O4 Mo1 O4 88.2(6) 174 77_455 ?
O2 Mo1 O3 158.5(4) . 100 ?
O2 Mo1 O3 158.5(4) . . ?
O3 Mo1 O3 43.1(9) 100 . ?
O3 P1 O3 180.0(15) . 97_566 ?
O3 P1 O3 70.528(1) . 100 ?
O3 P1 O3 109.472(8) 97_566 100 ?
O3 P1 O3 109.471(4) . 2_565 ?
O3 P1 O3 70.529(1) 97_566 2_565 ?
O3 P1 O3 70.529(2) 100 2_565 ?
O3 P1 O3 70.529(7) . 98_556 ?
O3 P1 O3 109.471(1) 97_566 98_556 ?
O3 P1 O3 109.471(2) 100 98_556 ?
O3 P1 O3 180.0(8) 2_565 98_556 ?
O3 P1 O3 109.5 . 3_556 ?
O3 P1 O3 70.529(1) 97_566 3_556 ?
O3 P1 O3 70.529(2) 100 3_556 ?
O3 P1 O3 109.472(8) 2_565 3_556 ?
O3 P1 O3 70.528(1) 98_556 3_556 ?
O3 P1 O3 70.529(4) . 99_565 ?
O3 P1 O3 109.471(4) 97_566 99_565 ?
O3 P1 O3 109.471(1) 100 99_565 ?
O3 P1 O3 70.528(1) 2_565 99_565 ?
O3 P1 O3 109.472(1) 98_556 99_565 ?
O3 P1 O3 180.0(8) 3_556 99_565 ?
O3 P1 O3 109.472(1) . 4_566 ?
O3 P1 O3 70.528(2) 97_566 4_566 ?
O3 P1 O3 180.0(8) 100 4_566 ?
O3 P1 O3 109.471(4) 2_565 4_566 ?
O3 P1 O3 70.529(3) 98_556 4_566 ?
O3 P1 O3 109.471(1) 3_556 4_566 ?
O3 P1 O3 70.529(3) 99_565 4_566 ?
C3 O1 Cu1 123.2(4) . . ?
P1 O3 O3 54.739(2) . 99_565 ?
P1 O3 O3 54.739(3) . 98_556 ?
O3 O3 O3 90.005(3) 99_565 98_556 ?
P1 O3 O3 54.739(2) . 100 ?
O3 O3 O3 90.004(5) 99_565 100 ?
O3 O3 O3 90.004(4) 98_556 100 ?
P1 O3 Mo1 123.2(4) . . ?
O3 O3 Mo1 131.13(15) 99_565 . ?
O3 O3 Mo1 131.13(15) 98_556 . ?
O3 O3 Mo1 68.5(4) 100 . ?
P1 O3 Mo1 123.2(4) . 77_455 ?
O3 O3 Mo1 68.5(4) 99_565 77_455 ?
O3 O3 Mo1 131.13(15) 98_556 77_455 ?
O3 O3 Mo1 131.13(15) 100 77_455 ?
Mo1 O3 Mo1 92.9(6) . 77_455 ?
P1 O3 Mo1 123.2(4) . 57_455 ?
O3 O3 Mo1 131.13(15) 99_565 57_455 ?
O3 O3 Mo1 68.5(4) 98_556 57_455 ?
O3 O3 Mo1 131.13(15) 100 57_455 ?
Mo1 O3 Mo1 92.9(6) . 57_455 ?
Mo1 O3 Mo1 92.9(6) 77_455 57_455 ?
Mo1 O4 Mo1 137.7(6) . 57_455 ?
C2 C1 C2 121.3(8) 9 . ?
C2 C1 H1A 119.3 9 . ?
C2 C1 H1A 119.3 . . ?
C1 C2 C1 118.7(8) 5 . ?
C1 C2 C3 120.6(4) 5 . ?
C1 C2 C3 120.6(4) . . ?
O1 C3 O1 124.3(8) 115 . ?
O1 C3 C2 117.8(4) 115 . ?
O1 C3 C2 117.8(4) . . ?
H2WA O2W H2WA 73(10) . 100 ?
H3WA O3W H3WB 124(8) . . ?
H3WA O3W H3WB 124(8) . 98 ?
H3WB O3W H3WB 111(10) . 98 ?
H3WA O3W H3WB 124(8) . 21 ?
H3WB O3W H3WB 71(8) . 21 ?
H3WB O3W H3WB 71(8) 98 21 ?
H3WA O3W H3WB 124(8) . 118 ?
H3WB O3W H3WB 71(8) . 118 ?
H3WB O3W H3WB 71(8) 98 118 ?
H3WB O3W H3WB 111(10) 21 118 ?
loop_
_geom_bond_atom_site_label_1
_geom_bond_atom_site_label_2
_geom_bond_distance
_geom_bond_site_symmetry_2
_geom_bond_publ_flag
Cu1 O1 1.961(4) 100 ?
Cu1 O1 1.961(4) 138 ?
Cu1 O1 1.961(4) 43 ?
Cu1 O1 1.961(4) . ?
Cu1 O1W 2.195(12) . ?
Cu1 Cu1 2.628(3) 121 ?
Mo1 O2 1.648(10) . ?
Mo1 O4 1.907(4) . ?
Mo1 O4 1.907(4) 100 ?
Mo1 O4 1.907(4) 174 ?
Mo1 O4 1.907(4) 77_455 ?
Mo1 O3 2.454(12) 100 ?
Mo1 O3 2.454(12) . ?
P1 O3 1.56(2) . ?
P1 O3 1.56(2) 97_566 ?
P1 O3 1.56(2) 100 ?
P1 O3 1.56(2) 2_565 ?
P1 O3 1.56(2) 98_556 ?
P1 O3 1.56(2) 3_556 ?
P1 O3 1.56(2) 99_565 ?
P1 O3 1.56(2) 4_566 ?
O1 C3 1.274(6) . ?
O3 O3 1.80(3) 99_565 ?
O3 O3 1.80(3) 98_556 ?
O3 O3 1.80(3) 100 ?
C1 C2 1.398(6) 9 ?
C1 C2 1.398(6) . ?
C1 H1A 0.9300 . ?
C2 C3 1.479(12) . ?
O2W H2WA 0.86(2) . ?
O2W H2WA 0.86(2) 100 ?
O3W H3WA 0.85(2) . ?
O3W H3WB 0.85(2) . ?
O3W H3WB 0.85(2) 98 ?
O3W H3WB 0.85(2) 21 ?
O3W H3WB 0.85(2) 118 ?
