#------------------------------------------------------------------------------
#$Date: 2021-04-04 12:56:42 +0300 (Sun, 04 Apr 2021) $
#$Revision: 263575 $
#$URL: file:///home/coder/svn-repositories/cod/cif/4/51/85/4518560.cif $
#------------------------------------------------------------------------------
#
# This file is available in the Crystallography Open Database (COD),
# http://www.crystallography.net/
#
# All data on this site have been placed in the public domain by the
# contributors.
#
data_4518560
loop_
_publ_author_name
'Sapianik, Aleksandr A.'
'Dudko, Evgeny R.'
'Kovalenko, Konstantin A.'
'Barsukova, Marina O.'
'Samsonenko, Denis G.'
'Dybtsev, Danil N.'
'Fedin, Vladimir P.'
_publ_section_title
;
 Metal-Organic Frameworks for Highly Selective Separation of Xylene
 Isomers and Single-Crystal X-ray Study of Aromatic Guest-Host Inclusion
 Compounds.
;
_journal_issue                   12
_journal_name_full               'ACS applied materials &amp; interfaces'
_journal_page_first              14768
_journal_page_last               14777
_journal_paper_doi               10.1021/acsami.1c02812
_journal_volume                  13
_journal_year                    2021
_chemical_formula_sum            'C49 H33 Li2 N3 O13 Zn2'
_chemical_formula_weight         1016.40
_space_group_crystal_system      monoclinic
_space_group_IT_number           15
_space_group_name_Hall           '-C 2yc'
_space_group_name_H-M_alt        'C 1 2/c 1'
_atom_sites_solution_hydrogens   geom
_atom_sites_solution_primary     dual
_atom_sites_solution_secondary   difmap
_audit_creation_method           SHELXL-2018/3
_cell_angle_alpha                90
_cell_angle_beta                 114.783(7)
_cell_angle_gamma                90
_cell_formula_units_Z            4
_cell_length_a                   17.5140(11)
_cell_length_b                   18.5021(9)
_cell_length_c                   17.1380(10)
_cell_measurement_reflns_used    6124
_cell_measurement_temperature    130(2)
_cell_measurement_theta_max      28.98
_cell_measurement_theta_min      3.98
_cell_volume                     5042.0(6)
_computing_cell_refinement       'CrysAlisPro 1.171.39.46 (Rigaku OD, 2018)'
_computing_data_collection       'CrysAlisPro 1.171.39.46 (Rigaku OD, 2018)'
_computing_data_reduction        'CrysAlisPro 1.171.39.46 (Rigaku OD, 2018)'
_computing_molecular_graphics    'ShelXle (H\"ubschle, 2011)'
_computing_publication_material  'CIFTAB (Sheldrick, 2015)'
_computing_structure_refinement  'SHELXL-2018 (Sheldrick, 2015)'
_computing_structure_solution    'SHELXT-2018 (Sheldrick, 2015)'
_diffrn_ambient_temperature      130(2)
_diffrn_detector                 'CCD plate'
_diffrn_detector_area_resol_mean 10.6
_diffrn_detector_type            AtlasS2
_diffrn_measured_fraction_theta_full 0.996
_diffrn_measured_fraction_theta_max 0.849
_diffrn_measurement_device       'four-circle diffractometer'
_diffrn_measurement_device_type  'New Xcalibur, AtlasS2'
_diffrn_measurement_method       '\w scans'
_diffrn_radiation_monochromator  graphite
_diffrn_radiation_probe          x-ray
_diffrn_radiation_source         'fine-focus sealed tube'
_diffrn_radiation_type           MoK\a
_diffrn_radiation_wavelength     0.71073
_diffrn_reflns_av_R_equivalents  0.0205
_diffrn_reflns_av_unetI/netI     0.0278
_diffrn_reflns_Laue_measured_fraction_full 0.996
_diffrn_reflns_Laue_measured_fraction_max 0.849
_diffrn_reflns_limit_h_max       20
_diffrn_reflns_limit_h_min       -24
_diffrn_reflns_limit_k_max       18
_diffrn_reflns_limit_k_min       -25
_diffrn_reflns_limit_l_max       23
_diffrn_reflns_limit_l_min       -19
_diffrn_reflns_number            13068
_diffrn_reflns_point_group_measured_fraction_full 0.996
_diffrn_reflns_point_group_measured_fraction_max 0.849
_diffrn_reflns_theta_full        25.500
_diffrn_reflns_theta_max         29.538
_diffrn_reflns_theta_min         3.539
_diffrn_source                   'sealed X-ray tube'
_exptl_absorpt_coefficient_mu    1.015
_exptl_absorpt_correction_T_max  1.00000
_exptl_absorpt_correction_T_min  0.76884
_exptl_absorpt_correction_type   multi-scan
_exptl_absorpt_process_details
;
CrysAlisPro 1.171.39.46 (Rigaku Oxford Diffraction, 2018)
Empirical absorption correction using spherical harmonics,
implemented in SCALE3 ABSPACK scaling algorithm.
;
_exptl_crystal_colour            yellow
_exptl_crystal_density_diffrn    1.339
_exptl_crystal_description       block
_exptl_crystal_F_000             2072
_exptl_crystal_size_max          0.44
_exptl_crystal_size_mid          0.22
_exptl_crystal_size_min          0.20
_refine_diff_density_max         1.082
_refine_diff_density_min         -0.533
_refine_diff_density_rms         0.110
_refine_ls_extinction_method     none
_refine_ls_goodness_of_fit_ref   1.082
_refine_ls_hydrogen_treatment    constr
_refine_ls_matrix_type           full
_refine_ls_number_parameters     453
_refine_ls_number_reflns         5993
_refine_ls_number_restraints     1105
_refine_ls_restrained_S_all      1.158
_refine_ls_R_factor_all          0.0751
_refine_ls_R_factor_gt           0.0650
_refine_ls_shift/su_max          0.001
_refine_ls_shift/su_mean         0.000
_refine_ls_structure_factor_coef Fsqd
_refine_ls_weighting_details
'w=1/[\s^2^(Fo^2^)+(0.1255P)^2^+10.2465P] where P=(Fo^2^+2Fc^2^)/3'
_refine_ls_weighting_scheme      calc
_refine_ls_wR_factor_gt          0.1973
_refine_ls_wR_factor_ref         0.2056
_reflns_Friedel_coverage         0.000
_reflns_number_gt                4951
_reflns_number_total             5993
_reflns_threshold_expression     'I > 2\s(I)'
_cod_data_source_file            assynthesized.cif
_cod_data_source_block           dsmsalndc2_sq
_cod_depositor_comments
'Adding full bibliography for 4518556--4518560.cif.'
_cod_original_sg_symbol_H-M      'C 2/c'
_cod_database_code               4518560
_shelx_shelxl_version_number     2018/3
_shelx_space_group_comment
;
The symmetry employed for this shelxl refinement is uniquely defined
by the following loop, which should always be used as a source of
symmetry information in preference to the above space-group names.
They are only intended as comments.
;
_shelx_estimated_absorpt_t_min   0.664
_shelx_estimated_absorpt_t_max   0.823
_shelx_res_file
;
TITL dsmsalndc2 in C2/c; 130K; Xcalibur
    dsmsalndc2_sq.res
    created by SHELXL-2018/3 at 12:24:57 on 11-Jun-2020
CELL  0.71073  17.5140  18.5021  17.1380   90.000  114.783   90.000
ZERR    4.000   0.0011   0.0009   0.0010    0.000    0.007    0.000
LATT  7
SYMM -X, Y, 1/2-Z
SFAC C   H   LI N  O  ZN
UNIT 196 132 8  12 52 8
 
LIST 4 ! automatically inserted. Change 6 to 4 for CHECKCIF!!
TEMP -143
 
L.S. 6 0 21
BOND $H
FMAP 2
PLAN 10
 
OMIT 0
 
OMIT -1 3 3
OMIT 0 2 2
OMIT 2 0 4
OMIT 0 2 3
OMIT -4 0 2
OMIT -4 2 3
OMIT 0 4 0
 
OMIT -6   0   2
 
EQIV $1 1-x, -y, 2-z
 
FLAT 0.02 C102 C103 C104 C105 C107 > C112
FLAT 0.02 C113 > C122
 
EADP C103 C114
EADP C104 C115
EXYZ C103 C114
EXYZ C104 C115
 
SIMU 0.01 0.01 C102 > C122
SIMU 0.01 0.01 C106 O13 O14 O15 O16
 
FLAT 0.02 C202 C202_$1 C203 > C208
FLAT 0.02 C202 C202_$1 C209 > C214
 
SIMU 0.01 0.01 C202 > C214
 
SADI 0.01 C209 C212  C210 C213  C203 C206  C204 C207
 
SADI 0.01 C101 C102  C101 C113  C106 C105  C106 C116
SADI 0.01 C102 C103  C103 C104  C104 C105  C105 C107  C107 C108  C108 C102 =
          C108 C109  C109 C110  C110 C111  C111 C112  C112 C107 =
          C113 C114  C115 C116  C116 C117  C117 C118  C118 C113  C118 C119 =
          C119 C120  C120 C121  C121 C122  C122 C117 =
          C202 C203  C203 C204  C204 C205  C205 C206  C206 C207 =
          C207 C208  C208 C203  C202 C209  C209 C210  C210 C211  C211 C212 =
          C212 C213  C213 C214  C214 C209
 
ACTA 51
SIZE 0.44 0.22 0.20
 
ABIN
WGHT    0.125500   10.246499
FVAR       1.89680   0.56323   0.59315
ZN1   6    0.741855    0.125081    0.921456    11.00000    0.03350    0.03474 =
         0.02291   -0.00164    0.00251   -0.00534
LI1   3    0.577931    0.111891    0.747971    11.00000    0.02818    0.04045 =
         0.03557   -0.00494    0.00442   -0.00228
N1    4    0.838146    0.131863    1.041267    11.00000    0.03427    0.03498 =
         0.02796   -0.00119    0.00193   -0.00441
C11   1    0.884688    0.190828    1.071906    11.00000    0.04225    0.03329 =
         0.02904    0.00326   -0.00005   -0.00559
AFIX  43
H11   2    0.873262    0.232529    1.036459    11.00000   -1.20000
AFIX   0
C12   1    0.948934    0.193392    1.153387    11.00000    0.04210    0.03201 =
         0.03445   -0.00025   -0.00373   -0.00651
AFIX  43
H12   2    0.981160    0.236225    1.173548    11.00000   -1.20000
AFIX   0
C13   1    0.966006    0.132820    1.205573    11.00000    0.03140    0.03501 =
         0.03276   -0.00133   -0.00466    0.00038
C14   1    0.917313    0.071934    1.173097    11.00000    0.04629    0.03548 =
         0.03882    0.00690   -0.01090   -0.00513
AFIX  43
H14   2    0.927487    0.029340    1.206936    11.00000   -1.20000
AFIX   0
C15   1    0.854502    0.073507    1.092024    11.00000    0.04639    0.03719 =
         0.03917    0.00280   -0.00734   -0.01279
AFIX  43
H15   2    0.820971    0.031508    1.070660    11.00000   -1.20000
AFIX   0
O11   5    0.753444    0.214119    0.870488    11.00000    0.05167    0.04593 =
         0.03234    0.00830    0.00765   -0.01420
O12   5    0.636204    0.198476    0.752582    11.00000    0.04664    0.04579 =
         0.03923    0.00281    0.01107   -0.01312
PART 1  21.0
O13   5    0.723158    0.542100    0.618332    21.00000    0.06596    0.04762 =
         0.05126    0.01331    0.01331    0.00102
O14   5    0.850899    0.529561    0.718511    21.00000    0.05829    0.03928 =
         0.03944    0.00188    0.01119   -0.01108
PART 2 -21.0
O15   5    0.734805    0.526085    0.611763   -21.00000    0.07087    0.02810 =
         0.04354    0.01026    0.01017   -0.00701
O16   5    0.851768    0.535529    0.737715   -21.00000    0.05534    0.04872 =
         0.04736    0.01438    0.01351   -0.01346
PART 0
C101  1    0.701406    0.231658    0.795038    11.00000    0.04648    0.03759 =
         0.03102    0.00098    0.01486   -0.00671
PART 1  21.0
C102  1    0.729897    0.295536    0.760102    21.00000    0.04469    0.03834 =
         0.03247    0.00335    0.01603   -0.00929
C103  1    0.766848    0.351242    0.817329    21.00000    0.06254    0.05350 =
         0.03893    0.00211    0.01342   -0.00923
AFIX  43
H103  2    0.779107    0.344368    0.876323    21.00000   -1.20000
AFIX   0
C104  1    0.786587    0.416951    0.791170    21.00000    0.06420    0.05144 =
         0.04282    0.00176    0.01217   -0.01217
AFIX  43
H104  2    0.811926    0.454231    0.832027    21.00000   -1.20000
AFIX   0
C105  1    0.769120    0.428226    0.704533    21.00000    0.05778    0.04451 =
         0.03889    0.00501    0.01647   -0.01322
PART 0
C106  1    0.783788    0.504252    0.681992    11.00000    0.06010    0.04513 =
         0.04523    0.01204    0.01751   -0.00676
PART 1  21.0
C107  1    0.730625    0.371691    0.645778    21.00000    0.08274    0.06005 =
         0.04737    0.00285    0.02810   -0.01420
C108  1    0.709775    0.304966    0.672542    21.00000    0.08180    0.05591 =
         0.04440   -0.00458    0.02571   -0.01519
C109  1    0.673579    0.248855    0.613176    21.00000    0.11730    0.06826 =
         0.05395   -0.00126    0.02951   -0.02634
AFIX  43
H109  2    0.661147    0.203919    0.632063    21.00000   -1.20000
AFIX   0
C110  1    0.655879    0.258865    0.526834    21.00000    0.14039    0.08413 =
         0.05949   -0.00729    0.03079   -0.03275
AFIX  43
H110  2    0.630259    0.221175    0.486669    21.00000   -1.20000
AFIX   0
C111  1    0.675758    0.324277    0.499210    21.00000    0.13921    0.08659 =
         0.05575   -0.00342    0.02815   -0.02961
AFIX  43
H111  2    0.663345    0.331254    0.440195    21.00000   -1.20000
AFIX   0
C112  1    0.713749    0.379210    0.558169    21.00000    0.11446    0.07788 =
         0.05597    0.00238    0.03239   -0.02030
AFIX  43
H112  2    0.728711    0.422892    0.538964    21.00000   -1.20000
AFIX   0
PART 2 -21.0
C113  1    0.712266    0.302652    0.758727   -21.00000    0.05074    0.04623 =
         0.03441    0.00150    0.02140   -0.00741
C114  1    0.766848    0.351242    0.817329   -21.00000    0.06254    0.05350 =
         0.03893    0.00211    0.01342   -0.00923
AFIX  43
H114  2    0.791270    0.339279    0.876704   -21.00000   -1.20000
AFIX   0
C115  1    0.786587    0.416951    0.791170   -21.00000    0.06420    0.05144 =
         0.04282    0.00176    0.01217   -0.01217
AFIX  43
H115  2    0.823469    0.449560    0.832705   -21.00000   -1.20000
AFIX   0
C116  1    0.752728    0.435249    0.704674   -21.00000    0.06589    0.05145 =
         0.03804    0.00793    0.02271   -0.01242
C117  1    0.693974    0.388789    0.644360   -21.00000    0.07927    0.06777 =
         0.05663    0.01801    0.01699   -0.02677
C118  1    0.675121    0.320923    0.670642   -21.00000    0.07117    0.06554 =
         0.05462    0.01391    0.01974   -0.03052
C119  1    0.620857    0.272684    0.607053   -21.00000    0.10890    0.07731 =
         0.05574    0.00296    0.01945   -0.03106
AFIX  43
H119  2    0.608903    0.227087    0.624878   -21.00000   -1.20000
AFIX   0
C120  1    0.584099    0.289436    0.518979   -21.00000    0.13586    0.08913 =
         0.06015   -0.00119    0.01885   -0.03388
AFIX  43
H120  2    0.547709    0.255826    0.478568   -21.00000   -1.20000
AFIX   0
C121  1    0.601591    0.356290    0.491160   -21.00000    0.13208    0.09391 =
         0.06285   -0.00014    0.02263   -0.03601
AFIX  43
H121  2    0.577182    0.369597    0.432192   -21.00000   -1.20000
AFIX   0
C122  1    0.656727    0.402333    0.554543   -21.00000    0.11277    0.08573 =
         0.06504    0.00479    0.02097   -0.02805
AFIX  43
H122  2    0.670501    0.446746    0.535736   -21.00000   -1.20000
AFIX   0
PART 0
O21   5    0.653880    0.103596    0.958649    11.00000    0.03695    0.07459 =
         0.02076    0.00301    0.00139   -0.02261
O22   5    0.535636    0.110221    0.839943    11.00000    0.02879    0.05023 =
         0.02811    0.01097    0.00537   -0.00173
C201  1    0.577080    0.090137    0.915026    11.00000    0.03274    0.04332 =
         0.02373    0.00134    0.00602   -0.00635
C202  1    0.536216    0.043985    0.958706    11.00000    0.03541    0.06842 =
         0.02850    0.00987    0.00530   -0.01449
PART 1  31.0
C203  1    0.515726   -0.028426    0.931303    31.00000    0.07928    0.07920 =
         0.05409   -0.00139    0.03787   -0.02334
C204  1    0.479337   -0.073128    0.973959    31.00000    0.08473    0.08289 =
         0.05692   -0.00095    0.04258   -0.02831
PART 1  30.5
C205  1    0.460378   -0.145356    0.942455    30.50000    0.09968    0.08920 =
         0.07095   -0.00953    0.05042   -0.02787
AFIX  43
H205  2    0.435829   -0.175113    0.970950    30.50000   -1.20000
AFIX   0
C206  1    0.473126   -0.178591    0.874754    30.50000    0.10920    0.08628 =
         0.08071   -0.01493    0.04953   -0.01357
AFIX  43
H206  2    0.458136   -0.227534    0.858987    30.50000   -1.20000
AFIX   0
C207  1    0.509411   -0.134922    0.831869    30.50000    0.11604    0.08292 =
         0.08116   -0.01026    0.05320   -0.01427
AFIX  43
H207  2    0.520484   -0.152037    0.785369    30.50000   -1.20000
AFIX   0
C208  1    0.527915   -0.063711    0.863722    30.50000    0.10054    0.07415 =
         0.07299   -0.00409    0.05206   -0.02279
AFIX  43
H208  2    0.552741   -0.034354    0.835145    30.50000   -1.20000
AFIX   0
PART 2 -31.0
C209  1    0.573102   -0.023458    0.992958   -31.00000    0.06353    0.07696 =
         0.06297    0.02745    0.03121   -0.00891
C210  1    0.536386   -0.068314    1.034908   -31.00000    0.07169    0.07842 =
         0.06583    0.02845    0.03512   -0.00888
PART 2 -30.5
C211  1    0.578260   -0.134708    1.066699   -30.50000    0.07951    0.08191 =
         0.07605    0.03146    0.04233    0.01036
AFIX  43
H211  2    0.553321   -0.164683    1.094618   -30.50000   -1.20000
AFIX   0
C212  1    0.651451   -0.162791    1.062980   -30.50000    0.08207    0.07839 =
         0.08944    0.03530    0.04487    0.02301
AFIX  43
H212  2    0.674118   -0.208443    1.086883   -30.50000   -1.20000
AFIX   0
C213  1    0.688989   -0.118692    1.021408   -30.50000    0.07829    0.07379 =
         0.09241    0.03428    0.03943    0.02799
AFIX  43
H213  2    0.738523   -0.132267    1.015319   -30.50000   -1.20000
AFIX   0
C214  1    0.646567   -0.052563    0.989588   -30.50000    0.07413    0.07222 =
         0.08152    0.03711    0.03006    0.01647
AFIX  43
H214  2    0.671410   -0.022832    0.961356   -30.50000   -1.20000
PART 0
AFIX   0
HKLF 4
 
 
 
 
REM  dsmsalndc2 in C2/c; 130K; Xcalibur
REM wR2 = 0.2056, GooF = S = 1.082, Restrained GooF = 1.158 for all data
REM R1 = 0.0650 for 4951 Fo > 4sig(Fo) and 0.0751 for all 5993 data
REM 453 parameters refined using 1105 restraints
 
END
 
WGHT      0.1255     10.2474
 
REM Highest difference peak  1.082,  deepest hole -0.533,  1-sigma level  0.110
Q1    1   0.6913  0.4126  0.6813  11.00000  0.05    1.08
Q2    1   0.6758  0.3456  0.7147  11.00000  0.05    1.06
Q3    1   0.7168  0.1550  0.9315  11.00000  0.05    0.89
Q4    1   0.8414  0.3765  0.7419  11.00000  0.05    0.80
Q5    1   0.8210  0.3097  0.7712  11.00000  0.05    0.78
Q6    1   0.7760  0.1315  0.8969  11.00000  0.05    0.74
Q7    1   0.4842 -0.1648  0.7594  11.00000  0.05    0.73
Q8    1   0.5514  0.4103  0.5086  11.00000  0.05    0.64
Q9    1   0.4586 -0.2357  0.8018  11.00000  0.05    0.61
Q10   1   0.3866 -0.2415  0.8041  11.00000  0.05    0.54
;
_shelx_res_checksum              11793
_shelx_hkl_file
;
   0   0  -3 294.046 56.9181   2
   0   0  -3 344.085 55.7447   3
   0   0   3 362.341 51.6948   2
   0   0   3 307.690 53.2350   3
   0   0   4 1713.57 87.7407   3
   0   0   4 1723.27 92.7530   2
   0   0  -4 1716.26 96.7538   2
   0   0  -4 1798.21 89.8986   3
   0   0  -5 84.0729 42.6491   3
   0   0   5 83.8174 42.1768   3
   0   0   5-43.3061 46.2045   2
   0   0   6 96445.7 782.544   3
   0   0   6 98299.5 861.638   2
   0   0  -6 97723.0 778.730   3
   0   0  -7-17.3611 44.7306   3
   0   0   7-46.1546 55.3080   2
   0   0   7-2.11558 34.6176   3
   0   0   8 79535.1 909.652   2
   0   0   8 76709.7 811.325   3
   0   0   9 65.5476 50.8635   3
   0   0   9 119.637 61.7717   2
   0   0  -9 139.780 63.6443   3
   0   0  10 2736.51 196.259   2
   0   0  10 2419.03 169.797   3
   0   0 -10 2542.19 171.281   3
   0   0  11-1.42459 61.9921   2
   0   0  11 33.3813 53.4957   3
   0   0 -11-53.9408 62.4734   3
   0   0  12 30123.2 708.772   2
   0   0 -12 29795.4 632.337   3
   0   0  12 30426.8 648.305   3
   0   0  13 42.3791 69.3528   2
   0   0  13-5.14400 58.7641   3
   0   0  14 7691.64 402.135   2
   0   0  15-4.45630 81.6157   2
   0   0  16 339.450 118.364   2
   0   0  17 175.657 127.931   2
   0   0  18 12657.7 604.025   2
   0   0  18 11588.2 465.496   1
   0   0  19-23.7289 95.4231   1
   0   2  -2 44270.2 277.832   1
   0  -2   2 44532.4 279.478   1
   0   2   3 211442. 970.149   3
   0  -2  -3 206658. 947.915   3
   0  -2   3 212667. 704.338   1
   0  -2   3 216542. 668.415   3
   0  -2   4 1002.44 60.2813   3
   0  -2   4 892.296 57.3610   1
   0   2   4 1066.24 89.4275   3
   0  -2  -4 947.462 83.1119   2
   0  -2  -4 950.944 81.7054   3
   0  -2  -5 81261.1 724.978   3
   0  -2  -5 83425.1 757.690   2
   0  -2   5 82686.1 578.475   3
   0  -2   5 83741.0 586.695   1
   0   2   5 83056.2 736.599   3
   0   2   6 478.566 80.6081   3
   0  -2  -6 385.671 77.8378   2
   0   2   6 507.997 90.4669   2
   0  -2  -6 366.775 75.8764   3
   0  -2   6 459.583 62.2016   3
   0  -2  -7 87258.4 869.247   3
   0  -2   7 87821.2 738.621   3
   0   2   7 89369.7 891.437   3
   0  -2  -7 89019.5 927.462   2
   0  -2   7 89268.2 914.106   2
   0  -2  -8 24519.2 524.555   2
   0   2   8 25015.0 520.868   2
   0  -2   8 24743.8 428.882   3
   0  -2   8 24363.7 511.919   2
   0   2   8 24578.9 499.008   3
   0  -2  -8 23991.6 492.378   3
   0  -2  -9 15135.8 410.114   3
   0  -2  -9 14420.7 421.304   2
   0   2   9 14891.0 427.027   2
   0  -2   9 14940.0 426.955   2
   0   2   9 15022.4 411.576   3
   0  -2   9 14583.7 358.763   3
   0  -2 -10 3642.70 226.920   2
   0  -2 -10 3666.92 218.122   3
   0  -2  10 3591.57 189.021   3
   0   2  10 3764.27 233.596   2
   0   2  10 3750.74 223.806   3
   0  -2  10 3745.26 228.266   2
   0  -2 -11 50639.3 830.492   3
   0   2  11 50746.9 838.836   3
   0  -2  11 49546.9 737.485   3
   0   2  11 50027.8 869.898   2
   0  -2  11 49995.2 869.969   2
   0   2  12 950.126 146.488   2
   0  -2  12 632.000 106.038   2
   0  -2  12 778.620 107.438   3
   0   2  12 853.677 134.403   3
   0  -2 -12 853.408 130.504   3
   0  -2 -13 3940.11 260.951   3
   0   2  13 3673.59 278.024   2
   0  -2  13 3613.80 269.627   2
   0  -2  13 3571.46 226.865   3
   0  -2  13 3377.38 207.454   1
   0  -2  14 275.340 79.7896   3
   0  -2 -14 314.588 101.611   3
   0   2  14 486.113 135.224   2
   0  -2  14 164.039 57.4243   1
   0  -2  14 266.742 87.3587   2
   0  -2  15 13490.2 550.644   2
   0  -2  15 12920.0 432.630   1
   0  -2 -15 13424.8 511.561   3
   0  -2  16 1660.13 215.390   2
   0  -2  16 1410.86 153.329   1
   0  -2  17 8683.15 381.524   1
   0  -2  17 9207.34 500.184   2
   0  -2  18 508.487 152.304   2
   0  -2  18 341.600 99.0902   1
   0  -2  19 275.358 129.704   2
   0  -2  20 302.678 156.786   2
   0  -4   0 569599. 1361.05   3
   0   4   0 569800. 1385.06   3
   0   4   1 15882.9 257.567   3
   0  -4  -1 15981.6 254.694   3
   0  -4   1 16114.7 205.023   3
   0   4  -1 14763.0 228.982   1
   0   4   2 79930.3 635.826   3
   0   4  -2 77998.5 502.087   1
   0  -4   2 75796.3 491.919   1
   0  -4  -2 79263.0 626.872   3
   0  -4   3 29009.0 305.594   1
   0  -4  -3 26792.5 398.036   3
   0   4  -3 28347.1 303.616   1
   0   4   3 27006.2 404.623   3
   0  -4  -4 3360.88 159.965   3
   0   4   4 3407.32 161.466   3
   0   4  -4 3087.85 107.556   1
   0  -4   4 3060.60 106.562   1
   0  -4   5 1780.42 83.4589   3
   0  -4  -5 1613.77 120.253   3
   0  -4  -5 1569.78 122.465   2
   0   4   5 1647.01 126.386   3
   0  -4   5 1510.56 78.1448   1
   0   4   6 56985.0 718.268   3
   0  -4  -6 55742.0 709.269   3
   0  -4   6 57474.4 496.504   3
   0  -4  -6 57355.3 733.651   2
   0  -4   6 56531.9 520.119   1
   0  -4   7 6791.17 195.595   1
   0  -4  -7 6831.89 261.257   3
   0  -4   7 6852.39 188.802   3
   0   4   7 6832.64 264.915   3
   0  -4  -7 7129.38 275.630   2
   0  -4   8 128062. 889.454   3
   0  -4  -8 129053. 1247.56   2
   0  -4   8 128082. 912.897   1
   0  -4  -8 126306. 1182.51   3
   0  -4   9 2931.62 151.763   1
   0   4   9 3109.87 204.132   3
   0  -4  -9 3043.24 204.234   2
   0  -4  -9 3196.96 202.318   3
   0  -4   9 3127.91 153.965   3
   0  -4 -10 1864.48 169.329   3
   0  -4  10 2203.56 188.916   2
   0  -4  10 2247.90 142.541   1
   0  -4 -10 1897.17 175.985   2
   0   4  10 1937.03 172.879   3
   0  -4  10 1822.66 127.632   3
   0  -4  11 2577.72 165.549   3
   0  -4 -11 2715.19 220.939   3
   0  -4  11 2922.06 175.123   1
   0  -4  11 2984.58 229.644   2
   0  -4  12 44718.1 880.405   2
   0  -4  12 44727.3 701.354   3
   0  -4  12 44346.0 676.445   1
   0  -4 -12 45605.4 860.787   3
   0  -4  13 576.196 115.094   2
   0  -4  13 574.176 85.6770   1
   0  -4 -13 654.705 120.751   3
   0  -4  13 545.785 90.1635   3
   0  -4  14 17282.0 464.968   1
   0  -4 -14 16579.5 570.695   3
   0  -4  14 17364.9 607.429   2
   0  -4  14 16292.9 471.877   3
   0  -4 -15 215.547 111.325   3
   0  -4  15 307.123 101.462   2
   0  -4  15 280.376 85.2260   1
   0  -4  15 248.184 88.7251   3
   0  -4  16 1938.37 171.309   1
   0  -4  16 2083.60 236.604   2
   0  -4 -16 2275.74 241.438   3
   0  -4  17 1199.38 148.251   1
   0  -4 -17 1103.54 186.274   3
   0  -4  17 1220.99 192.192   2
   0  -4  18 9233.99 523.159   2
   0  -4  19 57.8665 102.085   2
   0  -4  20 2430.29 302.926   2
   0  -6   0 49896.9 494.480   3
   0   6   0 49096.1 499.117   3
   0  -6  -1 6292.30 191.510   3
   0   6   1 6121.51 192.470   3
   0  -6   1 5980.20 160.768   3
   0   6  -1 5495.88 179.044   1
   0   6  -2 1986.25 106.611   1
   0  -6   2 1294.86 73.6820   3
   0  -6  -2 1327.16 101.124   3
   0   6   2 1316.65 103.965   3
   0  -6  -3 188689. 1195.84   3
   0   6   3 189160. 1206.35   3
   0   6  -3 181362. 960.296   1
   0   6   4 3714.10 181.057   3
   0   6  -4 3098.03 123.891   1
   0  -6  -4 3591.04 172.937   3
   0  -6   4 3093.10 124.498   1
   0   6   5 28523.6 523.260   3
   0  -6  -5 28064.5 519.914   3
   0   6  -5 27650.3 370.991   1
   0  -6   5 28733.5 385.680   1
   0   6  -6 53.2486 28.7099   1
   0   6   6 98.9474 54.3728   3
   0  -6   6 49.0753 35.5955   1
   0  -6  -6 68.5568 52.4410   3
   0  -6  -7 261.376 80.1212   3
   0  -6   7 409.922 62.9842   1
   0   6   7 314.464 74.5706   3
   0  -6   7 294.574 43.8472   3
   0  -6  -7 203.584 59.3925   2
   0   6   8 1806.97 163.779   3
   0  -6   8 1771.14 100.155   3
   0  -6  -8 1909.59 169.718   2
   0  -6  -8 1754.01 158.283   3
   0  -6   8 1925.23 117.286   1
   0  -6   9 92706.5 764.921   3
   0  -6   9 88756.4 804.614   1
   0  -6  -9 90562.4 1118.02   3
   0   6   9 92705.5 1148.30   3
   0  -6  -9 91723.4 1166.57   2
   0  -6  10 547.281 57.5772   3
   0  -6 -10 614.853 105.457   3
   0  -6  10 637.887 68.1344   1
   0  -6 -11 73807.0 1094.57   3
   0  -6  11 74392.8 809.423   1
   0  -6  11 72976.3 779.329   3
   0  -6 -12 3958.61 276.487   3
   0  -6  12 3828.76 192.313   3
   0  -6  12 4000.47 281.795   2
   0  -6  12 3906.71 200.265   1
   0  -6  13 14101.2 538.573   2
   0  -6  13 13533.0 383.824   1
   0  -6 -13 14189.3 530.765   3
   0  -6  13 13634.2 386.725   3
   0  -6  14 193.784 95.3595   2
   0  -6  14 129.900 58.0856   1
   0  -6  14 112.819 64.1985   3
   0  -6 -14 203.530 102.271   3
   0  -6 -15 36826.4 918.185   3
   0  -6  15 36542.0 934.871   2
   0  -6  15 35228.7 666.501   1
   0  -6 -16 3406.03 299.283   3
   0  -6  16 3463.68 306.607   2
   0  -6  16 3466.29 221.229   1
   0  -6 -17 7924.28 464.096   3
   0  -6  17 7722.68 469.728   2
   0  -6  18 202.923 108.322   2
   0  -6 -18 395.420 144.103   3
   0  -6  19 671.788 168.244   2
   0  -8   0 47720.9 559.852   3
   0   8   0 46987.9 569.149   3
   0  -8  -1 2863.79 148.747   3
   0  -8   1 2910.97 131.436   3
   0   8  -1 3550.94 167.628   1
   0   8   1 2886.68 152.505   3
   0  -8   2 58249.3 551.924   3
   0   8   2 56655.1 698.453   3
   0   8  -2 55740.5 641.717   1
   0  -8  -2 56660.9 684.902   3
   0  -8  -3 2020.73 145.481   3
   0   8   3 1859.93 142.273   3
   0  -8   3 1830.86 97.0709   3
   0   8  -4 12541.9 292.407   1
   0   8   4 14106.0 392.032   3
   0  -8   4 13737.3 247.373   3
   0  -8  -4 14132.0 377.773   3
   0   8   5 1079.48 120.047   3
   0   8  -5 1005.88 83.5968   1
   0  -8  -5 1225.24 124.523   3
   0  -8   5 1120.53 90.6296   1
   0   8   6 34105.6 665.969   3
   0  -8  -6 33919.2 640.088   3
   0  -8   6 35671.0 487.879   1
   0   8  -6 33790.6 472.600   1
   0   8   7 3246.45 213.532   3
   0   8  -7 3323.85 150.564   1
   0  -8  -7 3342.42 215.857   3
   0  -8   7 3245.38 150.161   1
   0   8   8 54311.0 909.068   3
   0  -8  -8 54926.4 911.908   2
   0  -8  -8 52765.5 873.378   3
   0  -8   8 55542.3 521.961   3
   0  -8   8 56797.2 647.008   1
   0  -8   9 533.614 64.5248   3
   0  -8   9 482.539 82.7940   1
   0  -8  -9 334.142 95.4704   3
   0  -8  10 3412.06 172.305   1
   0  -8  10 3932.57 156.322   3
   0  -8 -10 4013.61 269.936   3
   0  -8 -11 1750.11 192.106   3
   0  -8  11 1985.38 133.640   3
   0  -8  11 2457.63 159.000   1
   0  -8  12 6794.10 239.901   3
   0  -8 -12 6700.81 368.359   3
   0  -8  12 6159.90 245.929   1
   0  -8  13 155.417 53.0637   3
   0  -8  13 228.925 63.5777   1
   0  -8 -13 233.350 96.5613   3
   0  -8  14 9838.11 482.419   2
   0  -8  14 9824.12 330.431   1
   0  -8 -14 10054.6 486.073   3
   0  -8  15 40.9517 56.7946   1
   0  -8  15 61.3621 81.8318   2
   0  -8 -15-45.2549 102.295   3
   0  -8 -16 133.658 104.968   3
   0  -8  16 186.603 99.2660   2
   0  -8 -17 359.980 153.752   3
   0  -8  17 112.358 102.978   2
   0  -8 -18 4779.96 389.120   3
   0  -8  18 3976.77 360.247   2
   0  -8  19 17.5867 107.661   2
   0  -8 -19 402.014 156.109   3
   0  10   0 17832.8 405.862   3
   0 -10   0 18201.1 394.537   3
   0 -10   1 125076. 980.651   3
   0  10   1 125121. 1104.89   3
   0  10   2 12375.1 364.440   3
   0 -10  -2 12065.8 351.099   3
   0  10  -2 12066.5 343.446   1
   0 -10   2 12226.8 290.344   3
   0  10   3 53896.5 793.355   3
   0 -10   3 53721.6 582.388   3
   0  10  -3 54156.2 711.962   1
   0 -10  -3 52991.1 761.964   3
   0  10   4-35.8308 59.3840   3
   0 -10   4 36.6228 32.2421   3
   0 -10  -4 38.9478 53.9690   3
   0  10  -4 32.3338 37.2225   1
   0  10   5 5552.31 278.211   3
   0 -10   5 5630.95 174.311   3
   0  10  -5 5639.46 221.982   1
   0 -10  -5 5116.61 265.954   3
   0 -10   6 607.390 59.5235   3
   0  10  -6 811.078 86.9428   1
   0  10   6 676.020 112.808   3
   0 -10  -6 750.316 121.328   3
   0  10  -7 10080.7 288.778   1
   0 -10  -7 10841.1 404.870   3
   0 -10   7 9782.37 287.470   1
   0 -10   8 1052.71 100.945   1
   0 -10  -8 1307.09 161.897   3
   0  10  -8 1228.79 105.346   1
   0 -10   9 42947.5 609.691   1
   0 -10  -9 42002.1 849.646   3
   0 -10   9 41711.8 465.082   3
   0 -10  10 9478.76 227.565   3
   0 -10  10 9353.33 292.379   1
   0 -10 -10 9467.73 423.870   3
   0 -10  11 10498.3 252.666   3
   0 -10 -11 10113.1 455.690   3
   0 -10  11 10145.9 309.572   1
   0 -10  12 9591.89 306.288   1
   0 -10  12 8997.35 248.687   3
   0 -10 -12 9303.99 445.905   3
   0 -10 -13 299.877 111.120   3
   0 -10  13 80.8992 47.4248   1
   0 -10  14 57.1303 51.0049   1
   0 -10 -14 62.2723 91.8155   3
   0 -10 -15 11015.5 541.992   3
   0 -10  16 127.189 103.541   2
   0 -10 -16 118.368 102.305   3
   0 -10  17 4161.63 364.602   2
   0 -10 -17 4715.40 394.850   3
   0 -10 -18-176.123 138.417   3
   0 -10  18 150.811 118.576   2
   0 -12   1 13137.4 351.613   3
   0  12   1 13160.5 398.358   3
   0 -12  -1 13269.0 387.178   3
   0  12  -1 15798.3 450.042   1
   0 -12   2 8249.45 269.423   3
   0  12  -2 8966.02 331.840   1
   0 -12  -2 7881.36 312.757   3
   0  12   2 7707.72 314.682   3
   0 -12   3 1734.63 126.967   3
   0  12   3 1640.19 160.486   3
   0  12  -3 1089.05 119.324   1
   0 -12  -3 1692.46 162.675   3
   0 -12   4 2672.57 145.511   3
   0 -12  -4 2781.61 202.687   3
   0  12  -4 2436.70 171.358   1
   0  12   4 2750.78 212.234   3
   0 -12  -5 1458.46 152.469   3
   0  12  -5 1732.47 141.005   1
   0 -12   5 1662.26 109.253   3
   0 -12  -6 56397.3 942.449   3
   0 -12   6 58756.6 596.282   3
   0  12  -6 54969.0 758.415   1
   0  12  -7 598.765 80.6482   1
   0 -12   7 986.590 80.4043   3
   0 -12  -7 718.796 116.873   3
   0 -12   8 622.770 63.4817   3
   0 -12  -8 324.402 95.4450   3
   0  12  -8 748.459 96.4040   1
   0 -12  -9 24.1224 78.0510   3
   0 -12   9 68.7038 32.0817   3
   0 -12   9 22.7158 27.6921   3
   0  12  -9 86.2403 47.3759   1
   0 -12 -10 8622.89 428.045   3
   0 -12  10 9479.57 307.203   1
   0 -12  10 7502.93 189.817   3
   0 -12  10 7618.89 196.250   3
   0 -12 -11 669.323 146.248   3
   0 -12  11 463.131 89.5975   1
   0 -12 -12 7834.74 436.085   3
   0 -12  12 7977.69 287.361   1
   0 -12 -13 1730.02 222.486   3
   0 -12 -14 6689.96 429.497   3
   0 -12 -15 313.100 135.855   3
   0 -12 -16 263.638 140.532   3
   0 -12  17 805.103 188.691   2
   0  14   0 197.264 83.8311   1
   0 -14   0 507.809 99.0237   3
   0 -14  -1 715.966 108.663   3
   0 -14   1 736.511 100.438   3
   0  14   1 750.529 104.342   3
   0  14  -1 293.819 69.8472   1
   0  14   2 1219.43 143.823   3
   0 -14   2 1449.98 132.465   3
   0 -14  -2 1303.31 145.225   3
   0  14  -2 1864.55 178.999   1
   0 -14   3 19859.0 443.456   3
   0  14  -3 19675.7 536.847   1
   0 -14  -3 19781.6 546.307   3
   0  14  -4 117.339 53.6694   1
   0 -14   4 208.469 58.7697   3
   0 -14  -4 142.010 64.9493   3
   0 -14  -5 10817.9 431.454   3
   0 -14   5 11287.9 306.395   3
   0  14  -5 11271.6 389.371   1
   0  14  -6 1743.72 161.161   1
   0 -14   6 1675.98 118.278   3
   0 -14  -6 1721.31 189.961   3
   0 -14  -7 4785.78 310.735   3
   0  14  -7 4078.28 224.421   1
   0 -14   7 4724.78 179.312   3
   0 -14  -8 786.504 144.841   3
   0 -14   8 764.572 74.6793   3
   0  14  -8 515.402 89.3224   1
   0 -14  -9 9958.45 466.342   3
   0 -14   9 7453.62 208.692   3
   0  14  -9 8988.92 320.911   1
   0 -14 -10 3249.51 279.184   3
   0 -14 -11 6958.21 416.494   3
   0 -14 -12-117.562 103.636   3
   0 -14 -13 1124.14 190.050   3
   0 -14 -14-116.833 113.228   3
   0 -14 -15 2373.69 288.267   3
   0 -16   0 38997.9 746.502   3
   0 -16  -1 8262.56 356.534   3
   0 -16   1 8683.26 341.838   3
   0 -16  -2 4826.34 285.724   3
   0 -16   2 5286.09 262.106   3
   0 -16  -3-2.66304 74.4246   3
   0 -16   3 177.562 74.2659   3
   0 -16  -4 3155.63 247.188   3
   0  16  -4 2526.10 210.599   1
   0 -16   4 2701.15 175.309   3
   0  16  -5 161.770 69.0105   1
   0 -16   5 213.637 63.2478   3
   0 -16  -5 188.230 95.1647   3
   0 -16  -6 9875.69 454.864   3
   0  16  -6 8892.00 373.850   1
   0 -16   6 9813.89 293.775   3
   0 -16   7 3617.56 169.423   3
   0  16  -7 3297.36 225.809   1
   0 -16  -7 3622.62 289.474   3
   0 -16  -8 11286.0 512.940   3
   0 -16   8 10186.2 256.125   3
   0 -16  -9 456.101 153.073   3
   0 -16 -10-48.5975 109.884   3
   0 -16 -11 64.8193 97.0317   3
   0 -16 -12 12804.6 600.835   3
   0 -16 -13 84.1396 105.199   3
   0 -16 -14 3320.85 334.227   3
   0 -18   0 8367.04 373.776   3
   0 -18  -1-53.9436 87.7683   3
   0 -18   1-12.0051 71.6292   3
   0 -18   2 770.878 117.648   3
   0 -18  -2 601.926 120.874   3
   0 -18  -3 4202.51 296.754   3
   0 -18   3 4325.56 245.804   3
   0 -18  -4 133.117 77.4257   3
   0 -18   4 114.761 59.2543   3
   0 -18  -5 3492.01 287.877   3
   0 -18   5 3392.44 206.629   3
   0 -18   6 2559.09 172.652   3
   0 -18  -6 2688.80 263.910   3
   0 -18  -7 795.199 161.189   3
   0 -18  -8-72.9737 109.580   3
   0 -18  -9 9873.08 514.451   3
   0 -18 -10 386.238 137.264   3
   0 -18 -11 3182.71 317.110   3
   0 -18 -12 149.751 132.855   3
   0 -20   0 11631.8 471.518   3
   0 -20  -1 345.953 97.8808   3
   0 -20   1 618.810 123.653   3
   0 -20  -2 2982.53 255.508   3
   0 -20   2 3639.75 253.620   3
   0 -20  -3 351.927 127.171   3
   0 -20   3 333.563 102.143   3
   0 -20  -4 1913.55 224.695   3
   0 -20   4 1913.91 172.896   3
   0 -20  -5 209.117 109.180   3
   0 -20  -6 6801.25 423.079   3
   0 -20  -7 1117.91 187.660   3
   0 -20  -8 3285.36 307.880   3
   0 -20  -9 476.327 161.125   3
   0 -20 -10 2969.42 311.155   3
   0 -22   0 406.758 128.129   3
   0 -22  -1 1536.10 195.819   3
   0 -22   1 1049.21 158.523   3
   0 -22  -2 431.848 138.433   3
   0 -22  -3 7755.88 441.449   3
   0 -22  -4 51.7289 92.8523   3
   0 -22  -5 545.409 153.204   3
   0 -22  -6 269.776 142.385   3
   0 -22  -7 1144.71 208.987   3
   0 -22  -8 637.563 170.564   3
   0 -24  -2 1168.09 194.263   3
   0 -24  -3 440.317 145.122   3
   0 -24  -4 296.055 126.051   3
   0 -24  -5 164.348 120.420   3
   0 -24  -6 3503.69 343.345   3
  -1   1  20 413.119 106.740   1
  -1  -1  19 14169.3 650.205   2
  -1  -1  19 12698.6 503.557   1
  -1  -1  18 2523.38 270.896   2
  -1  -1  18 2224.66 213.047   1
  -1  -1  17 5214.03 370.285   2
  -1  -1  17 4753.18 295.261   1
  -1  -1  16 10132.1 408.179   1
  -1   1  16 10738.1 502.959   2
  -1  -1  16 10567.2 498.839   2
  -1  -1  15 3407.70 273.822   2
  -1   1  15 3502.12 286.959   2
  -1  -1  14 4181.13 288.461   2
  -1   1  14 4257.64 291.857   2
  -1  -1  13 22318.8 571.717   3
  -1   1  13 22221.0 616.491   2
  -1  -1  13 22463.9 623.035   2
  -1   1  12 5388.00 283.950   3
  -1  -1  12 5473.74 292.862   2
  -1  -1  12 5493.11 268.569   3
   1  -1 -12 5177.39 272.742   3
  -1   1  12 5426.75 293.963   2
  -1  -1  11 2247.28 165.724   3
  -1   1  11 2265.18 183.597   2
   1  -1 -11 1986.44 163.946   3
  -1   1  11 2096.83 167.491   3
  -1  -1  11 2150.29 174.889   2
  -1  -1  10 574.371 94.9675   2
  -1  -1  10 580.372 88.3375   3
  -1   1  10 638.100 101.168   2
   1  -1 -10 527.035 86.2325   3
  -1   1  10 551.779 87.6989   3
   1  -1  -9 1.56436 49.2750   2
   1  -1  -9 10.7536 55.0586   3
  -1   1   9-32.7146 47.2294   3
  -1  -1   9 16.1532 41.8669   3
  -1  -1   9 101.490 64.0340   2
  -1   1   9 81.1906 62.6681   2
   1  -1  -8 23945.1 482.212   2
  -1   1   8 23768.0 463.693   3
  -1  -1   8 23519.8 433.839   3
  -1  -1   8 24350.7 484.386   2
  -1   1   8 24051.8 484.885   2
   1  -1  -8 23210.6 460.019   3
  -1  -1   7 80626.9 807.107   2
  -1   1   7 77963.3 792.983   3
   1  -1  -7 77595.6 805.899   2
  -1  -1   7 78120.8 731.937   3
  -1   1   6 11497.2 282.204   2
   1  -1  -6 11179.1 282.194   2
   1  -1  -6 11231.2 277.487   3
  -1  -1   6 11311.4 276.900   2
  -1  -1   6 10993.3 254.589   3
  -1   1   6 10689.6 275.823   3
  -1   1   5 14212.7 286.313   3
  -1   1   5 14687.1 288.580   2
   1  -1  -5 13953.5 286.962   3
  -1  -1   5 14552.2 282.142   2
   1  -1  -5 13966.2 282.709   2
  -1  -1   5 13904.0 262.740   3
  -1   1   4 13227.3 241.675   2
  -1  -1   4 12926.4 228.551   3
  -1   1   4 12740.6 248.002   3
   1  -1  -4 13320.4 242.078   2
   1  -1  -4 12852.1 249.419   3
  -1   1   3 95.1116 35.3516   3
   1  -1  -3 84.1298 30.6651   2
   1  -1  -3 95.0799 33.5386   3
  -1  -1   3 76.7885 27.6788   1
   1   1   2 320290. 1005.33   3
  -1  -1  -2 322707. 1002.00   3
  -1   1  -2 327256. 713.356   3
   1  -1   2 323875. 712.740   3
  -1  -1  -3 91259.1 667.197   2
  -1   1  -3 94162.5 488.404   3
   1  -1   3 92838.7 487.684   3
   1   1   3 92295.3 611.876   3
  -1  -1  -3 91236.9 615.575   3
   1   1   3 94774.6 671.184   2
   1  -1   4 129413. 685.236   3
   1   1   4 130718. 886.678   2
   1   1   4 127223. 804.570   3
  -1  -1  -4 125562. 809.531   3
  -1   1  -4 129898. 677.599   3
  -1  -1  -4 128964. 886.627   2
   1  -1   5 94674.0 835.304   2
  -1  -1  -5 93411.5 831.128   2
  -1   1  -5 95492.7 662.643   3
   1  -1   5 93452.1 664.634   3
   1   1   5 94474.6 830.212   2
  -1  -1  -5 93642.2 761.451   3
  -1   1  -6 516.572 64.3425   3
   1   1   6 590.780 82.0927   2
   1  -1   6 463.564 70.3690   2
  -1  -1  -6 554.931 75.8226   2
   1  -1   6 548.661 67.0681   3
  -1  -1  -6 469.719 72.5550   3
   1   1   6 565.832 75.2980   3
   1  -1   7 162412. 1063.59   3
  -1  -1  -7 161571. 1278.02   2
   1   1   7 163474. 1270.12   2
  -1   1  -7 162073. 1052.74   3
  -1  -1  -7 162233. 1163.21   3
   1  -1   7 163969. 1290.77   2
   1  -1   8 18464.8 384.916   3
   1   1   8 18593.5 419.097   3
  -1   1  -8 18936.3 394.862   3
   1  -1   8 18642.2 466.153   2
   1   1   8 18732.7 467.403   2
  -1  -1  -8 18423.2 417.281   3
  -1  -1  -9 4489.78 225.448   3
   1   1   9 4762.00 252.123   2
  -1   1  -9 4734.76 213.935   3
   1  -1   9 4679.10 208.692   3
   1   1   9 4392.73 220.803   3
   1  -1   9 4480.83 243.007   2
  -1  -1 -10 40794.6 705.677   3
   1  -1  10 40170.3 648.157   3
   1  -1  10 40821.4 766.038   2
   1   1  10 40065.6 697.091   3
   1   1  10 40264.2 760.134   2
  -1   1 -10 41705.6 665.658   3
   1   1  11 10786.3 420.865   2
  -1  -1 -11 10619.5 381.431   3
  -1   1 -11 10993.0 363.739   3
   1  -1  11 11017.5 361.097   3
   1   1  11 11186.1 389.723   3
   1  -1  11 10514.7 412.389   2
   1   1  12 2158.57 184.965   3
  -1  -1 -12 2009.92 177.499   3
  -1   1 -12 2117.01 172.111   3
   1  -1  12 2231.58 205.616   2
   1   1  12 2183.90 209.074   2
   1  -1  12 1983.53 164.900   3
  -1  -1 -13 5843.26 307.048   3
   1  -1  13 5896.52 297.181   3
   1  -1  13 5644.13 334.919   2
   1   1  13 5935.85 348.899   2
  -1  -1 -14 847.714 135.295   3
   1  -1  14 951.542 158.779   2
   1   1  14 1077.86 172.559   2
  -1  -1 -15 1345.72 167.281   3
   1   1  15 1403.67 202.577   2
   1  -1  15 1251.41 185.981   2
   1  -1  16 4013.28 333.668   2
   1   1  16 4522.71 355.184   2
   1   1  17 1784.06 248.562   2
   1  -1  17 1731.04 243.244   2
   1  -1  17 1296.10 150.468   1
   1  -1  18 276.937 96.2462   1
   1  -1  18 698.689 179.671   2
   1  -1  19 4549.63 392.846   2
  -1  -3  20 305.996 127.644   2
  -1  -3  19 7901.49 493.382   2
  -1  -3  18 895.707 141.294   1
  -1  -3  18 789.816 159.415   2
  -1  -3  17 7061.71 429.042   2
  -1  -3  17 7313.69 353.587   1
  -1  -3  16 12085.2 438.429   1
  -1  -3  16 11696.8 523.040   2
   1  -3 -15 987.425 148.070   3
  -1  -3  15 1159.44 170.803   2
  -1  -3  15 1468.27 158.810   1
   1  -3 -14 12594.9 492.361   3
  -1  -3  14 12470.4 430.752   3
  -1  -3  14 12478.1 413.141   1
  -1  -3  14 12402.6 496.077   2
  -1  -3  13 9686.69 418.929   2
   1  -3 -13 9541.48 407.155   3
  -1  -3  13 9718.14 348.073   1
  -1  -3  13 9325.18 354.572   3
  -1  -3  12 14531.2 488.832   2
   1  -3 -12 13617.8 462.452   3
  -1  -3  12 13709.7 398.509   3
  -1  -3  12 14584.9 405.051   1
   1  -3 -11 11689.3 409.317   3
  -1  -3  11 11507.4 340.904   1
   1  -3 -11 12065.6 427.605   2
  -1   3  11 12064.4 421.223   3
  -1  -3  11 11783.8 415.919   2
  -1  -3  11 11639.0 353.283   3
   1  -3 -10 26068.9 573.392   3
  -1  -3  10 25471.0 489.602   3
  -1  -3  10 26097.6 578.068   2
   1  -3 -10 26488.8 600.817   2
  -1   3  10 26258.8 585.644   3
  -1  -3  10 26280.3 490.629   1
   1  -3  -9 13584.1 407.656   2
   1  -3  -9 13084.3 392.765   3
  -1  -3   9 13938.6 345.328   1
  -1  -3   9 13165.0 326.250   3
  -1  -3   9 14020.1 404.245   2
  -1   3   9 13357.1 403.233   3
  -1  -3   8 17686.5 355.158   3
   1  -3  -8 17246.9 422.216   3
  -1   3   8 17952.1 433.798   3
   1  -3  -8 17535.3 431.885   2
  -1  -3   8 17343.1 357.306   1
  -1   3   7 19750.2 427.933   3
   1  -3  -7 19695.9 420.685   3
  -1  -3   7 20097.3 361.109   1
  -1  -3   7 20480.4 354.068   3
   1  -3  -7 19930.6 430.781   2
  -1  -3   6 1010.80 79.0976   3
  -1  -3   6 932.595 81.7732   1
  -1   3   6 1141.09 107.936   3
   1  -3  -6 1175.61 109.153   2
   1  -3  -6 1292.69 124.730   3
  -1  -3   5 54444.7 506.516   1
   1  -3  -5 54416.9 606.528   2
   1  -3  -5 53714.2 605.282   3
  -1   3   5 54652.5 617.668   3
  -1  -3   4 131160. 727.749   1
   1   3  -4 131343. 724.307   1
   1  -3  -4 131069. 874.141   3
  -1   3   4 133624. 884.927   3
   1   3  -3 86737.1 552.027   1
  -1   3   3 85537.6 645.797   3
   1  -3  -3 86021.0 636.572   3
  -1  -3   3 89739.8 558.511   1
  -1  -3   2 36175.6 347.016   1
   1   3  -2 36277.5 351.221   1
   1  -3  -2 39659.1 384.451   3
  -1   3   2 39290.7 387.965   3
   1  -3  -1 247075. 828.250   3
   1   3  -1 247847. 919.562   1
  -1  -3   1 249890. 906.130   1
  -1   3   1 243878. 841.239   3
  -1   3   0 47140.8 294.299   3
   1   3   0 47739.9 400.226   3
  -1  -3   0 47681.5 397.423   3
   1  -3   0 47280.5 290.952   3
  -1  -3  -1 94561.4 614.758   3
   1   3   1 93109.8 614.441   3
  -1  -3  -2 2578.02 115.326   3
   1   3   2 2678.06 118.962   3
  -1   3  -3 196.873 28.2932   1
   1   3   3 307.042 62.2732   3
   1  -3   3 544.268 39.2737   1
  -1  -3  -3 218.374 68.2339   2
  -1  -3  -3 237.264 54.0543   3
   1  -3   4 37020.6 300.590   1
   1  -3   4 37690.1 296.326   3
  -1  -3  -4 37892.5 506.325   3
   1   3   4 37168.5 498.172   3
   1  -3   5 86103.7 536.022   1
  -1  -3  -5 86234.4 807.782   3
  -1  -3  -5 85288.5 832.084   2
   1  -3   5 85744.7 534.036   3
   1   3   5 85580.1 807.795   3
   1  -3   6 21293.8 309.055   3
  -1  -3  -6 20849.9 446.243   2
   1   3   6 21257.2 430.048   3
  -1  -3  -6 20542.0 420.823   3
   1  -3   6 20901.2 297.760   1
   1  -3   7 127339. 814.291   1
   1   3   7 125691. 1108.39   3
  -1  -3  -7 127858. 1174.56   2
   1  -3   7 125511. 833.461   3
  -1  -3  -7 122874. 1093.58   3
   1   3   8 1123.49 123.868   3
   1  -3   8 805.373 80.2285   1
   1  -3   8 1010.55 93.9237   3
  -1  -3  -8 1194.91 130.105   3
  -1  -3  -8 989.439 125.749   2
  -1  -3  -9 3166.38 214.032   2
   1   3   9 3167.81 206.409   3
  -1  -3  -9 3190.11 203.770   3
   1   3   9 3346.31 222.101   2
   1  -3   9 3163.61 160.699   3
   1  -3   9 3342.31 216.753   2
   1  -3   9 3223.94 153.557   1
   1  -3  10 38435.7 562.576   1
   1  -3  10 39272.6 773.605   2
  -1  -3 -10 39054.7 718.425   3
   1   3  10 38803.0 732.420   3
  -1  -3 -10 38218.6 768.679   2
   1  -3  10 39299.1 595.629   3
   1  -3  11 34060.4 594.562   3
   1  -3  11 33741.1 554.892   1
   1   3  11 34474.6 718.548   3
  -1  -3 -11 34583.2 709.934   3
   1  -3  11 33852.3 754.452   2
  -1  -3 -12 515.615 103.693   3
   1  -3  12 514.662 73.7334   1
   1  -3  12 435.032 76.9191   3
   1  -3  12 550.369 113.725   2
   1  -3  13 5050.31 263.473   3
   1  -3  13 5087.55 328.800   2
  -1  -3 -13 4969.91 303.309   3
   1  -3  13 5041.93 243.781   1
   1  -3  14 2006.05 185.551   3
   1  -3  14 1485.67 142.060   1
   1  -3  14 1733.65 206.989   2
  -1  -3 -14 1713.34 191.017   3
   1  -3  15 543.290 131.064   2
  -1  -3 -15 803.630 148.913   3
   1  -3  15 519.906 83.2866   1
   1  -3  16 14976.8 464.982   1
   1  -3  16 15343.8 636.193   2
  -1  -3 -16 15769.4 603.758   3
   1  -3  17 193.681 121.618   2
   1  -3  17 119.508 57.7000   1
  -1  -3 -17 119.911 91.7504   3
   1  -3  18 181.239 110.981   2
   1  -3  19 991.513 201.210   2
  -1  -5  20 632.560 158.791   2
  -1  -5  19 5278.22 409.703   2
  -1  -5  18 919.957 172.036   2
  -1  -5  17 1085.22 149.788   1
  -1  -5  17 1037.57 185.819   2
   1  -5 -17 1332.27 203.816   3
  -1  -5  16 17599.7 514.199   1
  -1  -5  16 17575.4 649.464   2
   1  -5 -16 18371.1 659.658   3
  -1  -5  15 1995.38 178.612   3
   1  -5 -15 2095.84 226.308   3
  -1  -5  15 2403.74 190.876   1
  -1  -5  15 2364.81 240.127   2
  -1  -5  14 4894.60 253.784   1
  -1  -5  14 4893.33 255.646   3
   1  -5 -14 5284.17 330.149   3
  -1  -5  14 5297.86 331.571   2
  -1  -5  13 4094.56 225.475   3
  -1  -5  13 4073.09 283.926   2
  -1  -5  13 3926.00 220.080   1
   1  -5 -13 3878.94 273.561   3
  -1  -5  12 30657.6 570.789   3
   1  -5 -12 31147.6 728.347   3
  -1  -5  12 32238.5 735.891   2
  -1  -5  12 32069.9 591.942   1
   1  -5 -11 10779.1 414.440   3
  -1  -5  11 10829.5 323.133   3
  -1  -5  11 10478.2 321.890   1
  -1  -5  10 25754.0 477.630   1
  -1   5  10 25307.8 611.113   3
   1  -5 -10 24866.5 593.031   3
  -1  -5  10 24664.2 456.763   3
   1  -5 -10 25284.6 616.231   2
   1  -5  -9 17692.9 477.376   3
   1  -5  -9 17987.6 488.128   2
  -1  -5   9 18229.8 370.873   3
  -1  -5   9 18898.1 389.490   1
  -1   5   9 18203.8 493.814   3
   1  -5  -8 4106.32 225.275   3
  -1   5   8 4291.53 231.745   3
   1  -5  -8 4281.78 229.120   2
  -1  -5   8 4016.40 174.326   1
  -1  -5   8 4087.62 162.730   3
  -1  -5   7 31427.5 449.205   1
  -1   5   7 32473.2 592.144   3
   1  -5  -7 31444.1 573.461   3
   1  -5  -7 31588.7 574.813   2
  -1   5   6 184.061 65.8247   3
   1  -5  -6 158.129 62.9201   3
  -1  -5   6 131.764 41.9877   1
   1   5  -6 156.206 36.8494   1
  -1   5   5 37197.5 560.984   3
   1   5  -5 35921.2 438.093   1
   1  -5  -5 37284.7 558.455   3
  -1  -5   5 34746.0 433.657   1
  -1  -5   4 326694. 1286.42   1
   1   5  -4 326593. 1283.04   1
   1  -5  -4 324946. 1551.92   3
  -1   5   4 324797. 1557.22   3
   1   5  -3 31022.5 395.366   1
  -1  -5   3 30976.6 390.522   1
  -1   5   3 30745.7 443.741   3
   1  -5  -3 30807.1 434.259   3
   1  -5  -2 3689.97 140.878   3
   1   5  -2 3982.16 146.324   1
  -1   5   2 3451.58 141.189   3
  -1  -5   2 3822.26 140.177   1
  -1  -5   1 16006.2 266.984   3
   1  -5  -1 15610.1 259.396   3
  -1   5   1 15857.3 264.241   3
   1   5  -1 13015.4 265.720   1
  -1   5   0 11445.0 201.454   3
   1  -5   0 11754.3 197.162   3
   1   5   0 11514.6 252.585   1
  -1  -5   0 11801.5 243.632   3
   1   5   0 12124.8 250.096   3
  -1   5  -1 40984.2 329.493   3
   1   5   1 41670.3 491.604   3
  -1  -5  -1 41343.4 489.347   3
   1  -5   2 47252.7 293.258   3
  -1   5  -2 48494.4 401.042   1
   1   5   2 48024.5 562.470   3
  -1  -5  -2 48794.7 558.505   3
   1   5   3 23374.9 418.677   3
  -1  -5  -3 22923.6 412.055   3
   1  -5   3 23172.3 267.608   1
  -1   5  -3 23235.8 267.427   1
   1   5   4 76500.8 803.243   3
   1  -5   4 79003.8 496.203   1
  -1  -5  -4 75540.7 790.586   3
  -1   5  -4 76798.2 485.197   1
  -1  -5  -5 8993.47 295.982   2
   1   5   5 9450.30 300.541   3
  -1  -5  -5 9355.19 292.580   3
   1  -5   5 9076.04 149.922   3
   1  -5   5 8542.12 174.038   1
  -1  -5  -6 18673.6 435.009   3
   1  -5   6 19597.0 256.958   3
  -1  -5  -6 20061.0 469.076   2
   1  -5   6 20954.3 289.828   1
   1   5   6 19524.8 456.038   3
   1  -5   7 48118.0 477.356   1
  -1  -5  -7 49142.1 770.764   2
   1  -5   7 50739.2 470.995   3
   1   5   7 50061.7 763.425   3
  -1  -5  -7 48452.4 734.459   3
   1  -5   8 11302.4 246.242   3
  -1  -5  -8 11729.5 396.057   2
  -1  -5  -8 11208.7 372.380   3
   1   5   8 11830.7 393.720   3
   1  -5   8 11020.0 246.098   1
  -1  -5  -9 14807.3 468.814   2
   1  -5   9 15064.7 309.053   1
   1   5   9 14624.3 457.271   3
  -1  -5  -9 14224.7 442.996   3
   1  -5   9 14490.9 306.329   3
   1  -5  10 62515.1 675.555   1
   1  -5  10 60901.1 683.437   3
  -1  -5 -10 60632.6 948.109   3
   1  -5  11 16396.8 537.322   2
  -1  -5 -11 16336.9 510.150   3
   1  -5  11 15901.0 365.004   1
   1  -5  11 16366.5 378.418   3
   1  -5  12 4162.12 198.092   1
   1  -5  12 4314.90 293.215   2
  -1  -5 -12 4160.29 274.413   3
   1  -5  12 4104.50 206.729   3
  -1  -5 -13 13976.6 520.501   3
   1  -5  13 13965.6 399.973   3
   1  -5  13 14586.8 553.435   2
   1  -5  13 13776.8 376.622   1
   1  -5  14 8290.30 306.734   1
   1  -5  14 8334.13 330.130   3
   1  -5  14 8408.90 444.789   2
  -1  -5 -14 8680.56 421.418   3
  -1  -5 -15 58.7094 84.2491   3
   1  -5  15 87.1826 76.1591   2
   1  -5  15 88.3791 49.5314   1
  -1  -5 -16 2791.04 275.277   3
   1  -5  16 2416.78 264.781   2
   1  -5  16 2850.88 199.022   1
  -1  -5 -17 3296.51 305.010   3
   1  -5  17 3052.66 306.159   2
  -1  -5 -18 688.488 171.855   3
   1  -5  18 416.474 141.395   2
   1  -5  19 3943.52 372.472   2
  -1  -7  20-150.805 131.279   2
  -1  -7  19 1830.93 255.881   2
  -1  -7  18 452.312 147.776   2
   1  -7 -18 288.858 127.743   3
  -1  -7  17 5141.42 383.154   2
   1  -7 -17 5091.62 378.039   3
   1  -7 -16 3831.76 328.486   3
  -1  -7  16 3799.50 327.335   2
  -1  -7  16 3462.27 227.146   1
   1  -7 -15 2849.89 269.009   3
  -1  -7  15 2791.97 261.745   2
  -1  -7  15 2970.66 204.729   1
  -1  -7  14 11943.5 385.833   1
   1  -7 -14 12452.4 526.118   3
  -1  -7  14 12156.8 509.824   2
  -1  -7  14 11514.0 373.848   3
   1  -7 -13 12401.8 498.050   3
  -1  -7  13 12361.4 377.862   1
  -1  -7  13 11449.8 352.973   3
  -1  -7  12 21342.9 476.449   1
   1  -7 -12 20948.3 624.503   3
  -1  -7  12 20314.1 441.576   3
  -1  -7  11 17048.3 411.829   1
  -1  -7  11 16907.9 378.064   3
   1  -7 -11 17318.3 538.497   3
  -1  -7  10 37487.8 582.246   1
  -1  -7  10 40010.5 561.801   3
   1  -7 -10 38639.6 770.530   3
   1  -7  -9 12739.0 425.735   3
  -1  -7   9 13549.2 305.989   3
  -1  -7   9 13997.2 342.427   1
   1  -7  -9 13380.0 450.492   2
  -1   7   9 12585.4 440.684   3
   1   7  -8 22116.6 407.222   1
  -1   7   8 23693.5 571.002   3
   1  -7  -8 22389.2 556.977   2
  -1  -7   8 20827.3 404.916   1
   1  -7  -8 22637.0 545.197   3
  -1  -7   7 19320.4 376.405   1
  -1   7   7 19273.5 495.045   3
   1   7  -7 19062.4 373.907   1
   1  -7  -7 18568.4 471.548   3
   1   7  -6 1745.18 113.900   1
   1  -7  -6 1684.69 145.024   3
  -1   7   6 1815.69 148.759   3
  -1  -7   6 1576.38 112.580   1
   1  -7  -5 10032.4 320.277   3
  -1   7   5 9749.31 314.702   3
   1   7  -5 8810.53 246.658   1
  -1  -7   5 8737.77 242.395   1
  -1   7   4 111147. 999.753   3
   1  -7  -4 108998. 976.814   3
  -1  -7   4 105202. 839.610   1
   1   7  -4 105941. 852.178   1
   1   7  -3 89382.7 780.504   1
   1  -7  -3 88210.9 825.371   3
  -1  -7   3 90000.1 774.552   1
  -1   7   3 89652.3 848.294   3
   1   7  -2 28641.3 447.987   1
   1  -7  -2 28609.2 439.727   3
  -1  -7   2 28145.1 394.462   3
  -1   7   2 28340.2 450.369   3
  -1   7   1 32968.9 454.919   3
   1   7  -1 34488.8 512.827   1
   1  -7  -1 33984.2 448.750   3
   1   7   0 206.292 57.2578   3
   1  -7   0 89.2979 37.1860   3
  -1  -7   0 192.605 54.9718   3
   1   7   0 85.6489 48.8371   1
  -1   7   0 110.379 38.5972   3
   1   7   1 24549.7 429.415   3
  -1  -7  -1 24788.2 424.505   3
   1  -7   1 25507.0 323.715   3
  -1   7  -1 25123.8 336.339   3
  -1   7  -1 24324.2 378.741   1
   1   7   2 25206.0 458.453   3
   1  -7   2 24907.9 290.077   3
  -1  -7  -2 24688.0 445.074   3
  -1   7  -2 23034.2 356.266   1
  -1   7  -3 93.2840 35.5806   1
   1  -7   3 10.8164 19.9652   3
   1   7   3-47.6511 55.2312   3
  -1  -7  -3-58.8676 65.1205   3
   1   7   4 1380.19 127.535   3
  -1  -7  -4 1395.36 129.015   3
   1  -7   4 1130.76 55.9314   3
  -1   7  -4 1510.05 88.0871   1
  -1   7  -5 142.036 37.1595   1
   1   7   5 193.237 68.9413   3
   1  -7   5 253.836 44.6794   1
  -1  -7  -5 165.047 64.0430   3
  -1   7  -6 1242.37 80.1493   1
  -1  -7  -6 1181.77 124.195   3
   1   7   6 1234.21 127.211   3
   1  -7   6 1273.63 60.6818   3
   1  -7   6 1214.31 78.7721   1
   1   7   7 47142.2 805.577   3
   1  -7   7 44758.9 392.116   3
  -1  -7  -7 45748.2 770.947   3
  -1  -7  -7 47043.7 793.520   2
   1  -7   7 48935.8 511.015   1
   1   7   8 38812.6 760.811   3
   1  -7   8 37599.2 401.326   3
   1  -7   8 36996.0 455.407   1
  -1  -7  -8 37798.3 756.134   2
  -1  -7  -8 38184.3 736.570   3
   1  -7   9 8305.82 207.238   3
  -1  -7  -9 8243.26 357.576   3
   1  -7   9 9255.77 239.329   1
   1  -7  10 45123.6 526.052   3
   1  -7  10 43296.8 547.122   1
  -1  -7 -10 43996.6 859.843   3
  -1  -7 -11 11796.4 468.382   3
   1  -7  11 11880.5 292.382   3
   1  -7  11 11695.5 299.011   1
   1  -7  12-13.8558 48.1864   1
  -1  -7 -12 88.6921 90.2933   3
   1  -7  12 65.8491 39.7334   3
   1  -7  13 6018.37 239.578   1
  -1  -7 -13 5638.53 352.228   3
   1  -7  13 5478.96 229.180   3
   1  -7  13 5554.21 359.529   2
   1  -7  14 13750.9 372.863   1
   1  -7  14 14285.7 587.899   2
  -1  -7 -14 15146.7 586.512   3
  -1  -7 -15 1240.63 194.629   3
   1  -7  15 1248.16 187.908   2
   1  -7  15 1317.92 125.413   1
   1  -7  16 5125.27 387.136   2
  -1  -7 -16 5259.93 380.982   3
   1  -7  17 3157.57 314.322   2
  -1  -7 -17 3923.62 343.354   3
   1  -7  18 2477.70 295.551   2
  -1  -7 -18 2564.76 290.370   3
  -1  -7 -19 935.384 203.395   3
  -1  -9  19 2709.23 313.906   2
   1  -9 -19 2850.82 327.858   3
  -1  -9  18 969.436 200.453   2
   1  -9 -18 1073.22 201.567   3
   1  -9 -17 2654.25 290.689   3
  -1  -9  17 2334.16 275.720   2
   1  -9 -16 6622.98 428.485   3
  -1  -9  16 6250.23 415.081   2
  -1  -9  15 824.196 165.178   2
  -1  -9  15 1053.41 122.337   1
   1  -9 -15 805.146 161.387   3
  -1  -9  14 1342.74 134.549   1
   1  -9 -14 1444.87 191.363   3
  -1  -9  13 822.418 106.933   1
  -1  -9  13 699.209 86.1121   3
   1  -9 -13 790.950 147.587   3
   1  -9 -12 11002.5 471.005   3
  -1  -9  12 11184.8 352.075   1
  -1  -9  12 10532.8 304.455   3
  -1  -9  11 36310.6 609.044   1
   1  -9 -11 36107.1 814.673   3
  -1  -9  11 35699.8 531.935   3
   1  -9 -10 21616.0 606.065   3
  -1  -9  10 24086.1 489.101   1
  -1  -9  10 22540.6 403.481   3
   1   9  -9 1433.28 115.602   1
  -1  -9   9 1507.52 123.150   1
   1  -9  -9 1466.36 162.949   3
   1  -9  -8 2762.97 211.029   3
   1   9  -8 2689.12 158.632   1
  -1  -9   8 2926.28 166.841   1
   1  -9  -7 21358.9 537.697   3
  -1  -9   7 21080.6 426.268   1
   1   9  -7 20757.6 424.049   1
  -1   9   7 21849.8 566.341   3
  -1  -9   6 157.971 59.1233   1
   1  -9  -6 65.5716 55.5142   3
  -1   9   6 101.019 55.2206   3
   1   9  -6 122.870 53.1898   1
  -1   9   5 150.135 66.4159   3
   1  -9  -5 149.968 64.3350   3
   1   9  -5 173.896 55.8177   1
  -1  -9   5 277.716 62.9782   1
  -1  -9   4 51389.6 571.366   3
   1   9  -4 51339.7 669.315   1
   1  -9  -4 51113.3 733.966   3
  -1   9   4 51730.0 752.427   3
  -1  -9   3 13946.0 306.238   3
   1   9  -3 11690.8 324.718   1
   1  -9  -3 14085.2 369.691   3
  -1   9   3 14144.4 380.661   3
   1   9  -2 167661. 1249.83   1
   1  -9  -2 161477. 1170.84   3
  -1  -9   2 161738. 1076.62   3
  -1   9   2 162681. 1209.30   3
  -1  -9   1 20078.0 394.722   3
   1  -9  -1 19503.0 386.873   3
   1   9  -1 16125.1 398.865   1
  -1   9   1 19699.2 399.211   3
   1   9   0 4982.68 226.395   1
   1  -9   0 4839.59 180.484   3
  -1   9   0 4917.89 186.153   3
  -1  -9   0 5269.03 211.564   3
  -1   9  -1 41664.1 586.707   1
  -1  -9  -1 45394.7 643.441   3
   1   9   1 45186.7 655.451   3
   1  -9   1 45895.6 515.743   3
  -1  -9  -2 55130.9 743.628   3
   1   9   2 56163.1 770.104   3
  -1   9  -2 59233.7 676.549   1
   1  -9   3 2240.54 101.337   3
   1   9   3 1991.65 154.095   3
  -1  -9  -3 1897.58 153.868   3
  -1   9  -3 1887.05 115.767   1
   1   9   4 12815.8 399.686   3
  -1  -9  -4 12546.0 381.756   3
  -1   9  -4 13076.0 297.733   1
   1  -9   4 12809.8 218.159   3
  -1   9  -5 7273.22 216.240   1
   1  -9   5 7698.91 157.201   3
  -1  -9  -5 7853.95 323.103   3
   1   9   5 8049.97 332.640   3
   1  -9   6 1760.83 73.6783   3
  -1  -9  -6 1742.66 157.867   3
  -1   9  -6 2147.69 116.599   1
   1   9   6 1913.28 172.726   3
  -1   9  -7 36830.5 472.002   1
   1  -9   7 37258.7 486.164   1
  -1  -9  -7 36968.3 746.260   3
   1  -9   7 34810.6 320.308   3
   1  -9   8 5480.28 137.010   3
   1  -9   8 6743.66 210.775   1
  -1  -9  -8 5708.53 303.510   3
   1  -9   9 1489.04 78.4642   3
  -1  -9  -9 1443.89 163.090   3
   1  -9   9 1976.40 117.317   1
   1  -9  10 22405.9 324.237   3
  -1  -9 -10 24491.1 670.184   3
   1  -9  10 26460.6 429.218   1
   1  -9  11 28.0738 44.6810   1
  -1  -9 -11-34.6387 97.5754   3
   1  -9  11 82.6823 36.1630   3
  -1  -9 -12 1589.47 196.882   3
   1  -9  12 1625.91 112.421   1
   1  -9  12 1601.10 102.373   3
   1  -9  13 8449.69 266.940   1
  -1  -9 -13 8776.65 451.537   3
  -1  -9 -14 1724.84 213.658   3
  -1  -9 -15 1474.69 219.414   3
   1  -9  15 1347.13 197.939   2
   1  -9  16 5226.35 397.197   2
  -1  -9 -16 5491.47 400.130   3
   1  -9  17 45.3392 93.0003   2
  -1  -9 -17 56.0040 109.484   3
  -1  -9 -18 1730.10 256.955   3
   1  -9  18 1580.37 248.555   2
  -1 -11  18 242.337 126.323   2
  -1 -11  17 498.275 157.049   2
   1 -11 -17 276.824 143.116   3
  -1 -11  16 8568.73 495.543   2
   1 -11 -16 8973.31 514.316   3
   1 -11 -15 1464.62 217.032   3
   1 -11 -14 1325.23 209.810   3
  -1 -11  14 773.040 107.127   1
   1 -11 -13 6163.25 386.400   3
  -1 -11  13 6229.88 274.343   1
  -1 -11  12 6103.37 216.943   3
   1 -11 -12 6323.06 376.465   3
  -1 -11  12 6654.45 280.307   1
  -1 -11  11 2080.72 158.244   1
   1 -11 -11 1808.65 203.467   3
  -1 -11  11 1878.25 118.038   3
   1  11 -10 171.213 60.9628   1
  -1 -11  10 133.648 43.7014   3
   1 -11 -10 113.957 75.7927   3
  -1 -11  10 210.974 63.4982   1
   1  11  -9 5927.37 249.860   1
   1 -11  -9 5994.29 332.850   3
  -1 -11   9 6293.06 258.638   1
   1 -11  -8 27735.9 677.487   3
   1  11  -8 26075.7 521.578   1
  -1 -11   8 24569.4 506.915   1
  -1 -11   7 19643.8 450.682   1
   1 -11  -7 18281.9 530.758   3
   1  11  -7 18639.1 444.341   1
  -1 -11   6 1183.16 96.7306   3
  -1  11   6 1188.43 138.501   3
   1  11  -6 932.773 103.383   1
   1 -11  -6 1029.34 124.185   3
  -1  11   5 7875.74 340.233   3
  -1 -11   5 7790.22 240.247   3
   1 -11  -5 7893.73 325.647   3
   1  11  -5 8149.98 299.552   1
  -1 -11   4 25989.0 452.019   3
  -1  11   4 26033.1 591.261   3
   1  11  -4 24806.4 521.931   1
   1 -11  -4 25491.8 564.263   3
  -1 -11   3 1641.65 118.365   3
  -1  11   3 1800.01 151.200   3
   1 -11  -3 1760.22 143.764   3
   1  11  -3 1523.89 132.382   1
  -1  11   2 41633.1 679.318   3
   1 -11  -2 41377.3 651.765   3
  -1 -11   2 41978.8 610.397   3
   1 -11  -1 120228. 1066.49   3
  -1 -11   1 120261. 1069.73   3
   1  11  -1 125490. 1239.29   1
  -1  11   1 118032. 1100.54   3
  -1 -11   0-178.089 84.3088   3
  -1  11   0-52.8184 63.8267   3
   1 -11   0-28.8740 57.4873   3
   1  11   0 35.1693 64.2168   1
  -1 -11  -1 11561.0 359.036   3
   1 -11   1 11821.2 301.772   3
   1  11   1 11495.6 370.186   3
  -1  11  -1 14060.4 389.684   1
  -1 -11  -2 38965.4 675.496   3
   1  11   2 39573.3 704.004   3
  -1  11  -2 35495.2 598.347   1
   1 -11   2 37813.2 502.428   3
  -1  11  -3 2148.65 144.612   1
   1  11   3 1883.99 160.835   3
   1 -11   3 2099.93 112.002   3
  -1 -11  -3 1910.19 158.593   3
  -1 -11  -4 10273.9 381.189   3
  -1  11  -4 9739.36 294.958   1
   1 -11   4 11204.3 238.542   3
   1  11   4 10775.0 395.507   3
  -1  11  -5 24907.9 462.183   1
   1 -11   5 23997.6 325.804   3
  -1 -11  -5 23673.5 594.947   3
   1  11   5 23599.9 608.044   3
   1 -11   6 512.693 49.8266   3
  -1 -11  -6 598.630 109.639   3
  -1  11  -6 509.329 69.5791   1
  -1  11  -7 21255.9 403.752   1
  -1 -11  -7 21091.0 596.469   3
   1 -11   7 18495.9 242.779   3
  -1 -11  -8 34090.1 781.937   3
  -1  11  -8 32897.0 490.945   1
  -1 -11  -9 2823.07 248.469   3
   1 -11   9 1896.82 71.4275   3
   1 -11   9 2211.69 76.2780   3
  -1 -11 -10 7038.18 385.014   3
   1 -11  10 6630.53 228.899   1
  -1 -11 -11 2010.81 219.406   3
   1 -11  11 1295.85 63.6933   3
   1 -11  11 2020.73 133.262   1
  -1 -11 -12 2185.04 240.063   3
   1 -11  12 2715.50 151.277   1
  -1 -11 -13 6472.54 402.094   3
  -1 -11 -14 3122.51 297.053   3
  -1 -11 -15 48.0487 109.367   3
  -1 -11 -16 12262.6 610.420   3
   1 -11  16 10897.1 587.923   2
   1 -11  17 276.922 133.646   2
  -1 -11 -17 414.794 166.016   3
  -1 -13  18 461.107 165.936   2
   1 -13 -16 1244.59 220.974   3
   1 -13 -15 385.889 145.962   3
   1 -13 -14 7711.91 468.242   3
   1 -13 -13 3064.45 287.649   3
  -1 -13  13 2452.93 184.174   1
   1 -13 -12 2447.93 252.181   3
  -1 -13  12 2825.06 195.122   1
  -1 -13  11 3219.43 202.280   1
   1 -13 -11 3797.33 298.869   3
  -1 -13  10 3018.62 153.524   3
   1  13 -10 3231.19 205.530   1
  -1 -13  10 4249.77 237.329   1
   1 -13 -10 3026.91 265.029   3
   1 -13  -9 878.637 149.083   3
   1  13  -9 1037.51 122.887   1
  -1 -13   9 1004.93 89.4053   3
  -1 -13   8 5158.14 199.786   3
   1 -13  -8 5109.92 314.918   3
   1  13  -8 5325.07 258.781   1
   1  13  -7 3719.72 218.141   1
   1 -13  -7 3837.91 262.031   3
  -1 -13   7 4132.70 181.895   3
   1 -13  -6 96.4542 71.0994   3
  -1 -13   6 185.978 56.9536   3
   1  13  -6 286.385 75.9976   1
   1  13  -5 6922.76 301.614   1
  -1 -13   5 7865.24 263.944   3
   1 -13  -5 7750.35 347.009   3
   1  13  -4 9414.36 359.838   1
  -1  13   4 7982.84 357.581   3
   1 -13  -4 8557.30 352.320   3
  -1 -13   4 8465.89 283.643   3
  -1  13   3 7.31008 60.4365   3
   1  13  -3-36.1129 55.1555   1
   1 -13  -3-2.32768 67.3859   3
  -1 -13   3 59.7916 52.4866   3
   1 -13  -2 40609.6 703.145   3
   1  13  -2 41798.1 778.558   1
  -1 -13   2 40132.9 656.611   3
  -1  13   2 41164.0 742.671   3
   1  13  -1 25389.4 618.535   1
  -1  13   1 27919.2 584.856   3
  -1 -13   1 27851.7 567.028   3
   1 -13  -1 27487.3 556.880   3
   1 -13   0 2779.25 175.016   3
   1  13   0 2545.98 198.102   1
  -1 -13   0 3017.44 195.902   3
  -1  13   0 2384.45 188.086   1
  -1  13  -1 17897.7 490.626   1
   1  13   1 18081.3 536.901   1
   1 -13   1 20113.5 437.500   3
  -1 -13  -1 18965.5 495.521   3
  -1 -13  -2 14791.4 455.609   3
   1  13   2 14418.2 470.720   3
  -1  13  -2 15722.8 452.648   1
   1 -13   2 14341.5 352.077   3
  -1 -13  -3 1117.61 138.821   3
   1  13   3 1031.26 129.624   3
  -1  13  -3 1044.83 112.100   1
   1 -13   3 1126.30 93.6111   3
   1 -13   4 27881.5 432.778   3
  -1  13  -4 28320.3 569.383   1
  -1 -13  -4 25967.1 651.087   3
   1 -13   5 23718.5 367.972   3
  -1  13  -5 20292.2 470.554   1
  -1 -13  -5 23494.2 625.523   3
  -1  13  -6 217.877 57.0875   1
   1 -13   6 174.104 38.6563   3
  -1 -13  -6 221.774 101.422   3
  -1 -13  -7 5205.24 320.353   3
  -1  13  -7 4955.09 222.409   1
   1 -13   7 4695.52 133.393   3
  -1 -13  -8 1390.44 183.170   3
  -1  13  -8 1219.72 109.988   1
   1 -13   8 826.227 45.5741   3
  -1 -13  -9 1641.66 207.360   3
  -1  13  -9 1608.37 124.364   1
  -1 -13 -10 14033.0 566.955   3
  -1 -13 -11 1186.36 192.852   3
  -1 -13 -12-17.8937 91.8022   3
  -1 -13 -13 6277.91 417.746   3
  -1 -13 -14 87.8770 128.319   3
  -1 -13 -15 215.520 121.298   3
   1 -15 -15 507.423 153.783   3
   1 -15 -14 1253.69 217.633   3
   1 -15 -13 5306.43 392.079   3
   1 -15 -12 984.351 175.355   3
   1 -15 -11 291.999 131.226   3
  -1 -15  10 13218.0 307.565   3
   1 -15 -10 14317.6 579.049   3
  -1 -15   9 267.352 64.5652   3
   1  15  -9 266.597 83.6469   1
   1 -15  -9 261.913 114.753   3
   1  15  -8 7896.86 341.140   1
  -1 -15   8 9519.31 284.038   3
   1 -15  -8 9920.61 462.941   3
   1 -15  -7 4990.41 321.934   3
  -1 -15   7 4884.16 215.229   3
   1  15  -7 5038.01 283.735   1
   1 -15  -6 128.821 84.7527   3
   1  15  -6 81.9298 71.8802   1
  -1 -15   6 91.3896 56.9179   3
  -1 -15   5 5947.11 254.718   3
   1 -15  -5 6446.12 341.072   3
   1  15  -5 6020.35 313.763   1
   1  15  -4 2534.24 209.561   1
  -1 -15   4 3019.12 189.869   3
   1 -15  -4 3085.15 230.746   3
   1 -15  -3 5419.69 292.352   3
   1  15  -3 5816.71 316.605   1
  -1 -15   3 5368.98 255.386   3
  -1 -15   2 965.865 114.622   3
  -1  15   2 1105.77 140.907   3
   1 -15  -2 977.528 127.117   3
  -1 -15   1 9686.84 363.365   3
   1 -15  -1 9944.38 367.235   3
  -1  15   1 9353.95 375.357   3
  -1  15   0 10043.2 414.531   1
   1 -15   0 9565.79 344.133   3
  -1 -15   0 9163.81 360.789   3
  -1 -15  -1 567.165 106.534   3
  -1  15  -1 995.527 140.453   1
   1 -15   1 680.970 104.574   3
   1 -15   2 3884.90 206.022   3
  -1  15  -2 3645.11 244.839   1
  -1 -15  -2 3820.55 252.160   3
   1 -15   3 3366.40 180.925   3
  -1  15  -3 2888.03 210.491   1
  -1 -15  -3 2879.41 225.880   3
  -1  15  -4 3935.36 239.341   1
  -1 -15  -4 4582.91 296.416   3
   1 -15   4 4911.76 208.453   3
  -1 -15  -5 7793.43 385.320   3
   1 -15   5 8357.65 247.737   3
  -1  15  -5 7814.25 328.783   1
   1 -15   6 807.540 75.2198   3
  -1 -15  -6 907.069 154.154   3
  -1  15  -6 734.356 107.239   1
   1 -15   7 10798.2 218.684   3
  -1  15  -7 11871.0 383.811   1
  -1 -15  -7 12340.6 508.006   3
  -1 -15  -8 54.9901 87.5851   3
  -1 -15  -9 6427.83 395.034   3
  -1 -15 -10 8753.15 468.918   3
  -1 -15 -11 3875.06 327.203   3
  -1 -15 -12 138.824 101.191   3
  -1 -15 -13 5973.50 419.823   3
  -1 -15 -14 259.766 138.935   3
   1 -17 -13 5100.85 401.715   3
   1 -17 -12 192.827 119.966   3
   1 -17 -11 2640.65 284.395   3
   1 -17 -10 5364.19 383.928   3
   1 -17  -9 1838.82 228.686   3
   1 -17  -8 2852.40 273.390   3
  -1 -17   8 2553.04 160.272   3
   1 -17  -7 11856.7 512.990   3
  -1 -17   7 12416.7 360.758   3
   1 -17  -6 759.502 155.690   3
  -1 -17   6 692.682 103.085   3
  -1 -17   5 5063.04 254.430   3
   1 -17  -5 4977.39 319.386   3
   1 -17  -4 2685.63 235.212   3
  -1 -17   4 2749.40 195.936   3
   1 -17  -3 1793.60 192.391   3
  -1 -17   3 2027.79 176.114   3
   1 -17  -2 9951.64 404.211   3
  -1 -17   2 10118.7 384.352   3
   1 -17  -1 14945.6 478.857   3
  -1 -17   1 15178.6 487.723   3
   1 -17   0-180.187 84.0950   3
  -1 -17   0-97.3960 87.8212   3
   1 -17   1 2402.90 186.383   3
  -1 -17  -1 2269.93 212.639   3
   1 -17   2 5169.44 257.341   3
  -1 -17  -2 5000.36 307.823   3
   1 -17   3 292.034 75.1733   3
  -1 -17  -3 274.876 94.3954   3
  -1  17  -4 1475.51 174.867   1
  -1 -17  -4 1195.15 179.032   3
   1 -17   4 1245.70 122.720   3
   1 -17   5 4661.39 203.745   3
  -1  17  -5 4131.94 270.162   1
  -1 -17  -5 4249.86 306.366   3
  -1 -17  -6 6288.73 379.930   3
   1 -17   6 6043.68 206.526   3
  -1 -17  -7 11944.6 533.836   3
  -1 -17  -8 1657.53 215.847   3
  -1 -17  -9 107.683 107.361   3
  -1 -17 -10 8010.38 470.250   3
  -1 -17 -11 4272.80 370.318   3
  -1 -17 -12 313.393 139.695   3
   1 -19 -12 128.329 117.470   3
   1 -19 -11 3672.71 345.895   3
   1 -19 -10 4652.96 372.033   3
   1 -19  -9 819.138 172.257   3
   1 -19  -8 7664.85 454.865   3
   1 -19  -7 1217.70 196.955   3
   1 -19  -6 131.924 89.6417   3
  -1 -19   6 445.372 93.3551   3
  -1 -19   5 5773.67 285.705   3
   1 -19  -5 5917.58 367.240   3
  -1 -19   4 2231.15 188.682   3
   1 -19  -4 2249.91 230.174   3
  -1 -19   3-25.8969 76.8731   3
   1 -19  -3-106.326 100.266   3
   1 -19  -2 1592.91 182.915   3
  -1 -19   2 1657.58 174.540   3
   1 -19  -1 2109.66 205.793   3
  -1 -19   1 1972.16 201.675   3
  -1 -19   0 2263.69 215.021   3
   1 -19   0 2538.55 210.971   3
   1 -19   1 4250.21 262.867   3
  -1 -19  -1 3813.78 282.061   3
   1 -19   2 1971.11 171.657   3
  -1 -19  -2 2004.48 212.372   3
  -1 -19  -3-30.7802 93.0451   3
   1 -19   3 142.625 64.9401   3
  -1 -19  -4 2953.58 269.581   3
   1 -19   4 3099.68 197.658   3
  -1 -19  -5 2071.56 236.393   3
  -1 -19  -6 5.27970 101.452   3
  -1 -19  -7 3647.57 325.331   3
  -1 -19  -8 2497.83 277.551   3
  -1 -19  -9-22.9263 127.375   3
  -1 -19 -10 1065.50 199.644   3
  -1 -19 -11 1470.52 242.663   3
   1 -21 -10 193.926 130.292   3
   1 -21  -9 190.231 120.330   3
   1 -21  -8 2663.09 290.688   3
   1 -21  -7 4981.07 381.463   3
   1 -21  -6 29.4452 92.4380   3
   1 -21  -5 956.787 173.993   3
   1 -21  -4 2568.31 261.558   3
   1 -21  -3-148.097 114.354   3
  -1 -21   3-12.1954 85.0810   3
  -1 -21   2 3701.16 274.412   3
   1 -21  -2 3848.86 292.465   3
  -1 -21   1 3716.27 280.384   3
   1 -21  -1 3845.39 285.995   3
  -1 -21   0-141.124 106.909   3
   1 -21   0-65.2245 86.8720   3
   1 -21   1 4730.87 292.052   3
  -1 -21  -1 4311.01 319.489   3
  -1 -21  -2 2788.91 269.667   3
  -1 -21  -3-229.569 123.065   3
  -1 -21  -4 3344.01 301.583   3
  -1 -21  -5 3355.86 313.652   3
  -1 -21  -6 88.2535 99.5225   3
  -1 -21  -7 4944.26 388.734   3
  -1 -21  -8 1370.21 232.854   3
  -1 -21  -9 769.604 188.516   3
   1 -23  -7 1615.99 239.404   3
   1 -23  -6 77.7443 100.104   3
   1 -23  -5 2758.30 290.331   3
   1 -23  -4 4084.02 338.803   3
   1 -23  -3 15.6570 96.7232   3
   1 -23  -2 1125.25 183.922   3
   1 -23  -1 2123.75 228.536   3
  -1 -23   1 2329.09 238.593   3
  -1 -23   0 17.6211 87.5469   3
  -1 -23  -1 1313.98 204.155   3
  -1 -23  -2 3762.88 320.999   3
  -1 -23  -3-22.0400 97.0944   3
  -1 -23  -4 294.636 139.850   3
  -1 -23  -5 1490.13 226.119   3
  -1 -23  -6 294.600 130.817   3
  -1 -25  -3-159.196 123.694   3
  -1 -25  -4 1927.66 261.314   3
  -2   0  20 12461.0 529.170   1
  -2   0  19-45.5253 77.8257   1
  -2   0  18 15101.8 546.066   1
  -2   0  17 0.03475 68.1408   1
  -2   0  17-131.631 100.518   2
  -2   0  16 3745.60 285.954   2
  -2   0  15-130.536 97.4971   2
  -2   0  14 31237.1 749.480   2
  -2   0  13-40.4356 65.4144   3
  -2   0  13-51.1497 73.6819   2
  -2   0  12 469.729 89.4646   2
  -2   0  12 526.125 91.3364   3
  -2   0  11 0.47094 48.8580   3
  -2   0  11 22.0459 49.2010   2
  -2   0  10 7918.77 299.672   3
  -2   0  10 7680.72 298.651   2
  -2   0   9-24.1736 47.7063   3
  -2   0   9 7.21692 46.4265   2
  -2   0   8 31371.2 518.467   3
  -2   0   8 32488.5 523.309   2
  -2   0   7 66.1598 46.3439   3
  -2   0   7 163.159 50.9564   2
  -2   0   6 16560.3 329.079   3
   2   0  -6 16273.9 310.281   2
  -2   0   6 16638.1 311.633   2
   2   0  -5-14.8510 31.4745   2
  -2   0   5 30.2192 34.1822   3
  -2   0   5 44.3182 32.2329   2
  -2   0   4 17771.2 237.847   2
   2   0  -4 17280.0 237.692   2
  -2   0   3 64.0821 19.7203   2
   2   0  -3 55.8214 18.9121   2
   2   0   1 42.9974 21.4928   2
   2   0   2 179640. 745.704   3
   2   0   2 185659. 885.739   2
  -2   0  -2 178668. 741.000   3
  -2   0  -3 116.389 44.3300   3
   2   0   3 33.0474 32.4999   3
   2   0   3 163.145 63.3663   2
   2   0   4 124087. 770.380   3
  -2   0  -4 123781. 777.468   3
   2   0   4 125298. 929.883   2
  -2   0  -5 60.9752 34.7470   3
   2   0   5-49.0134 54.4063   2
   2   0   5 23.5454 32.1524   3
  -2   0  -6 478940. 1808.46   3
   2   0   6 479739. 2158.25   2
   2   0   6 471943. 1806.08   3
   2   0   7 105.709 60.2285   3
   2   0   7 105.597 69.5388   2
  -2   0  -7 11.2173 45.9178   3
  -2   0  -8 10502.1 308.973   3
   2   0   8 10749.4 313.710   3
   2   0   8 11114.9 374.344   2
  -2   0  -9 82.6054 66.1369   3
   2   0   9 99.0708 67.4916   3
   2   0   9 43.6862 73.3765   2
   2   0  10 38151.6 768.251   2
   2   0  10 37692.0 665.953   3
  -2   0 -10 39429.2 678.488   3
   2   0  11 25.4279 49.9922   3
  -2   0 -11 28.5659 60.9091   3
   2   0  11-51.6926 85.8134   2
   2   0  12 17975.5 507.544   3
  -2   0 -12 17881.8 508.461   3
   2   0  12 18090.1 586.539   2
  -2   0 -13-43.9090 67.0315   3
   2   0  13 5.77033 68.7388   2
   2   0  14 3911.16 305.082   2
  -2   0 -14 3714.36 259.257   3
   2   0  15-56.6809 90.6168   2
   2   0  16 2068.63 242.817   2
   2   0  17 179.705 134.139   2
   2   0  18 4209.09 376.053   2
   2   0  19 382.148 170.651   2
  -2  -2  21 4059.63 379.506   2
  -2   2  21 3720.46 312.410   1
  -2  -2  20 114.765 110.284   2
  -2  -2  20-3.14232 84.5329   1
  -2  -2  19 316.604 111.981   2
  -2  -2  19 240.827 89.4991   1
  -2  -2  18 227.233 101.099   1
  -2  -2  18 146.431 100.877   2
  -2  -2  17 17305.8 646.539   2
  -2  -2  17 17498.4 556.936   1
  -2  -2  16 1702.60 176.159   1
  -2  -2  16 1696.58 197.520   2
  -2  -2  15 21169.6 652.073   2
  -2  -2  15 20746.0 565.757   1
  -2  -2  14 1052.43 142.533   3
  -2  -2  14 989.784 126.728   1
  -2  -2  14 1052.07 146.924   2
  -2  -2  13 1148.34 151.297   2
  -2  -2  13 883.728 118.403   3
  -2  -2  13 925.908 114.680   1
  -2  -2  12 1732.81 171.165   2
  -2  -2  12 1581.98 147.837   3
  -2  -2  12 1540.40 139.320   1
   2  -2 -12 1448.39 150.365   3
  -2   2  12 1401.35 151.575   3
  -2  -2  11 9212.64 347.292   2
  -2  -2  11 8892.77 314.742   3
  -2  -2  11 9246.05 319.470   1
  -2   2  11 9070.54 354.681   3
   2  -2 -11 8892.95 347.676   2
   2  -2 -11 8815.38 345.217   3
   2  -2 -10 7470.50 304.431   3
  -2  -2  10 7696.37 305.418   2
  -2  -2  10 7347.66 270.838   3
  -2  -2  10 7341.23 273.735   1
  -2   2  10 7385.86 302.793   3
   2  -2 -10 7799.46 308.398   2
   2  -2  -9 52106.9 747.741   2
  -2  -2   9 53013.8 730.124   2
  -2   2   9 52896.9 772.051   3
  -2  -2   9 52148.3 687.093   1
   2  -2  -9 51143.7 736.371   3
  -2  -2   9 52937.9 686.713   3
  -2   2   8 2852.53 170.878   3
  -2  -2   8 3003.08 158.849   1
   2  -2  -8 2706.69 162.227   2
  -2  -2   8 2866.54 153.087   3
   2  -2  -8 2758.81 167.812   3
  -2  -2   8 2787.42 158.911   2
  -2  -2   7 33673.4 494.030   1
  -2  -2   7 34906.7 489.617   3
   2  -2  -7 34185.5 542.400   3
  -2   2   7 34519.0 540.800   3
   2  -2  -7 33699.3 518.725   2
  -2  -2   7 34857.4 501.895   2
   2  -2  -6 4568.27 177.701   2
  -2   2   6 4906.35 194.096   3
   2  -2  -6 4673.30 190.815   3
  -2  -2   6 4525.98 172.779   1
  -2   2   5 6933.98 210.377   3
   2  -2  -5 7170.06 198.327   2
  -2  -2   5 7215.31 201.390   1
   2  -2  -5 6730.28 213.139   3
   2   2  -4 21814.2 313.212   1
  -2   2   4 21521.0 338.369   3
   2  -2  -4 21411.9 337.205   3
  -2  -2   4 22288.3 314.091   1
   2   2  -3 206154. 898.153   1
  -2  -2   3 208259. 899.819   1
  -2   2   3 203942. 963.646   3
   2  -2  -3 209922. 929.651   3
   2   2  -2 1381.17 75.3849   1
  -2  -2   2 1311.56 73.4599   1
   2  -2  -2 1456.47 74.0456   3
  -2   2   2 1398.88 76.8749   3
   2   2   1 26210.9 332.708   3
  -2  -2  -1 26889.2 330.693   3
   2   2   2 93189.7 666.898   3
   2   2   2 94037.8 674.617   2
  -2  -2  -2 92192.9 663.686   3
  -2  -2  -2 93879.9 672.149   2
   2  -2   3 209553. 678.452   3
  -2  -2  -3 211011. 1132.04   2
   2   2   3 209909. 1076.45   3
   2   2   3 212460. 1120.12   2
  -2   2  -3 213616. 682.754   3
  -2  -2  -3 209328. 1070.27   3
   2   2   4 4240.67 167.615   3
  -2  -2  -4 4266.76 178.268   2
  -2  -2  -4 4167.71 164.565   3
  -2   2  -4 4245.67 116.532   3
   2  -2   4 4051.21 112.911   3
   2   2   4 4154.90 177.255   2
   2  -2   5 56824.1 487.565   3
   2   2   5 56118.4 645.639   3
  -2   2  -5 57906.3 487.989   3
  -2  -2  -5 56952.7 648.358   3
  -2  -2  -5 57000.0 699.309   2
   2  -2   6 1504.40 97.7705   3
   2   2   6 1604.09 140.702   2
  -2  -2  -6 1625.78 141.076   2
  -2   2  -6 1598.13 98.3976   3
   2   2   6 1668.33 125.550   3
  -2  -2  -6 1385.91 117.146   3
  -2  -2  -7 34035.8 618.854   2
   2  -2   7 34482.4 466.658   3
  -2  -2  -7 34910.1 578.513   3
   2  -2   7 35060.4 631.226   2
  -2   2  -7 35461.3 473.727   3
   2   2   7 35293.1 578.614   3
   2   2   7 34125.1 624.931   2
  -2  -2  -8 644.064 91.1118   2
   2   2   8 733.157 99.1334   3
   2  -2   8 710.095 78.5497   3
  -2   2  -8 682.734 79.6401   3
   2   2   8 889.612 121.052   2
  -2  -2  -8 751.587 97.4181   3
   2  -2   8 739.429 104.472   2
  -2  -2  -9 62468.1 858.317   3
   2   2   9 64013.1 956.124   2
   2  -2   9 62820.9 950.780   2
   2   2   9 64299.2 876.668   3
   2  -2   9 63941.0 745.705   3
  -2   2  -9 64668.7 751.002   3
   2   2  10 2597.61 209.101   2
   2  -2  10 2561.17 209.603   2
   2  -2  10 2204.62 152.347   3
   2   2  10 2538.65 192.129   3
  -2   2 -10 2474.19 160.356   3
  -2  -2 -10 2702.26 193.119   3
  -2  -2 -11 12330.9 424.516   3
   2   2  11 12564.1 469.693   2
   2  -2  11 12170.8 372.423   3
   2   2  11 11957.4 422.926   3
  -2   2 -11 12688.1 378.707   3
   2  -2  11 12436.7 467.967   2
   2  -2  12 1791.70 194.600   2
   2  -2  12 1977.53 166.549   3
  -2  -2 -12 2101.96 197.768   3
   2   2  12 1993.17 205.782   2
   2   2  13 220.372 104.710   2
   2  -2  13 87.3702 57.8306   3
  -2  -2 -13 198.146 90.8720   3
   2  -2  13 205.902 104.063   2
   2  -2  14 86.6927 69.7034   3
  -2  -2 -14 43.9208 82.3439   3
   2  -2  14 154.866 78.8167   2
   2   2  14 208.061 100.579   2
   2   2  15 15199.6 622.039   2
   2  -2  15 16085.0 633.810   2
  -2  -2 -15 15902.3 577.148   3
   2  -2  15 14867.2 445.612   1
   2  -2  16 184.253 113.044   2
  -2  -2 -16 73.6192 89.2322   3
   2  -2  16 96.3176 68.4605   1
   2  -2  17 10509.7 561.634   2
   2  -2  18 542.169 158.416   2
   2  -2  19 461.971 168.523   2
  -2  -4  21-47.6887 116.959   2
  -2  -4  20 6105.97 439.622   2
  -2  -4  19 1173.68 165.866   1
  -2  -4  19 1011.11 186.147   2
  -2  -4  18 12701.6 480.353   1
  -2  -4  18 13542.2 602.879   2
  -2  -4  17 918.860 142.657   1
  -2  -4  17 981.291 171.123   2
  -2  -4  16 531.860 138.163   2
  -2  -4  16 288.101 88.3323   1
  -2  -4  15 2732.65 244.423   2
   2  -4 -15 2602.82 243.596   3
  -2  -4  15 2591.00 200.989   1
  -2  -4  15 2742.62 219.403   3
  -2  -4  14 25685.3 607.909   3
  -2  -4  14 25797.4 693.636   2
   2  -4 -14 25759.2 700.514   3
  -2  -4  14 27187.5 611.385   1
   2  -4 -13 2374.31 211.357   3
  -2  -4  13 2725.81 230.067   2
  -2  -4  13 2332.19 177.209   3
  -2  -4  13 2377.13 174.464   1
  -2  -4  12 47206.2 738.783   1
  -2  -4  12 47350.1 846.809   2
  -2  -4  12 46586.4 733.250   3
   2  -4 -12 46423.2 868.086   3
   2  -4 -11 5616.60 290.805   2
  -2  -4  11 5375.32 240.957   3
  -2  -4  11 5450.39 244.100   1
   2  -4 -11 5192.65 283.312   3
  -2  -4  11 5458.62 275.883   2
  -2   4  11 5760.95 296.983   3
  -2  -4  10 121.910 46.7294   3
   2  -4 -10 128.446 65.3285   2
  -2   4  10 68.7322 62.6395   3
   2  -4 -10-8.87945 61.0345   3
  -2  -4  10 205.960 60.7028   1
  -2  -4  10 255.714 79.5318   2
   2  -4  -9 7220.06 300.105   3
  -2  -4   9 7165.36 251.074   1
   2  -4  -9 7427.55 299.554   2
  -2  -4   9 7644.88 250.591   3
  -2   4   9 7393.42 304.462   3
  -2  -4   8 54202.6 629.161   3
   2  -4  -8 53043.3 743.139   2
   2  -4  -8 51181.9 742.084   3
  -2   4   8 52382.8 757.283   3
  -2  -4   8 53569.3 656.030   1
   2  -4  -7 4305.26 199.849   2
  -2   4   7 4359.02 213.460   3
  -2  -4   7 4173.45 172.634   1
   2  -4  -7 4347.86 209.023   3
   2   4  -6 111297. 844.653   1
  -2   4   6 113738. 988.674   3
  -2  -4   6 111611. 843.733   1
   2  -4  -6 111100. 974.224   3
   2  -4  -5 838.112 99.0747   3
  -2  -4   5 1204.78 97.7280   1
   2   4  -5 1097.03 92.3789   1
  -2   4   5 849.339 97.1518   3
   2  -4  -4 32057.7 447.859   3
  -2   4   4 32532.9 459.645   3
   2   4  -4 33707.4 424.827   1
  -2  -4   4 34410.1 428.990   1
  -2   4   3 19926.3 331.888   3
   2   4  -3 17971.8 305.485   1
   2  -4  -3 19291.9 317.738   3
  -2  -4   3 17525.3 301.285   1
  -2   4   2 431080. 1374.57   3
   2   4  -2 435871. 1467.63   1
  -2  -4   2 434882. 1462.72   1
   2  -4  -2 433229. 1350.25   3
   2   4  -1 26498.7 368.130   1
  -2   4   1 26315.7 296.382   3
   2  -4  -1 26733.7 291.482   3
   2  -4   0 43791.7 318.710   3
  -2  -4   0 44217.5 473.853   3
  -2   4   0 43930.1 316.585   3
   2   4   1 3336.73 139.920   3
  -2  -4  -1 3333.04 141.079   3
  -2  -4  -2 94193.5 779.146   3
   2   4   2 93929.4 776.394   3
  -2  -4  -3 369.298 63.4012   2
  -2  -4  -3 447.122 70.3544   3
   2   4   3 461.394 72.2208   3
   2   4   4 66927.0 736.692   3
  -2  -4  -4 66010.3 729.006   3
  -2  -4  -5 34.0780 47.5372   3
   2  -4   5 90.1130 25.0610   1
  -2  -4  -5 34.2173 39.7583   2
   2   4   5 25.5891 47.6757   3
   2  -4   5 40.4438 21.3193   3
   2  -4   6 100504. 609.626   3
   2  -4   6 99271.3 571.043   1
  -2  -4  -6 98320.5 994.595   3
   2   4   6 102626. 1025.17   3
  -2  -4  -6 100688. 1048.75   2
   2  -4   7 13332.1 252.239   3
  -2  -4  -7 13377.2 386.605   3
   2   4   7 13530.0 392.058   3
   2  -4   7 13402.8 234.525   1
  -2  -4  -7 13255.5 398.271   2
  -2  -4  -8 101767. 1185.57   2
   2   4   8 100393. 1123.20   3
  -2  -4  -8 98361.2 1096.04   3
   2  -4   8 101046. 771.905   3
   2  -4   8 102610. 719.360   1
   2  -4   9 1908.73 124.422   3
   2  -4   9 2111.86 119.523   1
   2   4   9 1832.56 170.693   3
  -2  -4  -9 1963.71 183.654   2
  -2  -4  -9 1888.74 170.072   3
   2   4  10 569.539 105.561   3
   2  -4  10 456.622 95.9478   2
   2  -4  10 311.093 56.3408   1
  -2  -4 -10 369.026 84.0242   3
   2  -4  10 400.571 67.8537   3
  -2  -4 -11 9566.04 392.314   3
   2  -4  11 9667.65 305.638   3
   2  -4  11 9889.55 284.742   1
   2  -4  11 9585.40 425.443   2
   2  -4  12 16061.6 382.548   1
   2  -4  12 16399.5 422.276   3
   2  -4  12 16488.4 576.287   2
  -2  -4 -12 16372.0 536.395   3
   2  -4  13 4960.77 226.047   1
   2  -4  13 5144.25 251.910   3
  -2  -4 -13 5176.15 318.643   3
   2  -4  13 5030.98 341.542   2
  -2  -4 -14 10564.6 473.862   3
   2  -4  14 10668.1 346.706   1
   2  -4  14 10770.7 514.339   2
   2  -4  14 9903.05 372.277   3
  -2  -4 -15 1567.48 193.672   3
   2  -4  15 1534.35 148.011   1
   2  -4  15 1376.99 201.378   2
  -2  -4 -16-18.3306 107.721   3
   2  -4  16 144.939 93.6910   2
  -2  -4 -17 201.582 124.279   3
   2  -4  17 125.124 102.082   2
   2  -4  18 4160.95 374.049   2
  -2  -4 -18 4125.76 356.857   3
  -2  -6  21 2796.05 318.473   2
  -2  -6  20 46.4985 97.4360   2
  -2  -6  19 111.338 114.121   2
  -2  -6  18 445.105 116.995   1
  -2  -6  18 280.390 119.404   2
  -2  -6  17 7279.79 353.086   1
   2  -6 -17 6338.43 414.490   3
  -2  -6  17 6420.16 401.452   2
   2  -6 -16 44.1478 97.6422   3
  -2  -6  16 251.580 113.658   2
  -2  -6  16 206.863 83.5784   1
   2  -6 -15 9300.46 458.605   3
  -2  -6  15 9759.66 464.465   2
  -2  -6  15 8497.00 354.785   3
  -2  -6  15 9096.88 368.041   1
  -2  -6  14 7737.91 326.667   1
  -2  -6  14 7147.17 305.664   3
   2  -6 -14 7471.29 397.047   3
  -2  -6  14 7770.45 395.159   2
  -2  -6  13 38.0688 50.3200   3
  -2  -6  13 95.8653 82.1050   2
   2  -6 -13 171.717 87.5634   3
  -2  -6  13 210.820 79.2779   1
  -2  -6  12 6363.59 263.226   3
   2  -6 -12 6252.42 337.283   3
  -2  -6  12 6144.99 272.200   1
  -2  -6  11 32315.0 582.862   1
  -2  -6  11 31196.6 552.651   3
   2  -6 -11 29607.6 679.975   3
  -2   6  10 1261.43 142.048   3
  -2  -6  10 1164.52 101.327   3
   2  -6 -10 1125.18 132.218   2
  -2  -6  10 1123.85 108.768   1
   2  -6 -10 1145.47 137.617   3
   2  -6  -9 56316.7 861.238   3
  -2  -6   9 55213.4 704.584   1
  -2   6   9 58895.3 906.254   3
   2  -6  -9 56744.0 869.234   2
  -2   6   8 280.761 78.7323   3
   2   6  -8 148.190 45.0697   1
  -2  -6   8 177.732 54.8693   1
   2  -6  -8 220.495 65.9670   3
   2  -6  -8 166.565 62.9040   2
  -2   6   7 7209.48 289.392   3
   2   6  -7 6222.29 224.000   1
   2  -6  -7 6786.75 275.573   3
  -2  -6   7 5579.93 214.300   1
  -2  -6   6 7595.41 240.517   1
  -2   6   6 6676.01 268.154   3
   2   6  -6 7344.66 234.294   1
   2  -6  -6 6416.99 254.248   3
  -2   6   5 332785. 1727.34   3
  -2  -6   5 321338. 1491.62   1
   2  -6  -5 328142. 1676.70   3
   2   6  -5 323230. 1508.84   1
   2  -6  -4 401.370 74.5388   3
   2   6  -4 653.603 82.5837   1
  -2  -6   4 779.014 86.8564   1
  -2   6   4 455.109 80.1441   3
   2   6  -3 29852.2 451.480   1
  -2   6   3 31756.4 470.002   3
  -2  -6   3 29106.2 445.218   1
   2  -6  -3 30834.5 450.376   3
   2  -6  -2 4845.47 168.156   3
  -2   6   2 4983.56 173.147   3
  -2  -6   2 5229.84 190.607   1
   2   6  -2 5282.99 196.196   1
   2   6  -1 38251.5 522.066   1
   2  -6  -1 37310.0 414.701   3
  -2   6   1 37025.6 419.212   3
  -2  -6   1 36916.3 482.056   3
  -2   6   0 683.960 55.9297   3
   2   6   0 437.611 65.5538   1
  -2  -6   0 601.771 75.2923   3
   2  -6   0 648.760 54.3311   3
  -2   6  -1 8938.41 157.025   3
   2   6   1 9122.76 262.273   3
  -2  -6  -1 9162.72 258.663   3
   2  -6   1 9153.97 152.562   3
  -2  -6  -2 5253.07 207.520   3
   2   6   2 4800.16 201.402   3
  -2   6  -2 4659.95 129.747   1
   2  -6   2 4325.32 84.0076   3
   2   6   3 14813.8 370.495   3
  -2   6  -3 12869.8 198.586   1
  -2  -6  -3 14650.2 360.629   3
  -2  -6  -4 221.610 60.3542   3
  -2   6  -4 285.463 31.7924   1
   2   6   4 221.946 63.1349   3
  -2  -6  -5 69505.3 877.308   2
  -2  -6  -5 70646.7 862.159   3
   2   6   5 71858.3 882.069   3
   2  -6   5 67002.2 440.448   1
  -2  -6  -6 3162.29 204.319   3
  -2  -6  -6 3477.71 211.704   2
   2  -6   6 3616.75 108.766   1
   2  -6   6 2388.47 77.2730   3
   2   6   6 3162.10 201.662   3
   2  -6   7 259.774 32.7566   3
   2  -6   7 248.319 27.2143   1
  -2  -6  -7 289.142 74.8810   2
  -2  -6  -7 282.314 85.2729   3
   2   6   7 293.030 83.7096   3
  -2  -6  -8 49.9449 77.4987   3
   2  -6   8-18.7175 30.5418   3
   2  -6   8 159.991 42.9813   1
   2   6   8 89.1446 77.8952   3
  -2  -6  -8 100.302 75.7171   2
  -2  -6  -9 127463. 1386.04   3
   2  -6   9 129390. 830.097   3
   2  -6   9 128122. 818.534   1
   2  -6  10 4381.01 162.316   1
   2  -6  10 4096.73 161.952   3
  -2  -6 -10 4250.94 267.728   3
   2  -6  11 5846.03 199.978   1
   2  -6  11 5419.77 203.893   3
  -2  -6 -11 5066.23 308.019   3
  -2  -6 -12 12746.3 493.660   3
   2  -6  12 12511.7 310.934   1
   2  -6  12 13097.5 532.168   2
   2  -6  12 12931.6 338.853   3
  -2  -6 -13 6344.30 365.364   3
   2  -6  13 6341.40 386.061   2
   2  -6  13 6144.75 247.318   3
   2  -6  13 5915.53 223.944   1
  -2  -6 -14 2368.52 239.743   3
   2  -6  14 2118.64 244.562   2
   2  -6  14 2213.92 146.079   1
   2  -6  15 16022.0 660.390   2
  -2  -6 -15 16514.8 635.679   3
  -2  -6 -16 21.4872 99.7490   3
   2  -6  16-238.285 143.356   2
   2  -6  17 5367.71 418.351   2
  -2  -6 -17 5264.97 392.315   3
   2  -6  18 55.9862 102.022   2
  -2  -6 -18 179.263 125.290   3
  -2  -6 -19 208.140 124.512   3
  -2  -8  20 5709.81 438.812   2
  -2  -8  19 404.892 144.813   2
   2  -8 -18 11724.8 586.415   3
  -2  -8  18 10441.8 551.872   2
  -2  -8  17 931.485 178.358   2
  -2  -8  17 911.570 139.425   1
   2  -8 -17 821.946 181.768   3
  -2  -8  16 522.829 134.245   2
  -2  -8  16 239.291 74.3684   1
   2  -8 -16 449.725 139.372   3
  -2  -8  15 657.739 140.300   2
  -2  -8  15 645.782 114.952   1
   2  -8 -15 635.467 150.678   3
  -2  -8  14 2690.20 183.870   3
   2  -8 -14 2627.17 251.022   3
  -2  -8  14 2925.97 206.243   1
   2  -8 -13 255.821 104.095   3
  -2  -8  13 123.358 58.7111   1
  -2  -8  13 146.773 61.1624   3
  -2  -8  12 19720.1 449.215   3
   2  -8 -12 20807.1 624.346   3
  -2  -8  12 19908.1 486.039   1
   2  -8 -11 2039.28 205.463   3
  -2  -8  11 1846.37 135.542   3
  -2  -8  11 1679.08 144.880   1
  -2  -8  10 1187.91 120.936   1
   2  -8 -10 1942.71 192.270   3
   2  -8  -9 6511.66 313.326   3
  -2  -8   9 6272.37 252.014   1
   2   8  -9 6592.64 254.391   1
  -2   8   8 29681.7 648.789   3
   2   8  -8 29338.7 522.475   1
   2  -8  -8 28552.4 621.989   3
  -2  -8   8 30153.0 528.542   1
   2  -8  -7 10095.0 354.844   3
  -2   8   7 10775.0 374.640   3
   2   8  -7 9923.88 298.776   1
  -2  -8   7 9882.03 300.907   1
  -2  -8   6 16357.4 374.420   1
   2  -8  -6 16585.6 430.075   3
  -2   8   6 17238.0 448.243   3
   2   8  -6 16933.4 389.929   1
   2  -8  -5 1864.99 145.108   3
   2   8  -5 1640.13 123.742   1
  -2  -8   5 1480.85 118.428   1
  -2   8   5 1858.74 148.144   3
  -2  -8   4 38524.5 572.505   1
   2   8  -4 38614.7 583.292   1
  -2   8   4 40037.3 620.736   3
   2  -8  -4 39588.5 604.257   3
  -2   8   3 403.626 86.3739   3
   2  -8  -3 399.110 84.0209   3
   2   8  -3 298.148 80.2223   1
  -2  -8   3 419.410 89.7429   1
   2  -8  -2 120465. 931.710   3
   2   8  -2 115331. 1008.00   1
  -2   8   2 117795. 940.647   3
  -2  -8   2 120904. 941.068   3
  -2   8   1 32111.9 458.065   3
   2  -8  -1 32107.7 442.367   3
  -2  -8   1 32248.2 505.085   3
   2   8  -1 31378.2 536.565   1
   2  -8   0 110655. 754.287   3
  -2   8   0 109045. 774.457   3
  -2  -8   0 108904. 949.948   3
   2   8   1 112.217 49.8419   3
  -2  -8  -1 252.305 60.8271   3
   2  -8   1 266.228 41.3486   3
  -2   8  -1 230.580 34.8936   3
  -2   8  -2 138794. 892.152   1
  -2  -8  -2 139545. 1177.32   3
   2  -8   2 142411. 669.377   3
   2   8   2 138947. 1190.47   3
  -2   8  -3 6933.75 188.938   1
  -2  -8  -3 6119.39 256.258   3
   2   8   3 5935.91 262.991   3
   2  -8   3 5561.33 113.550   3
   2   8   4 17748.2 463.741   3
  -2   8  -4 16167.4 273.349   1
  -2  -8  -4 16993.8 448.501   3
   2   8   5 2730.85 194.450   3
  -2  -8  -5 2524.30 181.697   3
  -2   8  -5 2365.01 101.415   1
  -2   8  -6 80580.0 567.856   1
   2   8   6 85367.6 1093.40   3
  -2  -8  -6 83378.4 1078.03   2
  -2  -8  -6 82352.6 1059.23   3
  -2  -8  -7 5050.11 275.129   2
   2  -8   7 4840.40 146.103   1
  -2  -8  -7 5497.13 286.995   3
   2   8   7 5481.27 296.070   3
   2  -8   8 56299.1 505.942   1
  -2  -8  -8 55310.5 936.125   3
   2  -8   9 291.738 48.2136   1
   2  -8   9 546.303 51.5454   3
  -2  -8  -9 495.134 124.753   3
   2  -8  10 416.905 46.5768   1
   2  -8  10 474.281 52.8221   3
  -2  -8 -10 465.507 113.777   3
   2  -8  11 36.0720 43.3948   1
  -2  -8 -11 95.4269 80.9304   3
   2  -8  11 135.083 37.4171   3
   2  -8  12 14029.2 299.875   3
  -2  -8 -12 13921.6 546.694   3
   2  -8  12 13719.8 299.673   1
  -2  -8 -13 2507.31 247.732   3
   2  -8  13 2203.38 119.933   1
  -2  -8 -14 9476.73 483.607   3
   2  -8  14 9583.93 504.759   2
  -2  -8 -15 671.335 154.057   3
   2  -8  15 696.800 160.667   2
  -2  -8 -16 239.736 112.870   3
   2  -8  16 133.031 89.3918   2
   2  -8  17 109.049 103.601   2
  -2  -8 -17 265.963 138.042   3
   2  -8  18 3069.81 334.592   2
  -2  -8 -18 3011.81 328.815   3
  -2 -10  20 214.559 137.125   2
  -2 -10  19 248.790 137.695   2
  -2 -10  18-23.0062 89.8156   2
   2 -10 -18 191.267 128.377   3
  -2 -10  17 10662.7 542.474   2
   2 -10 -17 11926.5 593.472   3
   2 -10 -16 53.0928 101.086   3
  -2 -10  16 46.4354 93.2931   2
  -2 -10  16 67.1469 67.3813   1
  -2 -10  15 12637.8 425.468   1
   2 -10 -15 13541.4 586.325   3
  -2 -10  14 89.2255 70.5723   1
   2 -10 -14 166.626 105.997   3
  -2 -10  13 3376.20 213.892   1
   2 -10 -13 2887.39 264.493   3
  -2 -10  13 2765.40 171.231   3
   2 -10 -12 2078.69 220.708   3
  -2 -10  12 1938.53 166.022   1
  -2 -10  12 2097.98 146.207   3
  -2 -10  11 1248.64 134.261   1
  -2 -10  11 941.341 95.2918   3
   2 -10 -11 987.485 154.746   3
  -2 -10  10 5306.71 252.117   1
   2  10 -10 6020.93 264.174   1
   2 -10 -10 6124.05 333.145   3
  -2 -10   9 70918.5 875.275   1
   2  10  -9 72263.2 888.868   1
   2 -10  -9 70344.9 1068.81   3
   2 -10  -8 219.937 91.7435   3
   2  10  -8 110.112 61.5937   1
  -2 -10   8 123.806 67.8829   1
  -2  10   7 5306.74 287.301   3
   2 -10  -7 4977.91 272.079   3
  -2 -10   7 4396.65 216.271   1
   2  10  -7 4778.27 227.694   1
  -2  10   6 419.396 90.3746   3
   2  10  -6 599.621 85.3994   1
  -2 -10   6 577.528 88.2453   1
   2 -10  -6 413.567 82.3903   3
   2  10  -5 37346.5 634.304   1
  -2 -10   5 37022.2 619.148   1
  -2  10   5 37022.1 683.004   3
   2 -10  -5 36023.8 651.615   3
  -2 -10   4 12627.0 324.116   3
   2  10  -4 12013.3 362.459   1
   2 -10  -4 12704.3 368.665   3
  -2  10   4 12657.7 384.314   3
   2  10  -3 86407.0 980.070   1
  -2  10   3 85685.9 944.319   3
  -2 -10   3 83005.5 846.491   3
   2 -10  -3 86113.9 924.345   3
   2  10  -2 7376.67 291.287   1
   2 -10  -2 6556.63 242.315   3
  -2  10   2 6532.73 251.007   3
  -2 -10   2 6218.60 239.401   3
  -2  10   1 36340.3 552.453   3
   2 -10  -1 35513.4 522.719   3
  -2 -10   1 34959.9 578.297   3
   2  10  -1 34670.4 631.588   1
  -2 -10   0 403.932 92.1003   3
   2 -10   0 488.362 72.4968   3
  -2  10   0 407.164 76.0042   3
   2  10   1 86439.6 998.089   3
   2  10   1 85270.7 1028.53   1
   2 -10   1 84902.3 701.945   3
  -2 -10  -1 86510.5 964.549   3
  -2  10  -1 82774.4 852.361   1
  -2  10  -1 83696.1 736.153   3
   2  10   2 4612.34 246.618   3
  -2 -10  -2 4096.18 220.965   3
   2 -10   2 4582.42 150.821   3
  -2  10  -2 4094.37 184.705   1
  -2  10  -3 19551.3 382.681   1
  -2 -10  -3 19612.7 502.132   3
   2 -10   3 19532.0 272.677   3
   2  10   3 19598.4 511.726   3
   2  10   4 2288.62 185.268   3
  -2 -10  -4 2195.65 177.545   3
   2 -10   4 1823.81 73.6826   3
  -2  10  -4 1719.10 109.473   1
   2  10   5 16796.9 505.641   3
  -2 -10  -5 16503.0 485.876   3
  -2  10  -5 17179.5 325.379   1
  -2  10  -6 164.474 44.0909   1
  -2 -10  -6 75.3904 81.5613   3
  -2  10  -7 22157.6 340.796   1
  -2 -10  -7 22922.4 613.672   3
  -2 -10  -8 40.0634 70.8211   3
  -2 -10  -9 70862.7 1147.17   3
  -2 -10 -10 91.1893 92.6779   3
  -2 -10 -11 221.259 107.279   3
   2 -10  11 193.527 47.1371   1
   2 -10  12 643.783 72.5591   1
  -2 -10 -12 963.878 177.682   3
  -2 -10 -13 226.910 112.054   3
  -2 -10 -14 599.301 147.852   3
  -2 -10 -15 9723.19 530.443   3
   2 -10  15 9049.60 530.061   2
   2 -10  16 508.735 150.510   2
  -2 -10 -16 535.968 159.241   3
   2 -10  17 5757.26 450.209   2
  -2 -10 -17 6237.10 450.840   3
  -2 -12  19 68.0933 96.3786   2
  -2 -12  18 5985.17 429.115   2
  -2 -12  17 46.4418 91.8563   2
   2 -12 -17-3.02849 101.077   3
   2 -12 -16 60.7401 117.677   3
   2 -12 -15 544.312 157.952   3
  -2 -12  14 7495.69 328.495   1
   2 -12 -14 6869.44 426.366   3
   2 -12 -13-60.9940 105.133   3
  -2 -12  13-76.2540 70.3423   1
   2 -12 -12 9778.14 476.875   3
  -2 -12  12 9988.69 367.429   1
   2 -12 -11 3091.54 269.028   3
  -2 -12  11 2308.68 181.530   1
   2  12 -11 2822.68 194.930   1
   2  12 -10 1694.15 157.753   1
  -2 -12  10 1217.87 144.500   1
   2 -12 -10 1773.84 210.142   3
   2  12  -9 76.2713 66.2089   1
  -2 -12   9 53.8405 62.7417   1
   2 -12  -9 65.4658 81.5870   3
   2  12  -8 870.409 114.807   1
   2 -12  -8 799.962 132.719   3
  -2 -12   8 1235.90 133.312   1
   2  12  -7 724.791 103.651   1
  -2 -12   7 383.992 79.3327   1
   2 -12  -7 1058.63 144.506   3
   2  12  -6 28172.6 603.727   1
  -2 -12   6 28297.7 509.934   3
   2 -12  -6 28666.5 646.599   3
  -2  12   5 118.165 74.0642   3
  -2 -12   5 36.8922 47.6060   3
   2 -12  -5 44.3416 60.5883   3
   2  12  -5 95.3279 57.6874   1
  -2 -12   4 9930.88 314.263   3
   2  12  -4 9474.75 356.648   1
   2 -12  -4 10498.6 367.815   3
  -2  12   4 10399.3 379.162   3
  -2  12   3 2453.90 181.981   3
  -2 -12   3 2329.28 160.025   3
   2 -12  -3 2774.41 190.499   3
  -2 -12   2 32563.7 592.023   3
   2  12  -2 33855.6 682.269   1
  -2  12   2 31880.9 609.233   3
   2 -12  -2 32024.4 586.178   3
   2  12  -1 5143.70 271.214   1
  -2  12   1 5803.83 248.705   3
  -2 -12   1 5588.48 257.213   3
   2 -12  -1 5471.31 227.506   3
   2  12   0 60148.9 935.295   1
  -2  12   0 54699.7 718.499   3
   2 -12   0 56687.0 699.087   3
  -2 -12   0 55715.8 824.607   3
   2  12   1 379.002 90.5880   1
   2 -12   1 86.9143 47.9116   3
  -2  12  -1 323.825 69.8685   1
  -2 -12  -1 98.4288 59.2412   3
  -2  12  -2 19703.1 458.198   1
   2  12   2 18540.0 527.091   3
   2  12   2 19527.3 555.431   1
  -2 -12  -2 18543.3 503.761   3
   2 -12   2 20262.4 365.292   3
  -2  12  -3 433.434 80.3344   1
  -2 -12  -3 430.285 115.621   3
   2  12   3 249.731 98.1396   3
   2 -12   3 231.197 50.3840   3
  -2  12  -4 17286.6 396.446   1
  -2 -12  -4 17477.8 526.439   3
   2 -12   4 17405.5 274.408   3
  -2  12  -5 4476.67 195.171   1
  -2 -12  -5 3985.67 254.861   3
   2 -12   5 3712.08 106.884   3
  -2  12  -6 85144.0 807.512   1
  -2 -12  -6 87315.4 1223.35   3
  -2 -12  -7 138.754 96.3981   3
  -2  12  -7 1.75380 33.4482   1
  -2 -12  -8 1524.84 186.960   3
  -2  12  -8 1661.50 106.507   1
  -2 -12  -9 469.818 121.629   3
  -2 -12 -10 1268.93 192.497   3
  -2 -12 -11-10.0789 83.2780   3
  -2 -12 -12 22257.6 746.478   3
  -2 -12 -13 440.170 138.907   3
  -2 -12 -14 5474.08 398.902   3
  -2 -12 -15 1912.31 257.132   3
   2 -12  16 106.536 95.2343   2
  -2 -12 -16 269.036 129.463   3
  -2 -14  18 167.838 117.437   2
   2 -14 -16-85.6808 120.831   3
   2 -14 -15 10048.3 553.001   3
   2 -14 -14 42.8308 111.219   3
   2 -14 -13-21.1247 106.037   3
  -2 -14  13 22.0571 65.3294   1
  -2 -14  12 1245.38 146.409   1
   2 -14 -12 1625.11 218.373   3
  -2 -14  11 11815.9 412.657   1
   2 -14 -11 10343.4 489.795   3
  -2 -14  10 1232.59 113.043   3
   2 -14 -10 1277.82 179.259   3
   2  14 -10 1269.50 144.359   1
  -2 -14   9 21364.5 450.653   3
   2 -14  -9 22181.1 671.202   3
   2  14  -9 21268.5 558.160   1
  -2 -14   8 1062.29 112.632   3
   2  14  -8 857.094 120.931   1
   2 -14  -8 1015.63 158.051   3
  -2 -14   7 9991.67 321.069   3
   2  14  -7 9079.54 370.824   1
   2 -14  -7 10415.1 436.415   3
   2  14  -6 137.811 77.8615   1
  -2 -14   6 315.442 80.5483   3
   2 -14  -6 485.991 126.076   3
   2  14  -5 11044.5 418.757   1
   2 -14  -5 10826.8 414.184   3
  -2 -14   5 10907.3 347.968   3
   2 -14  -4 1236.03 152.120   3
  -2 -14   4 1295.72 140.049   3
   2  14  -4 1042.45 140.785   1
  -2  14   4 1080.33 144.932   3
   2  14  -3 24061.9 630.137   1
   2 -14  -3 24581.6 578.886   3
  -2 -14   3 23490.7 533.901   3
  -2  14   3 24135.5 601.723   3
  -2  14   2 292.273 68.8079   3
   2 -14  -2 609.737 109.026   3
   2  14  -2 834.003 135.532   1
  -2 -14   2 404.528 82.5219   3
   2 -14  -1 14263.7 407.537   3
  -2 -14   1 12952.7 417.059   3
  -2  14   1 13560.7 415.847   3
  -2  14   0 3040.61 218.968   1
   2 -14   0 3720.64 199.983   3
  -2 -14   0 3474.52 229.009   3
  -2  14  -1 155.870 53.7301   1
  -2 -14  -1 221.248 77.1490   3
   2 -14   1 124.511 50.8477   3
   2 -14   2 5660.11 218.370   3
  -2  14  -2 6966.27 309.133   1
  -2 -14  -2 5597.47 297.922   3
  -2 -14  -3 34954.0 762.102   3
   2 -14   3 35852.8 504.307   3
  -2  14  -3 32564.8 633.725   1
  -2  14  -4 116.597 61.2196   1
  -2 -14  -4 293.698 97.7147   3
   2 -14   4 382.055 60.5144   3
   2 -14   5 1399.57 80.4160   3
  -2  14  -5 1407.78 127.303   1
  -2 -14  -5 1192.80 154.681   3
  -2 -14  -6 1782.68 199.061   3
   2 -14   6 1304.28 55.4133   3
  -2  14  -6 2114.23 152.240   1
  -2  14  -7 491.885 76.4342   1
  -2 -14  -7 662.577 133.072   3
  -2  14  -8 119.147 49.2018   1
  -2 -14  -8 169.358 100.496   3
  -2 -14  -9 23645.9 741.288   3
  -2 -14 -10-63.1164 98.9768   3
  -2 -14 -11 4871.04 359.680   3
  -2 -14 -12 552.073 158.729   3
  -2 -14 -13 310.563 132.783   3
  -2 -14 -14 67.4257 110.246   3
   2 -16 -14 3172.93 321.712   3
   2 -16 -13 2.61562 112.701   3
   2 -16 -12 11511.1 562.486   3
   2 -16 -11 1302.34 213.146   3
   2 -16 -10 533.144 144.050   3
  -2 -16   9 100.264 66.7849   3
   2 -16  -9 195.172 106.356   3
  -2 -16   8 10252.4 336.255   3
   2 -16  -8 10306.2 475.070   3
  -2 -16   7 243.230 74.3417   3
   2 -16  -7 151.206 93.4631   3
  -2 -16   6 20708.8 501.415   3
   2 -16  -6 20568.2 626.870   3
  -2 -16   5 790.618 113.008   3
   2 -16  -5 869.841 139.109   3
  -2 -16   4 36.7562 60.1141   3
   2 -16  -4-58.9791 82.2742   3
  -2 -16   3 438.753 100.159   3
   2 -16  -3 264.494 81.9164   3
   2 -16  -2 20722.2 547.948   3
  -2 -16   2 20775.0 553.958   3
  -2  16   2 19661.2 567.697   3
  -2 -16   1 3508.70 236.581   3
  -2  16   1 3811.71 243.859   3
   2 -16  -1 3615.08 224.640   3
  -2 -16   0 15901.1 510.986   3
   2 -16   0 16777.3 459.144   3
   2 -16   1 4276.67 226.841   3
  -2  16  -1 4635.19 289.006   1
  -2 -16  -1 3821.21 263.933   3
   2 -16   2 4600.96 221.343   3
  -2  16  -2 4796.48 283.028   1
  -2 -16  -2 4242.15 283.291   3
   2 -16   3 2179.86 145.941   3
  -2 -16  -3 2205.21 220.254   3
  -2  16  -3 1246.68 140.539   1
   2 -16   4 1340.49 105.563   3
  -2  16  -4 1247.54 140.163   1
  -2 -16  -4 1328.05 171.937   3
   2 -16   5 2475.29 119.959   3
  -2  16  -5 2604.22 193.651   1
  -2 -16  -5 2299.08 224.199   3
  -2 -16  -6 19325.9 649.569   3
   2 -16   6 15578.8 225.150   3
  -2  16  -6 17654.1 470.741   1
  -2 -16  -7 96.3739 81.6695   3
  -2 -16  -8 11507.3 529.083   3
  -2 -16  -9 1405.57 211.662   3
  -2 -16 -10 2000.01 246.588   3
  -2 -16 -11 199.356 106.993   3
  -2 -16 -12 11411.2 587.996   3
  -2 -16 -13 166.622 118.617   3
   2 -18 -13 658.306 179.388   3
   2 -18 -12 188.490 116.762   3
   2 -18 -11 5170.90 390.758   3
   2 -18 -10 138.943 110.007   3
   2 -18  -9 16508.8 645.125   3
  -2 -18   8-89.6019 77.1957   3
   2 -18  -8 58.6476 94.7046   3
  -2 -18   7 875.176 119.959   3
   2 -18  -7 914.518 161.181   3
  -2 -18   6 38.8480 73.4584   3
   2 -18  -6 100.750 97.3225   3
  -2 -18   5 6785.61 316.333   3
   2 -18  -5 6239.56 354.090   3
   2 -18  -4 921.615 139.646   3
  -2 -18   4 1171.99 143.631   3
   2 -18  -3 8794.88 400.060   3
  -2 -18   3 8525.17 375.583   3
   2 -18  -2 216.036 85.8227   3
  -2 -18   2 202.706 90.4915   3
   2 -18  -1 10871.7 412.499   3
  -2 -18   1 9730.01 416.981   3
  -2 -18   0 228.599 101.308   3
   2 -18   0 248.049 90.3652   3
  -2 -18  -1 1954.26 205.730   3
   2 -18   1 2220.83 177.698   3
  -2 -18  -2 1841.45 202.465   3
   2 -18   2 1902.90 153.178   3
   2 -18   3 6794.85 265.189   3
  -2 -18  -3 6369.47 374.593   3
   2 -18   4 61.1918 50.3490   3
  -2 -18  -4 3.88276 88.1306   3
  -2 -18  -5 3306.18 282.613   3
  -2 -18  -6 885.940 172.758   3
  -2 -18  -7-110.672 119.485   3
  -2 -18  -8 903.166 178.392   3
  -2 -18  -9 10099.9 539.908   3
  -2 -18 -10 12.8258 111.272   3
  -2 -18 -11 3472.06 337.023   3
   2 -20 -11 67.9749 105.986   3
   2 -20 -10 476.050 156.838   3
   2 -20  -9 590.778 164.507   3
   2 -20  -8 5614.19 393.151   3
   2 -20  -7-72.4735 109.393   3
   2 -20  -6 5739.01 379.410   3
   2 -20  -5-65.2756 102.036   3
  -2 -20   5 112.375 76.3984   3
   2 -20  -4 2115.40 221.251   3
  -2 -20   4 2082.61 196.299   3
  -2 -20   3-16.4558 82.0805   3
   2 -20  -3 343.340 123.118   3
  -2 -20   2 7796.01 388.169   3
   2 -20  -2 7822.52 389.656   3
   2 -20  -1 483.281 107.082   3
  -2 -20   1 529.865 116.811   3
  -2 -20   0 10440.2 472.540   3
   2 -20   0 10445.6 414.532   3
  -2 -20  -1-57.2722 95.5185   3
   2 -20   1 71.5130 71.1009   3
   2 -20   2 2006.63 171.399   3
  -2 -20  -2 1875.74 218.438   3
  -2 -20  -3 711.445 157.215   3
  -2 -20  -4 1879.32 231.315   3
  -2 -20  -5-97.8682 104.665   3
  -2 -20  -6 10697.0 541.308   3
  -2 -20  -7-34.7659 121.238   3
  -2 -20  -8 971.233 183.800   3
  -2 -20  -9 324.489 147.681   3
   2 -22  -9 3041.98 324.417   3
   2 -22  -8-28.1580 108.559   3
   2 -22  -7 548.416 155.842   3
   2 -22  -6 1774.48 231.071   3
   2 -22  -5 2506.44 266.172   3
   2 -22  -4 138.639 102.502   3
   2 -22  -3 4851.69 335.988   3
  -2 -22   3 4792.71 322.506   3
   2 -22  -2-59.1234 91.2868   3
  -2 -22   2 101.317 90.0192   3
  -2 -22   1 1286.42 183.252   3
   2 -22  -1 1525.17 184.703   3
  -2 -22   0 222.218 120.446   3
  -2 -22  -1 1233.76 190.031   3
  -2 -22  -2-118.805 114.809   3
  -2 -22  -3 5018.00 372.762   3
  -2 -22  -4 435.819 141.783   3
  -2 -22  -5 357.044 138.681   3
  -2 -22  -6 482.739 163.493   3
  -2 -22  -7 556.332 167.914   3
   2 -24  -7-31.8181 106.814   3
   2 -24  -6 2647.07 295.261   3
   2 -24  -5 130.679 105.942   3
   2 -24  -4 732.170 168.128   3
  -2 -24   0 5204.72 376.771   3
  -2 -24  -1 487.187 143.478   3
  -2 -24  -2 772.772 174.453   3
  -2 -24  -3 932.030 192.530   3
  -2 -24  -4 1425.12 232.727   3
  -3   1  22 1206.53 193.003   1
  -3  -1  21 1553.23 208.145   1
  -3   1  21 1285.15 200.009   1
  -3   1  20 106.386 83.1945   1
  -3  -1  20 43.0040 78.4634   1
  -3  -1  19 12219.4 576.162   2
  -3  -1  19 12206.2 510.098   1
  -3   1  19 11468.7 503.130   1
  -3  -1  18 4815.85 347.960   2
  -3  -1  18 4825.81 314.534   1
  -3  -1  17-111.422 106.936   2
  -3  -1  17-22.5366 77.4407   1
  -3  -1  16 9097.16 400.786   1
  -3  -1  16 9106.63 433.756   2
  -3  -1  15 1387.63 156.636   1
  -3  -1  15 1183.72 152.351   2
  -3  -1  14 39.8149 60.3504   2
  -3  -1  14 0.33842 65.0332   1
  -3   1  13 10994.8 412.461   2
  -3  -1  13 11614.8 412.601   3
  -3  -1  13 10751.2 386.451   1
  -3  -1  13 11290.9 416.988   2
  -3   1  12 63.7832 52.1852   3
  -3  -1  12 3.97207 53.8475   3
  -3  -1  12-34.2056 65.4233   1
  -3   1  12-23.8901 68.5955   2
  -3  -1  12 61.3389 66.7750   2
  -3   1  11 3093.51 197.816   2
  -3  -1  11 3332.44 204.409   2
  -3   1  11 3400.25 219.050   3
  -3  -1  11 3263.12 200.269   3
   3  -1 -10 59742.5 804.635   2
  -3  -1  10 61773.0 795.937   2
  -3   1  10 61102.9 841.607   3
  -3   1  10 60630.1 799.531   2
  -3  -1  10 61043.3 811.181   3
   3  -1  -9 32785.3 555.053   2
  -3  -1   9 33407.3 545.318   2
  -3   1   9 33086.3 551.024   2
  -3   1   9 33166.5 588.148   3
  -3  -1   9 32933.8 565.830   3
  -3   1   8 31515.2 494.914   2
  -3  -1   8 31507.9 487.881   2
   3  -1  -8 31246.8 500.401   2
  -3  -1   8 31644.8 521.125   1
  -3   1   8 31934.3 545.822   3
  -3  -1   8 31478.5 522.773   3
  -3   1   7 41302.9 584.806   3
  -3  -1   7 40711.9 496.302   2
  -3  -1   7 40546.8 559.585   1
   3  -1  -7 40587.0 520.646   2
  -3  -1   7 41128.7 561.770   3
  -3  -1   6 2241.89 109.928   2
   3  -1  -6 2154.51 108.783   2
  -3  -1   6 2261.51 125.929   1
  -3   1   6 2118.56 127.425   3
  -3  -1   5 13519.9 217.453   2
   3  -1  -5 13150.6 233.270   2
  -3   1   5 13416.9 293.226   3
  -3  -1   5 12749.2 287.289   1
   3   1  -4 3954.34 145.380   1
  -3  -1   4 4027.95 95.5856   2
  -3  -1   4 3959.14 147.192   1
   3   1  -3 87201.8 621.631   1
  -3  -1   3 89774.9 624.760   1
  -3  -1   2 365744. 1185.68   1
   3   1  -2 366398. 1178.99   1
  -3  -1   1 153292. 501.047   2
  -3   1   1 153179. 632.946   1
   3   1  -1 154011. 739.804   1
  -3  -1   1 153759. 733.076   1
  -3   1   0 8920.03 135.177   1
   3  -1   0 8947.21 136.724   1
  -3  -1   0 8061.16 171.688   1
  -3  -1   0 9162.40 163.738   2
   3   1   0 9151.05 164.289   2
   3   1   0 8421.51 172.281   1
  -3  -1  -1 9598.74 203.329   2
  -3  -1  -1 8767.16 199.129   3
  -3   1  -1 11450.6 146.801   1
   3   1   1 9934.55 205.320   2
   3  -1   1 11450.4 143.811   1
   3   1   1 11322.8 209.682   1
   3   1   2 13749.6 272.928   2
   3  -1   2 13459.1 163.901   1
  -3  -1  -2 13504.3 254.102   3
   3   1   2 12837.4 251.010   3
  -3  -1  -2 13252.4 267.684   2
  -3   1  -2 12847.4 200.863   3
  -3  -1  -3 5451.18 177.873   3
   3   1   3 6191.18 207.578   2
   3   1   3 5483.14 175.323   3
  -3  -1  -3 5841.63 200.834   2
  -3   1  -3 5468.60 146.387   3
   3  -1   3 5462.14 148.959   3
   3  -1   4 111340. 953.921   2
  -3  -1  -4 109978. 935.643   2
  -3   1  -4 108875. 707.669   3
   3  -1   4 108448. 710.635   3
   3   1   4 107063. 926.373   2
   3   1   4 108535. 827.489   3
  -3  -1  -4 109418. 828.534   3
  -3   1  -5 264292. 1195.53   3
   3   1   5 261469. 1567.23   2
  -3  -1  -5 262029. 1367.70   3
   3   1   5 264081. 1381.21   3
   3  -1   5 260307. 1565.13   2
   3  -1   6 4906.42 180.257   3
  -3   1  -6 4833.10 181.925   3
  -3  -1  -6 4876.60 201.666   3
   3   1   6 4870.25 201.202   3
   3   1   6 4718.33 225.918   2
   3  -1   6 4600.07 225.504   2
   3   1   7 17382.8 401.402   3
   3   1   7 17436.5 460.311   2
   3  -1   7 16853.0 457.680   2
   3  -1   7 17600.9 366.381   3
  -3  -1  -7 17456.2 398.749   3
  -3   1  -7 17644.4 366.350   3
  -3  -1  -8 23339.0 491.143   3
   3  -1   8 23899.5 576.700   2
   3   1   8 23190.2 497.823   3
  -3   1  -8 23170.1 448.197   3
   3  -1   8 23484.0 453.527   3
   3   1   8 23070.0 559.200   2
   3   1   9 2673.37 206.417   2
   3  -1   9 2737.77 171.244   3
   3   1   9 2943.57 188.554   3
  -3   1  -9 2840.20 173.959   3
  -3  -1  -9 2749.76 182.015   3
   3  -1   9 2557.88 205.163   2
   3  -1  10 11162.9 433.702   2
   3   1  10 11087.5 435.401   2
  -3  -1 -10 10907.4 375.355   3
   3  -1  10 11123.8 356.619   3
   3   1  10 11001.9 380.628   3
  -3   1 -10 11756.7 366.374   3
   3  -1  11 8820.30 405.776   2
  -3  -1 -11 9387.62 364.860   3
  -3   1 -11 9473.95 346.089   3
   3   1  11 9122.89 366.048   3
   3  -1  11 8946.21 336.768   3
   3   1  11 8537.75 396.990   2
  -3   1 -12 1007.26 127.393   3
   3  -1  12 1129.13 134.928   3
   3   1  12 1119.86 168.071   2
  -3  -1 -12 1213.28 150.910   3
   3  -1  12 1126.48 163.102   2
   3  -1  13 2738.60 214.909   3
   3   1  13 2760.12 254.291   2
  -3  -1 -13 2909.77 230.509   3
   3  -1  13 2553.76 242.556   2
  -3   1 -13 2720.23 217.252   3
  -3   1 -14 3163.73 232.893   3
  -3  -1 -14 3192.09 252.193   3
   3   1  14 2874.52 269.982   2
   3  -1  14 3016.68 282.197   2
   3   1  15 6626.01 420.208   2
   3  -1  15 6195.39 408.335   2
  -3  -1 -15 6877.75 378.326   3
   3   1  16 10084.2 540.464   2
  -3  -1 -16 11115.0 503.918   3
   3  -1  16 10084.4 549.991   2
   3  -1  17 714.686 173.276   2
   3   1  17 731.649 185.523   2
   3  -1  18 1362.85 237.535   2
  -3   3  22 1620.08 226.606   1
  -3  -3  21 4944.77 397.762   2
  -3  -3  20 171.818 86.6554   2
  -3  -3  20 229.496 107.391   1
  -3  -3  19 6009.81 405.821   2
  -3  -3  19 5968.15 356.917   1
  -3  -3  18 3392.99 262.463   1
  -3  -3  18 3416.04 298.847   2
  -3  -3  17 296.795 103.457   1
  -3  -3  17 218.589 92.6370   2
  -3  -3  16 20709.6 589.562   1
  -3  -3  16 21019.8 660.988   2
  -3  -3  15 4484.26 297.054   2
  -3  -3  15 4326.42 262.813   1
  -3  -3  14 2654.74 200.389   1
  -3  -3  14 2717.81 224.442   2
  -3  -3  14 2841.22 211.757   3
  -3  -3  13 13899.1 436.395   3
  -3  -3  13 14324.8 441.320   1
  -3  -3  13 14173.9 464.787   2
   3  -3 -12 15794.6 485.685   2
  -3  -3  12 16067.2 448.624   1
  -3  -3  12 15659.8 437.850   3
  -3  -3  12 16200.7 473.613   2
   3  -3 -11 5778.38 278.990   2
  -3   3  11 5994.41 295.022   3
  -3  -3  11 5771.34 259.401   1
   3  -3 -11 5502.96 277.747   3
  -3  -3  11 5842.42 261.645   3
  -3  -3  11 5913.79 275.299   2
   3  -3 -10 29664.8 608.506   3
  -3  -3  10 31277.3 564.326   3
  -3  -3  10 30176.6 569.353   2
   3  -3 -10 30944.8 602.778   2
  -3   3  10 31250.4 638.925   3
  -3  -3  10 30358.7 561.623   1
  -3  -3   9 132.962 54.2321   1
  -3  -3   9 51.7234 39.2761   3
  -3  -3   9 141.661 55.1586   2
  -3   3   9 37.3949 48.2986   3
   3  -3  -9 57.6885 55.3915   3
   3  -3  -9 137.951 50.4266   2
  -3  -3   8 9944.67 293.059   1
   3  -3  -8 9987.16 304.351   2
  -3   3   8 9974.96 322.019   3
   3  -3  -8 9649.67 321.673   3
  -3   3   7 18388.8 414.476   3
   3  -3  -7 18202.6 381.652   2
  -3  -3   7 18266.7 380.044   1
   3  -3  -7 17850.1 403.025   3
  -3   3   6 32568.6 514.098   3
  -3  -3   6 34392.6 491.263   1
   3   3  -6 33912.0 485.198   1
   3  -3  -6 33440.9 516.833   3
   3   3  -5 19133.3 346.909   1
  -3   3   5 19088.7 370.562   3
  -3  -3   5 18860.0 349.694   1
   3  -3  -5 19017.5 367.320   3
   3  -3  -4 174587. 994.874   3
  -3  -3   4 179215. 1009.51   1
  -3   3   4 177807. 1031.11   3
   3   3  -4 180214. 1017.88   1
   3   3  -3 257316. 1167.13   1
  -3   3   3 260230. 1136.28   3
  -3  -3   3 259490. 1170.66   1
  -3  -3   2 44606.4 479.511   1
   3   3  -2 44570.4 480.628   1
  -3   3   2 43645.2 419.510   3
   3   3  -1 8546.09 212.017   1
  -3   3   1 7698.23 154.444   3
  -3  -3   1 8530.63 214.912   1
  -3  -3   0 15540.3 288.564   1
   3   3   0 15537.6 288.724   1
  -3  -3  -1 24409.5 352.396   2
   3   3   1 25482.9 374.585   1
  -3  -3  -1 23888.8 378.107   3
  -3  -3  -2 104958. 828.059   3
   3   3   2 108599. 841.071   3
  -3  -3  -2 106547. 811.806   2
  -3   3  -3 2241.64 68.3773   3
  -3  -3  -3 2622.56 143.393   2
  -3  -3  -3 2174.56 131.078   3
   3   3   3 2257.22 135.014   3
   3   3   4 90804.3 854.194   3
  -3  -3  -4 88593.5 872.474   2
   3  -3   4 91012.3 507.706   3
  -3  -3  -4 88364.2 838.547   3
  -3   3  -4 90820.2 502.437   3
   3   3   4 88202.9 871.381   2
   3  -3   5 116207. 662.319   3
  -3   3  -5 117394. 658.682   3
  -3  -3  -5 117068. 1079.66   2
  -3  -3  -5 115745. 1009.01   3
   3   3   5 116499. 1070.83   2
   3  -3   6 6296.94 172.228   3
   3   3   6 6348.20 253.536   3
   3   3   6 5882.75 257.194   2
  -3  -3  -6 6237.89 248.654   3
  -3  -3  -6 6162.54 267.217   2
  -3   3  -6 6019.72 169.631   3
  -3  -3  -7 38663.0 644.674   3
   3   3   7 38048.0 651.326   3
  -3  -3  -7 39523.3 709.188   2
   3   3   7 38339.3 696.056   2
  -3   3  -7 40014.2 481.084   3
   3  -3   7 40012.9 480.015   3
   3  -3   8 12556.0 424.541   2
   3   3   8 12379.5 392.212   3
   3  -3   8 12304.7 295.533   3
  -3  -3  -8 12569.0 390.504   3
   3   3   8 11708.0 405.959   2
  -3   3  -8 12374.5 293.069   3
  -3  -3  -8 11759.5 407.798   2
   3  -3   9 1502.90 158.753   2
   3   3   9 1295.97 139.801   3
   3  -3   9 1444.21 113.641   3
   3   3   9 1508.53 157.967   2
  -3  -3  -9 1578.63 154.099   3
  -3   3  -9 1612.23 119.803   3
   3  -3  10 19526.3 588.372   2
   3  -3  10 19303.4 427.000   3
   3   3  10 19065.7 537.002   3
  -3   3 -10 19871.9 432.856   3
   3   3  10 18990.3 569.237   2
  -3  -3 -10 19009.8 524.738   3
   3  -3  11 18372.0 598.248   2
  -3  -3 -11 19072.2 549.307   3
   3  -3  11 19080.8 452.980   3
   3   3  11 17781.9 581.032   2
  -3  -3 -12 13764.5 487.817   3
   3  -3  12 13732.9 544.537   2
   3  -3  12 13412.4 402.762   3
   3   3  12 13616.4 532.259   2
   3  -3  12 13354.1 351.258   1
   3  -3  13 15893.9 464.838   3
  -3  -3 -13 15820.0 548.520   3
   3  -3  13 15696.0 403.687   1
   3  -3  13 15550.5 599.795   2
   3  -3  14 3176.21 227.839   3
   3  -3  14 2694.40 179.230   1
   3  -3  14 2969.44 285.703   2
  -3  -3 -14 2927.74 254.634   3
   3  -3  15 2382.11 173.849   1
  -3  -3 -15 2658.65 252.118   3
   3  -3  15 2559.76 273.401   2
  -3  -3 -16 15141.2 606.907   3
   3  -3  16 14684.2 655.067   2
  -3  -3 -17 175.791 120.964   3
   3  -3  17-10.5494 97.5912   2
   3  -3  18 325.240 142.301   2
  -3  -3 -18 132.088 123.298   3
  -3  -5  21 1667.34 248.239   2
  -3  -5  20 106.486 101.664   2
  -3  -5  19 8253.91 408.608   1
  -3  -5  19 8707.85 496.952   2
  -3  -5  18 1654.38 214.628   2
  -3  -5  18 1845.49 192.258   1
  -3  -5  17 1701.93 224.979   2
  -3  -5  17 1559.34 176.512   1
  -3  -5  16 3013.25 231.158   1
  -3  -5  16 2939.94 258.932   2
  -3  -5  15 507.868 121.886   2
  -3  -5  15 308.284 89.2759   1
  -3  -5  15 430.609 97.7872   3
   3  -5 -14 2456.90 228.034   3
  -3  -5  14 2367.47 188.632   3
  -3  -5  14 2462.94 222.375   2
  -3  -5  14 2350.88 188.366   1
  -3  -5  13 14337.2 482.424   2
   3  -5 -13 14554.8 513.644   3
  -3  -5  13 14344.0 430.405   3
  -3  -5  13 14386.4 437.647   1
  -3  -5  12 76.7017 48.7308   3
  -3  -5  12 245.487 74.8716   1
  -3  -5  12 377.358 99.5060   2
   3  -5 -12 63.2957 68.6548   3
   3  -5 -11 14209.8 467.876   3
  -3  -5  11 13638.8 393.150   1
   3  -5 -11 14153.9 458.180   2
  -3  -5  11 14397.6 392.980   3
   3  -5 -10 29370.1 623.433   2
  -3  -5  10 29345.9 556.376   1
  -3   5  10 28807.0 644.226   3
   3  -5 -10 27740.8 615.821   3
  -3  -5  10 28997.6 531.506   3
  -3  -5   9 4646.70 212.305   1
   3  -5  -9 4360.47 233.673   2
  -3   5   9 3904.56 229.493   3
   3  -5  -9 3763.39 220.246   3
   3   5  -8 14867.6 363.844   1
  -3  -5   8 15341.1 369.881   1
  -3   5   8 15462.4 422.515   3
   3  -5  -8 15734.0 424.507   3
   3  -5  -8 15835.5 412.714   2
  -3  -5   7 32525.7 512.455   1
   3   5  -7 33218.7 519.958   1
  -3   5   7 33927.9 593.057   3
   3  -5  -7 33202.0 588.070   3
  -3   5   6 56203.9 725.339   3
  -3  -5   6 57067.7 656.262   1
   3   5  -6 56469.7 661.990   1
   3  -5  -6 53680.9 693.457   3
   3  -5  -5 2140.98 139.017   3
  -3  -5   5 1774.01 119.176   1
   3   5  -5 1914.58 126.088   1
  -3   5   5 2320.49 147.894   3
  -3  -5   4 56910.0 621.994   1
   3   5  -4 57153.4 639.874   1
   3  -5  -4 57245.2 631.890   3
  -3   5   4 57234.3 632.468   3
   3   5  -3 28678.4 450.448   1
  -3  -5   3 28635.9 444.418   1
  -3   5   3 30642.5 429.559   3
   3  -5  -3 30722.1 426.803   3
  -3  -5   2 72546.2 711.733   1
  -3   5   2 70538.9 592.844   3
   3   5  -2 73980.3 709.523   1
   3  -5  -1 1494.33 80.8024   3
   3   5  -1 1429.14 110.721   1
  -3   5   1 1384.07 79.9417   3
  -3  -5   1 1390.44 104.090   1
   3   5   0 9631.02 265.983   1
  -3  -5   0 9723.92 262.253   3
  -3   5   0 9753.99 164.984   3
  -3  -5  -1 75952.7 757.653   3
  -3   5  -1 69181.1 344.299   3
  -3   5  -2 20791.6 193.564   1
  -3  -5  -2 22804.4 435.942   3
   3   5   2 22635.9 436.499   3
   3   5   3 10004.9 297.489   3
  -3  -5  -3 9683.43 289.899   2
  -3  -5  -3 9829.24 302.047   3
   3   5   4 58864.8 771.232   3
  -3  -5  -4 58119.6 752.123   3
   3   5   5 16013.1 421.955   3
  -3  -5  -5 15793.7 408.097   3
  -3  -5  -5 15294.7 412.146   2
  -3  -5  -6 3250.78 203.282   2
   3   5   6 3083.11 195.050   3
  -3  -5  -6 2794.23 186.794   3
   3  -5   6 3072.25 78.5617   1
   3  -5   6 2693.95 89.2895   3
  -3  -5  -7 91246.9 1120.66   2
   3   5   7 90734.6 1087.60   3
  -3  -5  -7 89418.5 1062.50   3
  -3  -5  -8 45052.8 826.845   2
   3  -5   8 44291.6 408.831   1
   3   5   8 45973.9 808.017   3
   3  -5   8 46438.5 481.064   3
  -3  -5  -8 44255.0 783.773   3
  -3  -5  -9 12605.2 434.421   3
   3   5   9 13232.6 453.270   3
   3  -5   9 13796.6 253.771   1
   3  -5   9 13750.9 292.226   3
   3  -5  10 3711.53 170.266   3
  -3  -5 -10 3849.27 259.442   3
   3  -5  10 3892.37 150.070   1
   3  -5  11 30937.3 789.752   2
   3  -5  11 30791.0 444.680   1
   3  -5  11 31243.4 517.002   3
  -3  -5 -11 30046.2 726.833   3
   3  -5  12 4346.12 208.683   3
  -3  -5 -12 4113.24 283.733   3
   3  -5  12 4410.16 183.303   1
   3  -5  12 4294.09 312.723   2
   3  -5  13 14687.5 594.899   2
   3  -5  13 14621.4 405.822   3
  -3  -5 -13 14454.9 546.859   3
   3  -5  13 14106.0 343.349   1
  -3  -5 -14 6285.25 379.728   3
   3  -5  14 6174.12 405.797   2
   3  -5  14 6029.77 230.902   1
  -3  -5 -15 869.372 163.035   3
   3  -5  15 864.194 176.509   2
   3  -5  16 5531.99 421.554   2
  -3  -5 -16 5375.27 390.056   3
   3  -5  17 575.634 150.830   2
  -3  -5 -17 657.570 168.266   3
  -3  -5 -18 1410.45 219.314   3
   3  -5  18 1206.12 225.619   2
  -3  -5 -19 4925.90 415.675   3
  -3  -7  21 2757.94 318.194   2
  -3  -7  20 56.1961 107.720   2
  -3  -7  19 7128.58 461.798   2
  -3  -7  18 1955.27 197.509   1
  -3  -7  18 1820.12 236.142   2
  -3  -7  17 4160.15 328.237   2
  -3  -7  17 3896.87 262.609   1
  -3  -7  16 7511.46 414.616   2
   3  -7 -16 7290.85 422.867   3
  -3  -7  16 7554.01 353.713   1
   3  -7 -15 608.020 151.920   3
  -3  -7  15 567.014 124.945   2
  -3  -7  15 636.601 114.212   1
  -3  -7  15 624.164 112.052   3
  -3  -7  14 9742.21 429.944   2
  -3  -7  14 9738.02 374.691   1
   3  -7 -14 10323.3 463.930   3
  -3  -7  14 9714.82 357.886   3
  -3  -7  13 10025.3 370.604   1
  -3  -7  13 9019.83 338.291   3
   3  -7 -13 9170.20 429.080   3
   3  -7 -12 9178.58 405.589   3
  -3  -7  12 9143.12 320.235   3
  -3  -7  12 10353.8 364.125   1
  -3  -7  11 23851.7 531.680   1
   3  -7 -11 23861.0 625.732   3
  -3  -7  11 24031.3 498.004   3
  -3  -7  10 46147.8 709.356   1
   3  -7 -10 47196.2 838.297   3
   3  -7 -10 47203.9 837.881   2
  -3   7   9 289.588 89.4926   3
  -3  -7   9 201.754 57.7206   1
   3  -7  -9 194.255 75.6518   3
   3   7  -9 178.954 60.7252   1
  -3   7   8 19035.1 502.073   3
   3  -7  -8 18059.0 480.097   3
   3   7  -8 17942.0 421.789   1
  -3  -7   8 16472.8 404.988   1
  -3   7   7 16950.0 452.544   3
  -3  -7   7 16656.5 400.176   1
   3   7  -7 16394.8 395.108   1
   3  -7  -7 16152.2 431.707   3
   3   7  -6 11487.1 323.590   1
  -3  -7   6 11726.9 320.425   1
   3  -7  -6 11651.3 345.795   3
  -3   7   6 11949.3 361.876   3
   3   7  -5 3299.08 171.683   1
  -3  -7   5 3293.81 172.812   1
   3  -7  -5 3538.29 186.737   3
  -3   7   5 3594.59 192.190   3
  -3  -7   4 146842. 1120.37   1
   3   7  -4 147641. 1131.20   1
  -3   7   4 152944. 1142.21   3
   3  -7  -4 150794. 1103.54   3
  -3   7   3 126382. 983.648   3
   3  -7  -3 124234. 931.610   3
  -3  -7   3 127127. 1040.28   1
   3   7  -3 126081. 1039.43   1
   3   7  -2 1074.45 108.473   1
   3  -7  -2 919.585 82.0930   3
  -3   7   2 900.873 83.7948   3
  -3  -7   2 1169.19 104.844   1
  -3   7   1 554.126 63.2515   3
   3  -7  -1 523.983 63.0153   3
   3   7  -1 389.430 73.7568   1
  -3  -7   1 652.675 89.9312   3
   3  -7   0 1326.40 75.6171   3
  -3  -7   0 1320.35 111.970   3
  -3   7   0 1316.55 75.8312   3
   3   7   0 1532.51 125.394   1
   3   7   1 51683.4 709.537   1
  -3  -7  -1 47452.7 658.831   3
   3  -7   1 47773.7 362.382   3
  -3   7  -1 46080.2 369.175   3
  -3   7  -2 18421.0 268.426   1
  -3  -7  -2 21114.8 456.857   3
   3   7   2 21473.2 468.076   3
  -3   7  -3 29990.4 306.564   1
   3   7   3 32301.7 591.231   3
  -3  -7  -3 32595.8 586.663   3
  -3  -7  -4 44142.8 710.318   3
   3   7   4 45053.3 730.942   3
  -3  -7  -5 18348.1 471.600   3
  -3  -7  -5 18829.0 487.599   2
   3   7   5 18208.0 491.981   3
  -3  -7  -6 2498.94 193.227   3
   3   7   6 2450.00 198.427   3
  -3  -7  -6 2467.65 191.305   2
  -3  -7  -7 82293.1 1121.80   2
  -3  -7  -7 80351.4 1093.66   3
   3   7   7 83022.7 1114.07   3
   3  -7   8 35920.1 295.254   3
   3  -7   8 35429.8 308.831   1
  -3  -7  -9 4268.13 280.876   3
   3  -7   9 4593.23 125.697   1
   3  -7   9 3880.01 122.377   3
   3  -7  10 3188.39 126.998   3
   3  -7  10 3081.56 111.990   1
  -3  -7 -10 3700.23 276.770   3
   3  -7  11-2.23335 35.8126   1
   3  -7  11 123.894 44.0923   3
   3  -7  12-2.40857 40.7599   3
   3  -7  12-5.42304 34.3307   1
   3  -7  12-133.758 100.478   2
  -3  -7 -12-51.6171 91.5084   3
   3  -7  13 16056.8 314.200   1
   3  -7  13 16490.9 643.978   2
  -3  -7 -13 16256.9 607.408   3
   3  -7  14 7179.58 445.182   2
  -3  -7 -14 7655.57 434.084   3
   3  -7  15 4257.97 360.676   2
  -3  -7 -15 4517.51 345.359   3
   3  -7  16 4905.20 405.386   2
  -3  -7 -16 5246.49 391.232   3
  -3  -7 -17 469.619 150.394   3
   3  -7  17 382.621 146.856   2
  -3  -7 -18-32.9155 116.955   3
  -3  -9  21 1810.41 264.736   2
  -3  -9  20 723.709 176.014   2
  -3  -9  19 3542.69 337.310   2
  -3  -9  18 3286.92 306.210   2
  -3  -9  17 1337.33 196.226   2
   3  -9 -17 1314.11 210.668   3
  -3  -9  17 1116.41 145.183   1
  -3  -9  16 6739.13 401.431   2
  -3  -9  16 7389.14 352.414   1
   3  -9 -16 7026.43 437.029   3
  -3  -9  15 4656.49 325.681   2
  -3  -9  15 4788.73 276.128   1
   3  -9 -15 4666.53 343.827   3
  -3  -9  14 183.076 82.3757   1
   3  -9 -14 229.028 114.021   3
  -3  -9  14 62.8850 59.9693   3
   3  -9 -13 5262.37 337.198   3
  -3  -9  13 5159.95 247.685   3
  -3  -9  13 4671.14 259.431   1
  -3  -9  12 151.844 61.8125   1
   3  -9 -12 199.709 99.9857   3
  -3  -9  12 43.6770 57.2794   3
  -3  -9  11 47924.1 773.307   1
   3  -9 -11 49760.7 939.386   3
   3   9 -10 20322.2 490.988   1
   3  -9 -10 20353.2 591.602   3
  -3  -9  10 21165.8 500.846   1
  -3  -9   9 11155.2 358.878   1
   3   9  -9 11165.6 359.878   1
   3  -9  -9 11038.6 414.206   3
  -3  -9   8 4743.82 232.357   1
  -3   9   8 5293.02 285.247   3
   3  -9  -8 4907.69 267.021   3
   3   9  -8 4799.62 234.063   1
   3   9  -7 10556.4 339.034   1
  -3   9   7 11430.4 397.538   3
   3  -9  -7 10889.5 374.647   3
  -3  -9   7 9843.46 323.577   1
   3   9  -6 3336.98 193.158   1
  -3   9   6 2981.69 200.191   3
  -3  -9   6 3680.32 200.339   1
   3  -9  -6 2991.76 195.433   3
  -3  -9   5 29328.9 556.038   1
   3   9  -5 30868.1 580.239   1
  -3   9   5 32963.0 610.381   3
   3  -9  -5 31878.8 582.714   3
  -3   9   4 7116.35 273.023   3
  -3  -9   4 8755.27 303.702   1
   3  -9  -4 7033.43 262.807   3
   3   9  -4 7918.98 294.478   1
  -3  -9   3 327.963 70.2322   1
  -3   9   3 903.733 100.838   3
  -3  -9   3 781.071 92.3207   3
   3   9  -3 543.631 88.1406   1
   3  -9  -3 860.560 97.1538   3
  -3   9   2 12709.5 321.348   3
  -3  -9   2 12386.4 344.162   3
   3   9  -2 13760.5 394.450   1
   3  -9  -2 13243.3 318.570   3
   3   9  -1 90982.3 1010.14   1
   3  -9  -1 90660.1 761.022   3
  -3   9   1 91101.3 792.816   3
  -3  -9   1 91452.1 945.341   3
  -3  -9   0 8099.11 294.386   3
  -3   9   0 8099.05 220.800   3
   3   9   0 10209.0 346.858   1
   3  -9   0 8074.34 211.680   3
  -3   9  -1 90444.4 650.628   3
  -3  -9  -1 90157.6 1000.74   3
   3  -9   1 90032.1 616.569   3
   3   9   1 86370.7 1019.22   1
   3   9   2 54726.8 823.890   1
  -3   9  -2 53787.4 577.210   1
   3   9   2 53926.2 812.531   3
  -3  -9  -2 52323.0 774.487   3
   3  -9   2 51873.6 401.099   3
  -3   9  -3 6571.26 187.911   1
   3   9   3 6565.73 296.197   3
  -3  -9  -3 6957.43 293.867   3
  -3  -9  -4 29530.2 627.843   3
  -3   9  -4 30076.5 364.371   1
   3   9   4 29784.2 649.196   3
   3   9   5 33293.7 711.091   3
  -3   9  -5 29045.2 324.351   1
  -3  -9  -5 31983.3 670.403   3
  -3  -9  -6 393.352 85.4698   3
  -3  -9  -7 33676.1 747.844   3
  -3  -9  -8 15442.2 528.475   3
  -3  -9  -9 2580.13 226.991   3
  -3  -9 -10 5279.59 328.998   3
  -3  -9 -11 22287.8 691.012   3
  -3  -9 -12 2881.96 269.281   3
  -3  -9 -13 19018.2 683.638   3
   3  -9  14-5.72037 96.9548   2
  -3  -9 -14 111.760 114.252   3
   3  -9  15-51.2007 114.243   2
  -3  -9 -15 181.843 108.592   3
  -3  -9 -16 5867.78 427.609   3
   3  -9  16 5265.29 424.991   2
   3  -9  17 4.26276 114.730   2
  -3  -9 -17 356.039 145.614   3
  -3 -11  20 81.2036 102.301   2
  -3 -11  19 4554.74 379.554   2
   3 -11 -18 137.179 116.360   3
  -3 -11  18 66.1411 89.6116   2
  -3 -11  17-77.2158 108.142   2
   3 -11 -17 232.553 133.963   3
   3 -11 -16 7518.82 472.030   3
  -3 -11  16 7031.42 345.971   1
   3 -11 -15 589.291 153.144   3
  -3 -11  15 502.741 101.603   1
   3 -11 -14 491.299 139.526   3
  -3 -11  14 654.756 105.818   1
  -3 -11  13 3136.56 194.303   3
  -3 -11  13 3914.63 249.227   1
   3 -11 -13 3336.82 284.139   3
  -3 -11  12 14110.6 447.903   1
   3 -11 -12 13689.3 539.001   3
  -3 -11  11 2443.86 189.414   1
   3  11 -11 2864.80 203.439   1
   3 -11 -11 3136.07 261.530   3
  -3 -11  10 19224.0 500.370   1
   3 -11 -10 19259.5 597.584   3
   3  11 -10 18795.6 501.416   1
   3  11  -9 2020.72 165.976   1
  -3 -11   9 1649.83 153.189   1
   3 -11  -9 2186.29 202.679   3
  -3 -11   8 18412.0 480.902   1
   3 -11  -8 20907.1 581.736   3
   3  11  -8 19683.1 499.705   1
  -3 -11   7 14044.8 419.303   1
   3  11  -7 13502.4 419.185   1
   3 -11  -7 12353.3 425.753   3
  -3  11   6 533.698 100.929   3
  -3 -11   6 451.053 87.6230   1
   3  11  -6 508.007 88.0042   1
   3 -11  -6 476.104 98.8034   3
   3  11  -5 481.333 98.2754   1
  -3 -11   5 729.980 111.256   1
  -3  11   5 315.195 82.8084   3
   3 -11  -5 426.161 96.7293   3
  -3 -11   4 26906.3 522.684   3
  -3  11   4 27252.3 577.029   3
   3 -11  -4 26796.0 552.159   3
   3  11  -4 26612.2 585.661   1
   3  11  -3 1121.61 127.033   1
  -3 -11   3 1251.99 120.656   3
  -3  11   3 1550.55 136.432   3
   3 -11  -3 1578.94 137.064   3
   3 -11  -2 60934.3 745.877   3
   3  11  -2 57397.7 867.162   1
  -3  11   2 61098.8 774.222   3
  -3 -11   2 60913.6 816.594   3
  -3 -11   1 36628.3 649.393   3
   3 -11  -1 37339.4 547.820   3
  -3  11   1 36192.1 563.985   3
  -3 -11   0 32.5149 63.6956   3
   3  11   0 94.6516 53.1404   1
  -3  11   0 97.1454 40.5641   3
   3 -11   0 55.4861 36.3665   3
  -3  11  -1 12081.4 284.371   3
  -3 -11  -1 11691.8 388.263   3
  -3  11  -1 13481.7 357.439   1
   3  11   1 13650.1 449.369   1
   3 -11   1 12714.0 275.968   3
  -3  11  -2 9311.91 282.244   1
  -3 -11  -2 9505.17 361.830   3
   3 -11   2 9508.07 209.310   3
   3  11   2 9059.83 372.668   1
   3  11   3 1673.83 164.423   3
  -3  11  -3 1508.17 109.428   1
   3 -11   3 1697.87 76.6207   3
  -3 -11  -3 1555.83 157.578   3
  -3  11  -4 14835.4 311.015   1
  -3 -11  -4 16259.7 498.904   3
  -3  11  -5 60852.0 593.427   1
  -3 -11  -5 60314.7 982.996   3
  -3 -11  -6 773.343 118.854   3
  -3  11  -6 594.850 58.8368   1
  -3 -11  -7 16278.3 553.904   3
  -3 -11  -8 25858.6 702.651   3
  -3 -11  -9-17.3196 88.0408   3
  -3 -11 -10 254.762 110.539   3
  -3 -11 -11 8061.75 443.783   3
  -3 -11 -12 153.067 90.5846   3
  -3 -11 -13 5347.47 386.650   3
  -3 -11 -14 5892.19 419.667   3
  -3 -11 -15 2618.65 286.685   3
   3 -11  15 2081.38 268.221   2
  -3 -11 -16 8521.38 528.711   3
   3 -11  16 7747.42 520.100   2
  -3 -13  19 4805.66 399.856   2
  -3 -13  18 2066.92 260.725   2
   3 -13 -17 41.8872 114.782   3
   3 -13 -16 8515.40 511.344   3
  -3 -13  15 1283.47 154.771   1
   3 -13 -15 1309.27 212.655   3
   3 -13 -14 1567.43 221.848   3
  -3 -13  14 1392.55 158.240   1
  -3 -13  13 15048.6 488.769   1
   3 -13 -13 15671.2 631.421   3
  -3 -13  12 6430.58 313.589   1
   3 -13 -12 5142.82 353.289   3
   3  13 -11 284.365 88.0593   1
   3 -13 -11 257.923 110.218   3
  -3 -13  11 208.261 85.7994   1
  -3 -13  10 11982.3 418.628   1
   3  13 -10 10992.9 410.967   1
   3 -13 -10 11328.2 480.801   3
  -3 -13   9 1289.65 144.023   1
   3  13  -9 1177.24 139.411   1
   3 -13  -9 949.030 154.231   3
  -3 -13   8 23403.3 576.105   1
   3 -13  -8 23780.4 646.341   3
   3  13  -8 23274.8 593.054   1
   3  13  -7 13558.9 455.537   1
  -3 -13   7 12262.5 415.619   1
  -3 -13   7 14949.0 408.637   3
   3 -13  -7 14744.5 493.052   3
   3  13  -6 676.355 107.354   1
  -3 -13   6 496.832 82.2253   3
   3 -13  -6 495.479 105.219   3
  -3  13   5 21122.5 575.736   3
   3  13  -5 19472.6 547.825   1
  -3 -13   5 20344.7 481.839   3
   3 -13  -5 20665.3 540.124   3
  -3 -13   4 10154.5 352.418   3
   3 -13  -4 10928.5 381.759   3
  -3  13   4 10526.7 396.874   3
   3  13  -4 12182.0 435.589   1
   3  13  -3 895.347 128.439   1
  -3  13   3 740.644 108.503   3
   3 -13  -3 784.934 112.374   3
  -3 -13   3 806.292 104.299   3
  -3 -13   2 12745.1 407.175   3
   3  13  -2 14741.7 493.425   1
  -3  13   2 12961.9 399.801   3
   3 -13  -2 13219.7 382.386   3
  -3  13   1 17087.6 431.959   3
  -3 -13   1 17451.5 485.092   3
   3  13  -1 16644.5 527.842   1
   3 -13  -1 17032.6 408.293   3
  -3 -13   0-34.7099 71.0893   3
  -3  13   0-51.6119 52.8690   3
   3 -13   0-2.64108 47.3623   3
  -3 -13  -1 22046.8 573.219   3
   3 -13   1 21955.3 410.052   3
   3 -13   2 19207.8 344.616   3
  -3 -13  -2 19102.5 543.983   3
  -3  13  -2 21088.0 485.380   1
  -3 -13  -3 44.6199 75.4136   3
  -3  13  -3 4.60988 57.7144   1
   3 -13   3 47.0345 33.4964   3
  -3 -13  -4 36892.7 793.194   3
  -3  13  -4 37472.0 586.614   1
   3 -13   4 34015.2 322.544   3
  -3  13  -5 16716.3 367.536   1
  -3 -13  -5 19639.9 603.222   3
  -3 -13  -6 6100.15 352.882   3
  -3  13  -6 6001.56 206.038   1
  -3  13  -7 4057.34 156.383   1
  -3 -13  -7 4117.63 297.236   3
  -3 -13  -8 1345.27 187.992   3
  -3 -13  -9 285.296 117.845   3
  -3 -13 -10 8852.21 473.579   3
  -3 -13 -11 7312.32 439.480   3
  -3 -13 -12 214.016 113.890   3
  -3 -13 -13 3458.13 321.681   3
  -3 -13 -14 924.793 202.281   3
  -3 -13 -15 198.719 114.655   3
   3 -15 -15 23.3100 102.449   3
   3 -15 -14 1789.31 246.909   3
   3 -15 -13 4818.31 371.120   3
  -3 -15  13 5734.60 317.005   1
  -3 -15  12 4484.63 277.082   1
   3 -15 -12 4127.18 339.597   3
  -3 -15  11 3725.55 212.135   3
  -3 -15  11 3908.82 256.025   1
   3 -15 -11 4488.85 337.596   3
  -3 -15  10 16738.4 439.367   3
   3 -15 -10 17371.6 630.303   3
  -3 -15   9 604.122 97.5031   3
   3 -15  -9 729.362 152.479   3
  -3 -15   8 1808.52 156.644   3
   3 -15  -8 1880.61 205.312   3
  -3 -15   7 14588.1 425.925   3
   3 -15  -7 14510.9 519.313   3
  -3 -15   6 2068.93 169.480   3
   3 -15  -6 1985.05 193.314   3
  -3 -15   5 5764.04 276.571   3
   3 -15  -5 6130.37 320.737   3
   3 -15  -4 11775.1 425.404   3
  -3 -15   4 11477.3 399.211   3
  -3  15   3 3474.34 241.536   3
  -3 -15   3 3642.69 236.208   3
   3 -15  -3 3855.43 239.114   3
  -3  15   2 37229.1 733.068   3
   3 -15  -2 38291.9 699.249   3
  -3 -15   2 36045.0 731.623   3
   3 -15  -1 1688.20 150.902   3
  -3 -15   1 1532.12 168.158   3
  -3  15   1 1388.57 144.560   3
  -3 -15   0 92.9895 64.4682   3
  -3  15   0 5.85839 58.4943   1
   3 -15   0-18.0668 56.1507   3
  -3  15  -1 2021.20 177.141   1
   3 -15   1 1740.88 134.008   3
  -3 -15  -1 1475.56 166.269   3
  -3 -15  -2 18526.7 573.578   3
   3 -15   2 19146.4 386.218   3
  -3  15  -2 18558.5 505.642   1
  -3  15  -3 524.654 88.4832   1
   3 -15   3 786.600 75.6746   3
  -3 -15  -3 778.104 137.421   3
  -3 -15  -4 3907.21 290.936   3
   3 -15   4 3696.22 131.188   3
  -3  15  -4 3337.16 197.752   1
  -3  15  -5 12084.9 362.676   1
  -3 -15  -5 12585.6 510.862   3
  -3 -15  -6 1626.91 198.649   3
  -3  15  -6 1931.11 136.879   1
  -3 -15  -7 10443.4 494.617   3
  -3 -15  -8 1516.30 213.813   3
  -3 -15  -9 75.5323 89.8796   3
  -3 -15 -10 9585.34 514.763   3
  -3 -15 -11 3733.75 338.750   3
  -3 -15 -12-166.573 137.123   3
  -3 -15 -13 4247.97 374.099   3
   3 -17 -14 1481.49 235.707   3
   3 -17 -13 8498.15 503.303   3
   3 -17 -12 621.922 164.224   3
   3 -17 -11 69.2668 94.9054   3
   3 -17 -10 10256.1 512.918   3
  -3 -17   9 348.136 92.9279   3
   3 -17  -9 495.421 143.461   3
  -3 -17   8 2693.25 197.610   3
   3 -17  -8 3082.02 272.676   3
   3 -17  -7 7933.79 412.019   3
  -3 -17   7 7897.72 333.589   3
  -3 -17   6 6086.29 299.737   3
   3 -17  -6 5874.14 340.485   3
  -3 -17   5 2669.19 205.750   3
   3 -17  -5 2648.40 227.587   3
  -3 -17   4 5838.16 307.733   3
   3 -17  -4 5477.23 311.105   3
   3 -17  -3 14023.4 473.571   3
  -3 -17   3 14520.3 487.021   3
  -3  17   2 4181.17 276.157   3
  -3 -17   2 4441.48 283.847   3
   3 -17  -2 4968.01 276.769   3
  -3 -17   1 3979.86 271.851   3
   3 -17  -1 4013.78 237.667   3
  -3 -17   0 204.855 87.0069   3
   3 -17   0 271.096 75.9446   3
  -3 -17  -1 512.753 127.336   3
   3 -17   1 378.390 82.5834   3
  -3  17  -2 11349.3 440.985   1
  -3 -17  -2 10637.4 468.681   3
   3 -17   2 11295.8 330.416   3
  -3 -17  -3-54.9241 93.9506   3
   3 -17   3 12.4216 43.6584   3
  -3  17  -3-71.0743 72.3969   1
   3 -17   4 1997.66 110.754   3
  -3 -17  -4 1875.75 217.044   3
  -3 -17  -5 6756.99 403.051   3
  -3 -17  -6 3498.32 304.020   3
  -3 -17  -7 3618.52 314.299   3
  -3 -17  -8 8896.25 492.432   3
  -3 -17  -9 169.779 119.483   3
  -3 -17 -10 3561.15 336.053   3
  -3 -17 -11 3913.83 356.922   3
   3 -19 -12-136.437 123.077   3
   3 -19 -11 2634.80 290.117   3
   3 -19 -10 6837.32 445.775   3
   3 -19  -9 1621.58 222.857   3
   3 -19  -8 1636.38 221.525   3
  -3 -19   7 2554.45 205.332   3
   3 -19  -7 2793.41 262.701   3
   3 -19  -6 1134.55 175.090   3
  -3 -19   6 1121.68 141.973   3
  -3 -19   5 7793.20 368.069   3
   3 -19  -5 7842.17 406.396   3
   3 -19  -4 1795.61 201.401   3
  -3 -19   4 1892.56 198.551   3
  -3 -19   3 2057.79 203.691   3
   3 -19  -3 1566.15 176.706   3
  -3 -19   2 17319.2 577.653   3
   3 -19  -2 18115.2 553.411   3
  -3 -19   1 3447.19 271.361   3
   3 -19  -1 3546.78 244.364   3
  -3 -19   0-134.323 103.323   3
   3 -19   0 40.0808 62.2952   3
   3 -19   1 6323.97 288.153   3
  -3 -19  -1 5773.26 359.329   3
   3 -19   2 958.487 118.237   3
  -3 -19  -2 852.129 159.475   3
  -3 -19  -3-58.6683 100.657   3
  -3 -19  -4 3622.92 311.475   3
  -3 -19  -5 2127.35 252.963   3
  -3 -19  -6 106.306 96.5310   3
  -3 -19  -7 5734.19 413.654   3
  -3 -19  -8 1950.32 256.542   3
  -3 -19  -9 112.201 109.762   3
   3 -21 -10 1596.88 235.042   3
   3 -21  -9-34.3157 102.432   3
   3 -21  -8 839.425 180.524   3
   3 -21  -7 647.064 156.433   3
   3 -21  -6 95.0804 99.3102   3
  -3 -21   5 2509.46 231.776   3
   3 -21  -5 2266.30 244.499   3
  -3 -21   4 2602.96 234.107   3
   3 -21  -4 2837.04 260.322   3
  -3 -21   3 298.363 95.7786   3
   3 -21  -3 485.882 119.709   3
  -3 -21   2 2172.41 226.797   3
   3 -21  -2 2395.72 223.596   3
  -3 -21   1 2768.46 260.533   3
   3 -21  -1 2964.64 240.847   3
  -3 -21   0 38.0014 94.1475   3
   3 -21   0-25.2408 79.3481   3
  -3 -21  -1 2299.30 254.718   3
  -3 -21  -2 4768.49 354.513   3
  -3 -21  -3 278.341 110.607   3
  -3 -21  -4 3630.51 323.322   3
  -3 -21  -5 1891.56 247.781   3
  -3 -21  -6-219.970 133.005   3
  -3 -21  -7 2885.68 311.195   3
   3 -23  -8 49.3437 113.962   3
   3 -23  -7 2690.29 294.870   3
   3 -23  -6-61.4337 109.748   3
   3 -23  -5 1518.02 219.997   3
   3 -23  -4 1471.33 206.623   3
   3 -23  -3 225.497 95.0708   3
  -3 -23   2 1260.07 196.870   3
  -3 -23   1 1830.54 225.469   3
  -3 -23   0-101.349 116.623   3
  -3 -23  -1 1128.90 196.120   3
  -3 -23  -2 763.512 173.864   3
  -3 -23  -3 121.418 112.288   3
  -3 -23  -4 263.227 130.540   3
  -3 -23  -5 3388.51 334.294   3
  -3 -25  -1 1653.50 239.046   3
  -3 -25  -2 892.554 188.995   3
  -4   0  22 586.625 140.272   1
  -4   0  21 32.5881 85.8924   1
  -4   0  20 14365.9 579.556   1
  -4   0  19 131.781 96.2267   1
  -4   0  18 5559.55 341.493   1
  -4   0  17-14.0192 73.7151   1
  -4   0  16 842.222 129.528   1
  -4   0  15-114.633 92.8078   1
  -4   0  15-102.196 90.8456   2
  -4   0  14 29388.7 681.103   2
  -4   0  13-6.44078 55.3646   2
  -4   0  12 11340.0 375.575   2
  -4   0  12 11519.7 402.964   3
  -4   0  11 15.4171 46.0888   2
  -4   0  11-2.01347 48.1764   3
  -4   0  10 33099.8 555.687   2
  -4   0  10 35066.9 640.875   3
  -4   0   9 178.119 59.5883   2
  -4   0   9 43.5174 54.7455   3
  -4   0   8 144708. 1157.98   3
   4   0  -7-4.94012 26.7295   2
  -4   0   7 49.7317 34.0191   2
   4   0  -6 70327.0 528.015   2
  -4   0   6 73665.0 736.033   1
   4   0  -5 52.9237 22.2871   2
  -4   0   5 86.2435 46.1879   1
   4   0  -4 56241.5 293.198   2
   4   0  -3 7.65607 39.0371   1
  -4   0   3 75.9193 35.4454   1
  -4   0   2 24211.2 322.308   1
   4   0  -2 24738.9 331.206   1
   4   0  -1 67.9909 34.1724   1
  -4   0   1 24.8191 31.6540   1
  -4   0   0 482823. 1309.02   1
   4   0   0 482342. 1311.72   1
   4   0   1-8.85991 32.6584   2
  -4   0  -1-1.28735 28.8781   1
   4   0   1 0.61463 28.9663   1
   4   0   2 53093.4 577.101   2
  -4   0  -2 52184.8 505.517   3
   4   0   2 51616.7 440.773   1
  -4   0  -3 22.9850 38.9400   3
   4   0   3-25.5145 46.4843   2
   4   0   3 18.5487 26.5209   1
   4   0   4 391374. 1873.00   2
  -4   0  -4 388070. 1564.67   3
   4   0   5-5.55186 41.2499   3
  -4   0  -5-16.1413 41.0073   3
   4   0   5-54.2522 59.9950   2
   4   0   6 51812.6 778.499   2
   4   0   6 51622.6 648.625   3
  -4   0  -6 52438.6 651.607   3
   4   0   7 7.66701 40.5745   3
  -4   0  -7-16.1893 45.3928   3
   4   0   7-55.4572 62.0563   2
   4   0   8 6883.84 270.477   3
  -4   0  -8 7082.18 272.321   3
   4   0   8 7245.13 330.183   2
   4   0   9 70.1421 59.8153   3
   4   0   9-3.64679 69.2102   2
  -4   0  -9 79.0505 62.0593   3
   4   0  10 2284.79 213.074   2
   4   0  10 2235.01 173.366   3
  -4   0 -10 2195.13 170.589   3
   4   0  11-100.192 71.1980   3
  -4   0 -11-15.0219 57.7379   3
   4   0  11-158.785 114.003   2
  -4   0 -12 8953.66 381.653   3
   4   0  12 8687.99 436.031   2
   4   0  12 8744.21 372.043   3
  -4   0 -13-43.7613 67.3643   3
   4   0  13 13.9617 78.4509   2
  -4   0 -14 24175.6 665.587   3
   4   0  14 22392.0 759.908   2
   4   0  15-67.3447 111.073   2
  -4   0 -15 84.8560 99.8467   3
   4   0  16 61.7966 109.227   2
  -4   0 -16 28.0719 87.3903   3
   4   0  17 132.148 131.728   2
  -4   2  22 670.180 162.168   1
  -4   2  21 3255.51 299.027   1
  -4  -2  21 3482.99 296.677   1
  -4  -2  20 193.879 111.846   1
  -4   2  20 191.315 116.237   1
  -4  -2  19 786.877 151.927   2
  -4  -2  19 943.872 156.953   1
  -4  -2  18 92.0135 78.2093   2
  -4  -2  18 148.841 90.9085   1
  -4  -2  17 7165.21 398.118   2
  -4  -2  17 7009.24 368.612   1
  -4  -2  16-44.5761 85.5517   2
  -4  -2  16-62.7310 83.3881   1
  -4  -2  15 10091.0 423.793   2
  -4  -2  15 9913.10 404.220   1
  -4  -2  14 61.6156 59.4131   2
  -4  -2  14 56.0553 72.2131   1
  -4  -2  13 147.060 67.0353   2
  -4  -2  13 13.2218 72.3832   1
  -4  -2  13 206.608 75.1163   3
  -4  -2  12 232.338 71.9990   2
  -4   2  12 54.5420 61.9167   3
  -4  -2  12 57.6570 58.9241   1
   4  -2 -12 18.1539 56.0396   2
  -4  -2  12 182.762 61.7326   3
   4  -2 -11 41091.2 696.103   2
  -4  -2  11 41602.9 670.312   2
  -4   2  11 40795.2 749.345   3
  -4  -2  11 42207.1 709.792   1
  -4  -2  11 41928.6 708.163   3
  -4  -2  10 352.803 67.5445   3
   4  -2 -10 348.314 64.2289   2
  -4  -2  10 361.132 64.7086   2
  -4  -2  10 357.102 72.6805   1
  -4   2  10 309.065 70.4261   3
  -4  -2   9 55896.3 664.571   2
   4  -2  -9 54764.5 703.648   2
  -4  -2   9 56355.8 738.961   3
  -4  -2   9 57712.9 765.125   1
  -4   2   9 57591.5 804.748   3
   4  -2  -8 142.028 48.2315   2
  -4  -2   8 98.1237 33.9612   2
  -4  -2   8 134.410 52.3907   1
  -4   2   8 50.0669 46.8198   3
  -4   2   7 684.020 85.0147   3
  -4  -2   7 677.084 62.7599   2
   4  -2  -7 742.746 71.7785   2
  -4  -2   7 843.872 94.2344   1
  -4  -2   6 1514.59 115.413   1
   4   2  -6 1387.24 109.058   1
   4  -2  -6 1324.31 88.6453   2
  -4  -2   6 1338.79 77.4010   2
  -4   2   6 1289.27 110.213   3
  -4  -2   5 18899.7 361.397   1
   4   2  -5 18797.7 360.082   1
  -4   2   5 20127.1 372.376   3
   4   2  -4 712.221 75.7325   1
  -4  -2   4 703.207 79.2290   1
  -4  -2   3 999551. 2359.55   1
   4   2  -3 999999. 2365.84   1
   4   2  -2 25178.0 371.174   1
  -4  -2   2 25535.7 375.520   1
  -4  -2   1 20897.4 332.319   1
  -4   2   1 18104.8 247.128   1
  -4  -2   1 17306.9 229.001   2
   4   2  -1 19290.4 322.094   1
  -4  -2   0 25489.3 324.446   2
   4   2   0 27213.2 377.373   1
  -4  -2   0 28542.6 386.601   1
   4   2   0 26156.0 329.164   2
  -4   2   0 26893.7 256.463   1
   4  -2   1 5045.24 99.6317   1
  -4  -2  -1 5118.64 181.186   3
  -4  -2  -1 5520.21 172.287   2
  -4   2  -1 5039.53 99.9620   1
   4   2   1 4835.09 165.320   1
   4   2   1 5489.57 172.164   2
  -4   2  -2 13993.7 215.274   3
   4  -2   2 14289.9 156.898   1
  -4  -2  -2 13888.4 303.504   3
   4   2   2 14590.1 288.522   1
  -4  -2  -2 14411.9 308.530   2
   4   2   2 14767.2 313.249   2
   4   2   3 211472. 1281.65   2
   4  -2   3 201829. 641.875   1
  -4  -2  -3 206907. 1272.72   2
  -4  -2  -3 206289. 1223.34   3
   4   2   3 207448. 1229.25   3
  -4   2  -3 206174. 882.786   3
  -4   2  -4 5554.24 158.937   3
  -4  -2  -4 5369.93 213.731   3
  -4  -2  -4 5400.90 222.883   2
   4   2   4 5357.04 209.952   3
   4   2   4 5533.17 229.701   2
   4  -2   4 4921.85 114.975   1
  -4  -2  -5 33212.4 589.111   2
  -4  -2  -5 33268.1 539.986   3
   4   2   5 33940.1 549.819   3
   4   2   5 33160.5 591.436   2
   4  -2   5 34267.2 430.935   3
  -4   2  -5 34913.7 426.745   3
  -4  -2  -6 246.171 71.7847   2
  -4  -2  -6 79.7953 54.3568   3
   4  -2   6 100.543 43.4098   3
   4   2   6 123.160 55.5166   3
   4   2   6 226.154 79.8383   2
   4  -2   6 188.277 79.5590   2
  -4   2  -6 98.4878 41.2916   3
   4  -2   7 35099.8 689.039   2
   4  -2   7 36443.0 518.910   3
   4   2   7 35998.7 630.293   3
  -4   2  -7 36481.2 515.221   3
  -4  -2  -7 36262.6 623.117   3
   4   2   7 35863.9 691.010   2
   4   2   8 3775.29 242.500   2
   4  -2   8 3750.38 242.954   2
   4   2   8 3801.24 217.223   3
  -4  -2  -8 3724.29 215.305   3
   4  -2   8 3696.65 177.856   3
  -4   2  -8 3754.68 177.808   3
   4  -2   9 65690.8 795.292   3
   4   2   9 65537.6 1041.26   2
   4   2   9 65631.7 936.472   3
  -4   2  -9 67410.5 798.538   3
   4  -2   9 64914.4 1040.84   2
  -4  -2  -9 65723.1 929.760   3
   4   2  10 286.055 80.1625   3
   4  -2  10 458.112 109.236   2
   4  -2  10 356.855 73.9876   3
  -4   2 -10 334.130 68.3583   3
  -4  -2 -10 419.541 92.2528   3
   4   2  10 438.150 107.895   2
   4  -2  11 22447.3 523.084   3
  -4   2 -11 23259.9 531.237   3
   4  -2  11 22758.9 678.555   2
   4   2  11 22616.5 669.345   2
  -4  -2 -11 22436.8 595.112   3
   4  -2  12 137.143 111.596   2
   4  -2  12 169.154 88.4059   3
  -4  -2 -12 198.331 109.947   3
   4   2  12 66.1698 99.5470   2
  -4   2 -12 68.9692 77.3370   3
   4  -2  13 2716.92 268.801   2
   4   2  13 2536.03 256.983   2
  -4  -2 -13 2929.85 245.049   3
   4  -2  13 2816.34 212.832   3
  -4   2 -13 2711.72 201.392   3
   4   2  14 952.062 175.779   2
   4  -2  14 936.005 167.762   2
  -4  -2 -14 1070.57 168.208   3
   4  -2  15 26079.1 857.710   2
   4   2  15 25403.7 843.414   2
  -4  -2 -15 26659.1 767.851   3
  -4  -2 -16 17.8677 88.9560   3
   4  -2  16 192.063 124.609   2
  -4  -2 -17 4676.84 355.237   3
   4  -2  17 4778.73 407.901   2
  -4  -4  22 2162.32 276.888   2
  -4  -4  21-227.536 137.344   2
  -4  -4  20 8801.34 446.468   1
  -4  -4  20 8907.86 510.223   2
  -4  -4  19-87.8173 80.3236   1
  -4  -4  19-42.9262 98.2803   2
  -4  -4  18 6507.37 398.514   2
  -4  -4  18 6226.18 355.106   1
  -4  -4  17 1463.41 173.825   1
  -4  -4  17 1370.87 187.285   2
  -4  -4  16 2684.66 240.579   2
  -4  -4  16 2333.91 206.600   1
  -4  -4  15 3628.58 248.295   1
  -4  -4  15 3743.03 269.103   2
  -4  -4  14 28369.0 676.437   2
  -4  -4  14 27584.0 639.102   3
  -4  -4  14 29806.2 669.136   1
  -4  -4  13 17048.0 501.176   2
  -4  -4  13 17172.5 491.629   1
  -4  -4  13 16929.0 486.552   3
  -4  -4  12 64669.4 916.301   2
   4  -4 -12 65738.6 979.315   2
  -4  -4  12 65732.8 912.127   3
  -4  -4  12 64550.7 912.448   1
  -4  -4  11 110.418 57.8148   3
   4  -4 -11 77.2078 54.3080   2
  -4  -4  11 109.901 61.2658   1
  -4  -4  11 128.317 58.1729   2
  -4   4  11 61.3668 58.3548   3
  -4  -4  10 12354.9 355.439   2
   4  -4 -10 12144.9 380.596   2
  -4   4  10 12978.0 422.364   3
  -4  -4  10 12082.4 367.695   1
   4  -4  -9 3472.59 211.424   3
   4  -4  -9 3376.22 192.418   2
  -4   4   9 3571.25 213.420   3
  -4  -4   9 3177.15 184.063   1
   4  -4  -8 20507.1 473.212   3
  -4   4   8 21377.5 485.581   3
   4  -4  -8 21840.8 448.432   2
  -4  -4   8 22375.3 460.345   1
   4  -4  -7 542.743 86.2987   3
  -4  -4   7 688.754 86.3629   1
   4   4  -7 550.218 70.8593   1
  -4   4   7 468.769 77.3015   3
  -4  -4   6 48988.2 627.112   1
   4   4  -6 48614.1 622.744   1
  -4   4   6 50668.8 664.484   3
  -4  -4   5 10184.1 275.590   1
  -4   4   5 10826.3 293.613   3
   4   4  -5 10159.9 281.431   1
   4   4  -4 80430.7 760.770   1
  -4  -4   4 80534.2 760.964   1
  -4   4   4 78361.9 725.734   3
   4   4  -3 8311.16 243.618   1
  -4  -4   3 8008.41 236.576   1
  -4   4   3 8360.31 220.730   3
  -4  -4   2 1910.51 122.669   1
  -4   4   2 1954.70 100.691   3
   4   4  -2 1738.36 115.897   1
   4   4  -1 54318.0 608.476   1
  -4   4   1 51038.6 432.617   3
  -4  -4   1 54185.0 612.817   1
  -4  -4   0 111976. 891.971   1
   4   4   0 109653. 880.984   1
   4   4   1 76.1774 45.0714   1
  -4  -4  -1 79.2929 41.3031   2
  -4  -4  -1 73.5577 47.5604   3
  -4   4  -1 59.0933 15.2149   1
  -4   4  -2 3771.58 85.2314   3
  -4  -4  -2 4462.11 196.539   3
  -4  -4  -2 4143.36 180.907   2
   4   4   2 3354.51 165.908   1
  -4  -4  -3 120.875 61.9574   3
  -4   4  -3 76.3299 16.6617   3
  -4  -4  -3 115.483 51.2355   2
   4   4   3 170.407 62.6079   3
  -4  -4  -4 157567. 1259.82   2
   4   4   4 157101. 1230.97   3
  -4  -4  -4 158435. 1240.80   3
  -4   4  -4 148976. 604.264   3
   4   4   5 1756.98 141.112   3
  -4  -4  -5 1760.13 143.959   2
  -4  -4  -5 1638.26 137.735   3
  -4   4  -5 1710.48 77.7536   3
  -4  -4  -6 47509.8 783.544   2
   4   4   6 47403.5 750.102   3
  -4  -4  -6 46871.0 734.054   3
  -4   4  -6 48482.4 451.272   3
  -4  -4  -7 1738.91 163.505   2
   4  -4   7 1693.20 72.6363   1
   4  -4   7 1654.87 98.3338   3
  -4   4  -7 1746.53 99.8444   3
   4   4   7 1536.03 150.412   3
  -4  -4  -7 1708.40 156.336   3
  -4  -4  -8 36593.9 702.178   3
  -4   4  -8 39253.6 494.265   3
   4  -4   8 37206.5 378.541   1
   4  -4   8 37397.6 487.610   3
   4   4   8 36722.8 719.888   3
   4  -4   9 3145.51 240.505   2
   4  -4   9 3350.35 166.093   3
   4   4   9 2947.48 221.246   3
   4  -4   9 3025.23 119.585   1
  -4  -4  -9 3039.05 221.776   3
  -4   4  -9 3111.80 155.204   3
   4  -4  10 4395.87 199.539   3
   4  -4  10 3974.72 280.296   2
   4  -4  10 4215.60 159.102   1
  -4  -4 -10 4309.27 276.529   3
   4  -4  11 9026.94 443.656   2
   4  -4  11 9167.58 248.167   1
  -4  -4 -11 8830.50 401.556   3
   4  -4  11 9362.23 306.948   3
   4  -4  12 39360.0 951.006   2
   4  -4  12 37511.1 535.671   1
   4  -4  12 40129.1 671.140   3
  -4  -4 -12 38592.0 853.288   3
   4  -4  13 2806.37 274.287   2
   4  -4  13 2824.20 159.107   1
  -4  -4 -13 2809.86 248.981   3
   4  -4  14 19571.0 733.666   2
  -4  -4 -14 20546.9 678.016   3
   4  -4  15 1548.85 232.521   2
  -4  -4 -15 1855.85 240.072   3
  -4  -4 -16-49.7963 111.296   3
   4  -4  16 2.25156 107.279   2
  -4  -4 -17 360.779 148.653   3
   4  -4  17 323.563 146.822   2
  -4  -4 -18 5709.78 419.191   3
  -4  -4 -19 124.521 113.615   3
  -4  -6  22 272.515 120.491   2
  -4  -6  21 1973.87 258.935   2
  -4  -6  20 198.813 118.647   2
  -4  -6  19 1055.09 192.824   2
  -4  -6  19 1139.37 167.741   1
  -4  -6  18 215.463 86.3576   1
  -4  -6  18 299.487 109.926   2
  -4  -6  17 7286.19 409.333   2
  -4  -6  17 7582.79 375.399   1
  -4  -6  16 246.283 84.0808   1
  -4  -6  16 192.022 90.5954   2
  -4  -6  15 11969.5 442.969   1
  -4  -6  15 11465.3 468.038   2
  -4  -6  14 1487.29 165.251   1
  -4  -6  14 1208.27 159.691   2
  -4  -6  14 1193.54 138.819   3
   4  -6 -13 10629.0 443.638   3
  -4  -6  13 10032.3 378.367   1
  -4  -6  13 10583.2 404.442   2
  -4  -6  13 10741.2 382.336   3
  -4  -6  12 513.297 96.3761   3
  -4  -6  12 350.272 87.9209   1
   4  -6 -12 328.295 100.259   3
  -4  -6  11 58408.1 844.387   1
   4  -6 -11 58467.8 930.421   2
   4  -6 -11 55935.1 937.841   3
   4  -6 -10 324.020 85.5126   3
  -4  -6  10 284.122 68.4996   1
  -4   6  10 361.029 85.4806   3
   4  -6 -10 379.962 83.6423   2
  -4  -6   9 58834.4 794.808   1
   4   6  -9 59352.6 798.077   1
  -4   6   9 61422.9 910.704   3
   4  -6  -9 58937.0 877.746   3
   4   6  -8 1609.83 134.493   1
  -4  -6   8 1504.53 131.045   1
  -4   6   8 2133.91 173.681   3
   4  -6  -8 1854.46 164.450   3
   4  -6  -7 1832.58 159.439   3
  -4  -6   7 1443.54 134.392   1
  -4   6   7 2170.90 175.663   3
   4   6  -7 1645.02 144.102   1
  -4   6   6 4262.90 214.933   3
  -4  -6   6 2995.90 177.632   1
   4   6  -6 3372.12 184.195   1
   4  -6  -6 3965.24 206.853   3
   4   6  -5 193357. 1311.82   1
   4  -6  -5 188859. 1270.00   3
  -4   6   5 192176. 1304.95   3
  -4  -6   5 192908. 1293.86   1
   4   6  -4 8738.51 279.653   1
  -4  -6   4 9132.89 286.782   1
  -4   6   4 7851.40 250.655   3
   4  -6  -4 8134.10 251.391   3
   4   6  -3 6751.60 247.766   1
  -4  -6   3 6967.64 250.009   1
  -4   6   3 6285.22 209.221   3
   4  -6  -3 6530.29 208.889   3
  -4  -6   2 19604.7 411.584   1
   4   6  -2 19986.2 420.816   1
   4  -6  -2 19724.4 326.581   3
  -4   6   2 19303.1 329.726   3
  -4   6   1 15710.3 267.706   3
   4   6  -1 13752.9 349.524   1
  -4  -6   1 12951.1 336.421   1
  -4  -6   0 293.945 67.4882   3
   4   6   0 123.147 53.8983   1
  -4   6   0 275.921 41.8684   3
   4   6   1 34949.9 584.086   1
  -4  -6  -1 33533.2 567.212   3
  -4   6  -1 30661.1 260.864   3
  -4   6  -2 623.399 40.0302   1
  -4  -6  -2 485.660 81.6731   3
   4   6   2 869.660 99.8746   1
   4   6   3 12252.6 367.635   3
  -4  -6  -3 11769.4 359.112   3
  -4  -6  -3 12163.6 353.187   2
  -4  -6  -4 10254.1 343.243   2
  -4  -6  -4 9922.85 344.066   3
   4   6   4 10397.3 346.997   3
   4   6   5 22243.1 531.157   3
  -4  -6  -5 22088.6 529.590   2
  -4  -6  -5 21499.1 516.851   3
   4   6   6 102.531 73.7460   3
  -4  -6  -6 146.893 86.6975   2
  -4  -6  -6 149.336 72.3101   3
   4   6   7 39261.6 766.076   3
  -4  -6  -7 39243.4 748.755   3
  -4  -6  -8 782.053 116.376   3
  -4  -6  -9 15500.8 507.809   3
   4  -6   9 11768.2 157.526   1
   4  -6  10 2346.05 122.295   3
   4  -6  10 1701.99 74.2286   1
  -4  -6 -10 2084.29 213.857   3
   4  -6  11 42865.4 973.716   2
   4  -6  11 37944.3 389.888   1
   4  -6  11 43711.4 555.856   3
  -4  -6 -11 41750.3 894.274   3
   4  -6  12 1179.16 199.838   2
   4  -6  12 821.270 73.2029   1
  -4  -6 -12 1145.83 178.376   3
   4  -6  12 1289.76 123.516   3
   4  -6  13 1312.52 199.454   2
  -4  -6 -13 1493.50 195.473   3
   4  -6  14 5086.98 388.302   2
  -4  -6 -14 4722.62 350.026   3
   4  -6  15 18934.4 765.254   2
  -4  -6 -15 18940.7 702.848   3
  -4  -6 -16 107.851 102.344   3
   4  -6  16 142.363 105.729   2
   4  -6  17 2810.40 324.201   2
  -4  -6 -17 2934.28 312.747   3
  -4  -6 -18 602.693 178.732   3
  -4  -8  20 6603.46 444.216   2
  -4  -8  19 188.492 109.773   2
  -4  -8  18 5092.91 362.927   2
  -4  -8  18 4910.00 312.236   1
  -4  -8  17 522.676 133.562   2
  -4  -8  17 512.839 121.913   1
  -4  -8  16 653.885 133.567   2
  -4  -8  16 1048.43 143.895   1
   4  -8 -15 895.012 169.814   3
  -4  -8  15 628.548 128.588   2
  -4  -8  15 809.771 127.638   1
  -4  -8  15 514.605 99.1165   3
  -4  -8  14 19363.5 545.423   1
   4  -8 -14 18731.3 636.032   3
  -4  -8  14 17911.8 499.209   3
  -4  -8  13 2226.15 186.153   1
  -4  -8  13 2019.88 165.079   3
   4  -8 -13 2136.73 219.420   3
  -4  -8  12 69189.6 974.675   1
   4  -8 -12 68537.0 1123.25   3
  -4  -8  11 3347.38 221.437   1
   4  -8 -11 3783.86 268.095   3
   4  -8 -10 602.724 115.119   3
   4   8 -10 969.325 123.507   1
  -4  -8  10 1025.15 124.508   1
   4  -8  -9 200.206 88.4420   3
  -4  -8   9 92.1859 56.1954   1
  -4   8   9 274.912 85.2848   3
   4   8  -9 242.548 79.9504   1
  -4   8   8 37898.5 726.021   3
   4  -8  -8 35966.0 692.874   3
   4   8  -8 37364.6 654.728   1
  -4  -8   8 36451.7 636.046   1
   4  -8  -7 558.737 102.217   3
   4   8  -7 542.532 86.5117   1
  -4   8   7 463.147 91.7356   3
  -4  -8   7 486.756 80.4568   1
   4   8  -6 48679.8 726.654   1
   4  -8  -6 49891.2 737.926   3
  -4  -8   6 48738.8 722.596   1
  -4   8   6 50510.8 757.527   3
  -4   8   5 15752.4 402.455   3
   4   8  -5 15035.9 402.352   1
   4  -8  -5 15373.3 389.478   3
  -4  -8   5 14572.2 388.092   1
  -4   8   4 30891.1 529.671   3
   4   8  -4 29036.8 557.597   1
  -4  -8   4 27779.5 538.766   1
   4  -8  -4 31221.5 521.774   3
   4  -8  -3 505.316 72.9130   3
   4   8  -3 182.264 47.2985   1
  -4  -8   3 256.414 62.9197   1
  -4   8   3 519.081 76.1697   3
   4   8  -2 37906.7 652.555   1
  -4  -8   2 38345.8 629.360   1
  -4   8   2 35272.1 496.529   3
  -4  -8   2 34436.1 579.344   3
   4  -8  -2 36059.2 485.828   3
  -4   8   1 1609.95 98.2676   3
  -4  -8   1 1461.53 125.556   3
   4  -8  -1 1638.83 98.9935   3
   4   8  -1 1706.35 139.793   1
  -4  -8   0 96214.7 1003.97   3
  -4   8   0 99670.8 676.748   3
   4   8   0 98759.7 1053.42   1
  -4  -8  -1 5664.19 253.529   3
  -4   8  -1 5742.22 140.394   3
   4   8   1 7417.29 296.167   1
   4   8   2 1617.92 150.136   1
  -4  -8  -2 1650.14 151.449   3
  -4   8  -2 1527.45 84.6513   1
   4   8   3 2414.08 185.868   3
  -4  -8  -3 2285.89 174.493   3
  -4   8  -3 2782.86 96.1637   1
  -4  -8  -4 37184.2 709.080   3
   4   8   4 37384.0 725.356   3
  -4  -8  -5 3465.09 223.069   2
  -4  -8  -5 3728.12 230.336   3
   4   8   5 3873.00 242.632   3
  -4  -8  -6 94685.9 1193.02   3
  -4  -8  -7 734.909 120.068   3
  -4  -8  -8 36506.9 793.201   3
  -4  -8  -9 2398.28 220.761   3
  -4  -8 -10 14460.0 542.728   3
  -4  -8 -11 3825.38 302.081   3
  -4  -8 -12 47867.7 1041.88   3
   4  -8  13 4527.07 361.483   2
  -4  -8 -13 4345.22 328.239   3
  -4  -8 -14 10354.8 521.002   3
   4  -8  14 10289.2 547.917   2
   4  -8  15 456.696 160.571   2
  -4  -8 -15 459.011 132.640   3
   4  -8  16 62.9238 118.128   2
  -4  -8 -16 139.367 119.224   3
  -4  -8 -17 150.907 134.422   3
  -4 -10  21 1285.83 228.679   2
  -4 -10  20 564.745 165.386   2
  -4 -10  19 498.490 151.688   2
  -4 -10  18 1208.47 198.299   2
  -4 -10  17 13334.3 495.026   1
   4 -10 -17 13819.6 626.722   3
  -4 -10  17 12335.7 550.401   2
   4 -10 -16 1377.82 210.575   3
  -4 -10  16 1383.92 191.753   2
  -4 -10  16 1300.59 161.535   1
   4 -10 -15 2345.48 259.924   3
  -4 -10  15 2049.78 194.027   1
  -4 -10  14 282.675 74.2319   3
   4 -10 -14 370.440 115.764   3
  -4 -10  14 274.820 90.9215   1
  -4 -10  13 681.218 97.1131   3
  -4 -10  13 987.451 136.321   1
   4 -10 -13 666.001 146.270   3
  -4 -10  12 4617.50 262.118   1
   4 -10 -12 4655.04 314.032   3
   4  10 -11 4708.18 259.179   1
   4 -10 -11 4856.28 311.164   3
  -4 -10  11 5133.66 270.906   1
  -4 -10  10 4109.69 242.433   1
   4 -10 -10 3559.15 253.740   3
   4  10 -10 4064.52 241.216   1
  -4 -10   9 36291.4 694.978   1
   4  10  -9 37380.5 705.071   1
   4 -10  -9 36714.6 762.538   3
   4  10  -8 848.861 113.912   1
  -4 -10   8 730.808 108.797   1
   4 -10  -8 974.246 136.351   3
   4  10  -7 4591.06 248.684   1
  -4  10   7 4389.42 255.691   3
   4 -10  -7 4397.77 252.339   3
  -4 -10   7 5035.66 257.108   1
   4  10  -6 8696.18 336.642   1
   4 -10  -6 9392.50 346.285   3
  -4  10   6 9536.58 357.750   3
  -4 -10   6 8061.06 323.081   1
  -4 -10   5 20277.1 495.046   1
   4  10  -5 20728.1 514.916   1
  -4  10   5 19036.1 482.166   3
   4 -10  -5 18806.6 464.596   3
  -4 -10   4 1575.31 143.826   1
  -4  10   4 1368.13 126.427   3
   4  10  -4 1465.29 140.292   1
   4 -10  -4 1376.25 126.139   3
  -4  10   3 70493.6 830.367   3
   4 -10  -3 71824.9 809.363   3
   4  10  -3 72844.9 970.598   1
   4  10  -2 4988.59 260.772   1
  -4  10   2 5737.93 222.898   3
  -4 -10   2 6061.77 269.921   3
   4 -10  -2 6040.68 227.408   3
  -4  10   1 19492.6 381.352   3
  -4 -10   1 18596.2 465.167   3
   4  10  -1 16587.5 477.849   1
   4 -10  -1 19026.6 361.328   3
  -4  10   0 3335.43 149.347   3
   4  10   0 1813.44 177.836   1
  -4 -10   0 3379.59 222.771   3
   4 -10   0 3170.18 143.407   3
   4  10   1 17908.7 507.219   1
  -4 -10  -1 16729.6 466.534   3
  -4  10  -1 16062.3 281.584   3
   4 -10   1 16806.1 273.565   3
   4  10   2 101.525 67.2587   1
  -4  10  -2 73.4922 31.2326   1
  -4 -10  -2 83.9544 64.4912   3
   4  10   3 74870.3 1064.70   3
   4  10   3 73908.8 1059.98   1
  -4 -10  -3 74460.0 1026.12   3
  -4  10  -3 73247.3 635.017   1
  -4 -10  -4 3313.51 229.717   3
  -4  10  -4 3995.51 130.183   1
  -4 -10  -5 2912.81 225.089   3
  -4  10  -5 2840.70 92.0220   1
  -4 -10  -6 2046.53 199.342   3
  -4 -10  -7 26638.0 703.112   3
  -4 -10  -8 530.867 117.650   3
  -4 -10  -9 4081.20 296.599   3
  -4 -10 -10 1378.06 190.789   3
  -4 -10 -11 1097.54 179.699   3
  -4 -10 -12 492.939 144.393   3
  -4 -10 -13 1112.27 186.999   3
   4 -10  14 1043.45 199.600   2
  -4 -10 -14 1152.72 202.157   3
   4 -10  15 12851.3 657.178   2
  -4 -10 -15 12882.3 621.665   3
  -4 -10 -16 127.328 134.268   3
  -4 -12  20 3840.82 359.882   2
  -4 -12  18 1255.18 208.254   2
   4 -12 -18 1712.13 256.014   3
  -4 -12  17 16.9583 82.6575   2
   4 -12 -17 228.060 153.801   3
  -4 -12  16 117.039 77.4884   1
   4 -12 -16 25.1350 102.521   3
   4 -12 -15 51.7425 97.9415   3
  -4 -12  15 342.498 93.4631   1
   4 -12 -14 17767.0 668.162   3
  -4 -12  14 17272.7 542.193   1
   4 -12 -13 532.346 141.007   3
  -4 -12  13 380.805 94.2409   1
  -4 -12  12 9318.34 385.084   1
   4 -12 -12 9826.90 471.243   3
   4 -12 -11 1100.76 171.040   3
   4  12 -11 1063.62 144.307   1
  -4 -12  11 913.839 138.676   1
   4 -12 -10 132.900 99.3903   3
  -4 -12  10 194.080 83.3328   1
   4  12 -10 134.548 76.4850   1
  -4 -12   9 3502.55 235.796   1
   4 -12  -9 2752.17 234.642   3
   4  12  -9 3009.99 221.552   1
  -4 -12   8 28991.8 640.360   1
   4  12  -8 29436.6 667.636   1
   4 -12  -8 29222.8 704.305   3
  -4 -12   7 690.316 110.705   1
   4  12  -7 701.364 114.636   1
   4 -12  -7 730.368 127.616   3
   4  12  -6 20034.9 546.741   1
  -4  12   6 19845.5 552.023   3
  -4 -12   6 21299.9 552.524   1
   4 -12  -6 20372.0 538.616   3
  -4 -12   5 7060.76 313.582   1
  -4 -12   5 8425.24 321.069   3
  -4  12   5 8578.22 350.622   3
   4  12  -5 8202.94 351.964   1
   4 -12  -5 8299.69 331.036   3
  -4  12   4 22101.4 532.558   3
   4  12  -4 19111.3 542.832   1
  -4 -12   4 20785.8 499.016   3
   4 -12  -4 21521.8 505.805   3
  -4  12   3 4714.86 236.988   3
  -4 -12   3 5222.41 269.189   3
   4 -12  -3 4790.39 236.063   3
   4  12  -3 3414.54 246.920   1
   4  12  -2 25607.9 632.639   1
  -4 -12   2 22966.9 549.331   3
  -4  12   2 22913.1 493.035   3
   4 -12  -2 23502.9 475.716   3
  -4  12   1 2851.59 164.328   3
   4  12  -1 2679.29 212.328   1
   4 -12  -1 2852.20 156.851   3
  -4 -12   1 2605.43 194.373   3
  -4  12   0 58507.0 684.068   3
  -4 -12   0 58090.4 908.894   3
   4 -12   0 59562.8 657.957   3
   4 -12   1 13.9355 35.5753   3
  -4  12  -1 44.6678 37.7679   3
  -4 -12  -1 137.708 78.1124   3
  -4  12  -1 59.7297 52.2508   1
  -4 -12  -2 21120.6 582.215   3
   4 -12   2 22348.0 313.043   3
  -4  12  -2 21477.6 436.758   1
  -4  12  -3 4888.73 199.998   1
  -4 -12  -3 3181.75 242.432   3
  -4  12  -4 55290.8 599.958   1
  -4 -12  -4 56768.8 990.790   3
  -4 -12  -5 2146.15 199.005   3
  -4  12  -5 2251.49 109.634   1
  -4 -12  -6 33258.7 795.905   3
  -4  12  -6 29257.6 336.124   1
  -4 -12  -7 2347.54 234.569   3
  -4 -12  -8 1557.49 189.424   3
  -4 -12  -9 3186.56 277.864   3
  -4 -12 -10 3491.09 300.333   3
  -4 -12 -11 1078.27 190.135   3
  -4 -12 -12 9523.70 518.404   3
  -4 -12 -13 120.118 105.571   3
  -4 -12 -14 3395.97 330.043   3
   4 -12  15 78.0934 102.863   2
  -4 -12 -15-102.868 115.552   3
  -4 -14  19 344.302 133.472   2
  -4 -14  18 460.572 142.205   2
   4 -14 -16 24.3687 106.820   3
   4 -14 -15 8466.71 501.809   3
  -4 -14  15 7643.86 376.946   1
   4 -14 -14 765.285 172.228   3
  -4 -14  14 500.911 115.671   1
  -4 -14  13 5765.26 324.640   1
   4 -14 -13 4604.15 349.849   3
   4 -14 -12 378.994 123.125   3
  -4 -14  12 837.870 130.655   1
  -4 -14  11 15922.3 522.446   1
   4 -14 -11 14751.3 579.201   3
   4 -14 -10 114.652 84.5895   3
  -4 -14  10-70.9533 79.1772   1
  -4 -14   9 13532.1 472.778   1
   4 -14  -9 14459.4 543.863   3
  -4 -14   8 746.482 104.948   3
  -4 -14   8 1258.27 157.333   1
   4 -14  -8 787.861 143.993   3
  -4 -14   7 305.315 83.3912   3
   4 -14  -7 248.062 89.9087   3
  -4 -14   6-67.3287 74.5235   3
   4 -14  -6-27.0510 67.6139   3
  -4 -14   5 39832.1 736.295   3
   4 -14  -5 40960.0 779.580   3
  -4 -14   4 7740.10 325.932   3
  -4  14   4 7914.43 349.978   3
   4 -14  -4 8240.63 337.728   3
  -4 -14   3 60307.2 931.141   3
   4 -14  -3 63175.5 886.858   3
  -4  14   3 62161.1 924.682   3
  -4  14   2 92.0556 68.1099   3
  -4 -14   2 142.428 81.9408   3
   4 -14  -2 174.434 79.8266   3
  -4 -14   1 359.280 95.8267   3
   4 -14  -1 406.938 79.0129   3
  -4  14   1 402.576 76.9287   3
  -4  14   0 4219.15 207.316   3
  -4 -14   0 4290.99 271.494   3
   4 -14   0 4318.84 200.780   3
  -4 -14  -1 3332.08 250.770   3
  -4  14  -1 4582.86 245.804   1
   4 -14   1 3469.70 163.668   3
   4 -14   2 11676.6 263.046   3
  -4 -14  -2 11519.3 450.515   3
  -4  14  -2 11796.6 370.086   1
  -4  14  -3 35386.0 604.142   1
  -4 -14  -3 37463.1 841.290   3
  -4  14  -4 107.385 57.6608   1
  -4 -14  -4 110.816 96.0719   3
  -4 -14  -5 456.920 114.708   3
  -4  14  -5 803.530 82.0082   1
  -4  14  -6 227.425 47.2884   1
  -4 -14  -6 126.135 94.5272   3
  -4 -14  -7 685.631 145.394   3
  -4 -14  -8 714.299 159.740   3
  -4 -14  -9 24061.6 778.363   3
  -4 -14 -10 446.400 151.842   3
  -4 -14 -11 2037.33 266.291   3
  -4 -14 -12 1464.78 297.794   3
  -4 -14 -13 1746.75 248.613   3
   4 -16 -15-86.6861 123.848   3
   4 -16 -14 7585.58 478.054   3
  -4 -16  13 21.3192 86.3770   1
   4 -16 -13 93.8861 99.0877   3
   4 -16 -12 10412.5 533.022   3
   4 -16 -11 293.673 121.837   3
  -4 -16  11 315.011 93.9886   3
   4 -16 -10 62.8388 91.6486   3
  -4 -16  10-0.23182 60.1443   3
   4 -16  -9 260.286 108.403   3
  -4 -16   9 258.830 82.9688   3
  -4 -16   8 16025.7 482.633   3
   4 -16  -8 17092.4 599.633   3
  -4 -16   7 520.161 101.859   3
   4 -16  -7 655.893 139.677   3
  -4 -16   6 6786.13 325.103   3
   4 -16  -6 7057.60 360.662   3
  -4 -16   5 468.847 105.622   3
   4 -16  -5 572.669 115.159   3
  -4 -16   4 410.377 99.7275   3
   4 -16  -4 306.304 91.2852   3
  -4 -16   3 11374.4 436.735   3
  -4  16   3 11119.1 427.501   3
   4 -16  -3 11464.1 409.877   3
  -4 -16   2 3708.45 258.101   3
  -4  16   2 3438.26 232.588   3
   4 -16  -2 4061.21 237.000   3
  -4  16   1 3036.69 208.154   3
  -4 -16   1 3016.04 239.190   3
   4 -16  -1 3408.41 204.348   3
   4 -16   0 16128.7 418.114   3
  -4 -16   0 15520.4 534.248   3
  -4  16   0 14163.8 484.610   1
  -4  16  -1 2781.68 211.777   1
  -4 -16  -1 1652.17 195.677   3
   4 -16   1 1933.94 138.876   3
  -4  16  -2 1447.69 145.367   1
  -4 -16  -2 1338.72 178.983   3
   4 -16   2 1485.56 107.442   3
  -4 -16  -3-112.548 97.3998   3
  -4  16  -3 58.8444 62.3651   1
  -4 -16  -4 5450.01 351.345   3
  -4  16  -4 5136.99 249.234   1
  -4 -16  -5-48.3364 100.757   3
  -4 -16  -6 10186.6 501.371   3
  -4 -16  -7 216.168 112.112   3
  -4 -16  -8 2399.62 262.444   3
  -4 -16  -9 1307.72 222.973   3
  -4 -16 -10 1966.69 248.334   3
  -4 -16 -11 32.6060 104.606   3
  -4 -16 -12 3238.66 343.871   3
   4 -18 -13 527.633 161.090   3
   4 -18 -12 707.354 178.987   3
   4 -18 -11 11314.7 564.633   3
   4 -18 -10 363.792 124.436   3
   4 -18  -9 8756.07 472.620   3
  -4 -18   9 7772.85 350.862   3
   4 -18  -8 291.937 118.716   3
  -4 -18   8-2.35487 65.8619   3
  -4 -18   7 85.6073 69.4698   3
   4 -18  -7 243.791 108.911   3
  -4 -18   6 82.2883 68.8700   3
   4 -18  -6 227.354 98.3265   3
   4 -18  -5 11485.6 471.545   3
  -4 -18   5 10913.7 434.600   3
   4 -18  -4 723.989 134.492   3
  -4 -18   4 763.203 128.769   3
  -4 -18   3 17329.7 570.196   3
   4 -18  -3 18275.7 549.143   3
  -4 -18   2 690.165 140.959   3
   4 -18  -2 894.818 138.794   3
  -4 -18   1 1140.35 157.677   3
   4 -18  -1 1149.14 136.737   3
   4 -18   0 969.190 122.911   3
  -4 -18   0 807.715 149.915   3
  -4 -18  -1 10677.9 480.278   3
   4 -18   1 11329.2 353.138   3
   4 -18   2 587.575 83.4394   3
  -4 -18  -2 271.171 99.8847   3
  -4 -18  -3 6406.13 387.883   3
  -4 -18  -4 174.225 95.2939   3
  -4 -18  -5 7570.37 447.491   3
  -4 -18  -6 469.144 137.726   3
  -4 -18  -7 1759.73 236.473   3
  -4 -18  -8-103.159 111.527   3
  -4 -18  -9 7911.08 495.149   3
  -4 -18 -10 39.2877 111.087   3
   4 -20 -12 1287.82 228.991   3
   4 -20 -11-40.1527 114.214   3
   4 -20 -10 310.417 133.024   3
   4 -20  -9-23.6834 101.087   3
   4 -20  -8 3053.21 291.346   3
   4 -20  -7 23.4745 100.615   3
  -4 -20   7-20.3209 75.7702   3
  -4 -20   6 8760.44 407.813   3
   4 -20  -6 9317.45 469.081   3
   4 -20  -5 111.191 104.570   3
  -4 -20   5-63.9915 80.6895   3
   4 -20  -4 300.584 110.137   3
  -4 -20   4 150.928 86.3171   3
  -4 -20   3 2101.66 227.845   3
   4 -20  -3 2106.71 212.773   3
  -4 -20   2 6448.68 378.048   3
   4 -20  -2 6292.15 334.443   3
  -4 -20   1 507.897 127.831   3
   4 -20  -1 542.955 111.221   3
  -4 -20   0 7268.94 415.412   3
   4 -20   0 7721.56 335.958   3
  -4 -20  -1 162.805 106.004   3
  -4 -20  -2 279.624 109.684   3
  -4 -20  -3 258.547 117.478   3
  -4 -20  -4 1635.60 225.229   3
  -4 -20  -5 2038.26 250.794   3
  -4 -20  -6 7521.53 473.009   3
  -4 -20  -7-23.7513 118.400   3
  -4 -20  -8 531.405 161.944   3
   4 -22 -10 91.0994 113.311   3
   4 -22  -9 2004.09 263.854   3
   4 -22  -8 496.840 148.164   3
   4 -22  -7-127.633 117.965   3
   4 -22  -6 94.1002 107.390   3
   4 -22  -5 942.325 174.051   3
  -4 -22   5 963.838 157.137   3
   4 -22  -4 45.1894 92.8705   3
  -4 -22   4 19.2625 87.3755   3
  -4 -22   3 4452.38 331.753   3
   4 -22  -3 4729.41 323.954   3
  -4 -22   2 74.0120 96.6779   3
  -4 -22   1 1786.18 220.781   3
  -4 -22   0 165.414 112.305   3
  -4 -22  -1 721.987 154.995   3
  -4 -22  -2 829.063 175.408   3
  -4 -22  -3 5608.16 408.277   3
  -4 -22  -4 137.506 121.647   3
  -4 -22  -5 291.454 134.667   3
   4 -24  -8 182.306 121.991   3
   4 -24  -7 35.4961 109.101   3
   4 -24  -6 3737.30 340.934   3
  -4 -24   2 1820.56 234.789   3
  -4 -24   1 272.604 127.603   3
  -4 -24   0 4384.05 367.831   3
  -4 -24  -1-162.575 127.435   3
  -4 -24  -2 274.421 141.892   3
  -5   1  23-2.04410 100.337   1
  -5  -1  22 1654.19 222.964   1
  -5   1  22 1700.82 229.305   1
  -5  -1  21 1991.19 232.280   1
  -5   1  21 1626.96 214.855   1
  -5   1  20 26.0534 86.3860   1
  -5  -1  20 35.2119 93.2494   1
  -5   1  19 6114.49 374.606   1
  -5  -1  19 6098.31 374.786   1
  -5   1  18 1134.86 171.102   1
  -5  -1  18 1139.14 167.900   1
  -5  -1  17 2186.18 220.695   2
  -5   1  17 2037.46 216.351   1
  -5  -1  17 2115.28 215.422   1
  -5  -1  16 14664.6 517.040   2
  -5  -1  16 14384.0 516.535   1
  -5  -1  15 7974.69 362.956   2
  -5  -1  15 8102.20 374.465   1
  -5  -1  14 2123.57 178.833   2
  -5  -1  14 2005.01 183.441   1
  -5  -1  13 16563.6 465.313   2
  -5  -1  13 16524.8 497.196   1
  -5  -1  13 16661.5 503.994   3
  -5  -1  12 2498.61 174.883   2
  -5  -1  12 2665.42 193.191   1
  -5   1  12 2523.86 196.075   3
  -5  -1  12 2291.52 179.786   3
   5  -1 -11 16453.3 412.981   2
  -5  -1  11 16226.9 402.689   2
  -5  -1  11 16033.8 455.550   1
  -5   1  11 17113.3 481.342   3
  -5  -1  11 16769.9 465.194   3
  -5  -1  10 63663.5 866.204   1
   5  -1 -10 61023.8 736.962   2
  -5  -1  10 63387.0 728.794   2
  -5   1  10 63629.5 885.964   3
  -5  -1  10 63102.9 860.908   3
  -5   1   9 549.188 81.9529   3
   5  -1  -9 421.583 62.1372   2
  -5  -1   9 508.331 85.2205   1
  -5  -1   9 533.136 67.8331   2
  -5  -1   8 977.096 78.1003   2
   5  -1  -8 957.063 80.6653   2
  -5  -1   8 972.999 109.013   1
  -5   1   8 1034.24 116.064   3
   5  -1  -7 283.714 43.8423   2
  -5  -1   7 268.221 63.4161   1
  -5  -1   7 277.831 40.6531   2
  -5  -1   6 30570.9 498.260   1
  -5  -1   6 29505.4 280.012   2
   5  -1  -6 30258.1 341.949   2
  -5   1   5 30871.5 472.813   1
   5   1  -5 30873.7 477.720   1
  -5  -1   5 30941.3 475.436   1
  -5   1   4 123832. 893.375   1
   5   1  -4 126155. 923.015   1
  -5  -1   4 125201. 910.809   1
  -5  -1   3 140567. 917.021   1
  -5   1   3 143314. 885.307   1
   5   1  -3 142199. 935.278   1
   5   1  -2 230269. 1135.07   1
   5   1  -2 221609. 700.381   2
  -5  -1   2 231229. 1123.03   1
  -5   1   2 232609. 1047.92   1
   5  -1  -2 231174. 1060.96   1
  -5   1   1 132973. 739.278   1
   5   1  -1 133066. 676.066   2
   5   1  -1 130914. 842.433   1
   5  -1  -1 130870. 745.167   1
  -5  -1   1 131765. 846.397   1
   5   1   0 20776.2 336.057   1
   5   1   0 20882.6 314.521   2
   5  -1   0 20899.2 280.345   1
  -5  -1   0 21211.4 338.123   1
  -5   1   0 21263.1 284.391   1
   5   1   1 74569.9 665.661   2
   5  -1   1 73323.4 506.231   1
  -5  -1  -1 70130.6 616.756   1
  -5   1  -1 71309.2 506.337   1
   5   1   1 71433.3 619.322   1
   5   1   2 134877. 992.420   2
   5   1   2 134879. 867.812   1
  -5   1  -2 130739. 832.831   3
   5  -1   2 136351. 686.320   1
  -5  -1  -2 131150. 952.456   3
   5  -1   3 74007.5 532.967   1
   5   1   3 74379.1 801.761   2
   5   1   3 71144.4 648.134   1
  -5  -1  -3 72068.6 733.178   3
   5  -1   4 91851.6 968.755   2
  -5  -1  -4 90088.3 855.994   3
   5   1   4 89696.8 950.347   2
  -5   1  -4 90253.6 752.839   3
   5  -1   4 90631.9 623.135   1
   5  -1   5 24401.0 532.064   2
   5   1   5 24074.2 525.175   2
   5  -1   5 23010.7 336.918   1
  -5   1  -5 24643.6 417.342   3
  -5  -1  -5 24490.1 466.207   3
   5   1   5 24932.2 477.341   3
   5  -1   6 1679.75 154.079   2
  -5  -1  -6 1735.01 139.003   3
   5  -1   6 1830.54 126.168   3
  -5   1  -6 1693.39 120.845   3
   5   1   6 1754.38 136.599   3
   5   1   6 1770.46 160.265   2
   5  -1   7 15644.2 478.685   2
  -5  -1  -7 16012.6 419.004   3
   5   1   7 15506.6 409.258   3
   5  -1   7 15549.6 375.848   3
  -5   1  -7 15557.2 371.073   3
   5   1   7 15511.1 469.854   2
   5  -1   8 61865.0 784.772   3
   5   1   8 61682.7 984.951   2
   5   1   8 62523.4 869.087   3
  -5   1  -8 64168.1 804.028   3
   5  -1   8 62505.7 1003.29   2
  -5  -1  -8 62581.7 857.949   3
  -5  -1  -9 15.0876 57.2547   3
   5   1   9-53.3178 61.1150   3
   5  -1   9-56.4559 58.8066   3
   5  -1   9-37.5238 76.2705   2
   5   1   9-31.7058 66.4557   2
  -5   1  -9 28.1870 49.2832   3
   5  -1  10 23750.4 684.947   2
   5   1  10 23240.2 677.597   2
  -5  -1 -10 23739.3 585.365   3
  -5   1 -10 24732.3 552.652   3
   5  -1  10 24014.5 548.899   3
   5   1  10 23448.6 589.796   3
   5  -1  11 10947.3 487.703   2
   5   1  11 11163.5 486.357   2
   5  -1  11 11554.1 402.295   3
   5   1  11 11544.2 433.436   3
  -5  -1 -11 11794.9 430.531   3
  -5   1 -11 11534.0 401.516   3
  -5   1 -12-4.10130 66.1388   3
   5  -1  12 48.0142 66.4314   3
   5   1  12-36.9233 86.3214   2
   5  -1  12 15.5147 78.6000   2
  -5  -1 -12-32.5478 66.7722   3
  -5  -1 -13 20991.2 625.880   3
   5   1  13 19034.6 699.494   2
   5  -1  13 19514.9 705.631   2
  -5   1 -13 21024.9 590.711   3
   5   1  14 5999.63 408.513   2
   5  -1  14 5971.60 408.674   2
  -5   1 -14 6827.86 350.761   3
  -5  -1 -14 6995.16 380.102   3
   5   1  15 508.411 149.224   2
  -5  -1 -15 515.110 129.084   3
  -5   1 -15 599.793 135.670   3
   5  -1  15 627.480 163.048   2
   5   1  16 6270.78 450.703   2
   5  -1  16 6296.40 458.586   2
  -5  -1 -16 6379.40 395.421   3
  -5  -1 -17 304.707 112.341   3
   5   1  17 456.003 158.778   2
   5  -1  17 651.054 188.154   2
  -5   3  22 1743.49 238.031   1
  -5   3  21 3096.99 297.425   1
  -5  -3  21 3253.68 289.207   1
  -5  -3  20-12.0985 83.2268   1
  -5  -3  20-97.5690 104.052   2
  -5  -3  19 3919.14 302.283   1
  -5  -3  19 4051.96 316.494   2
  -5  -3  18 2719.74 257.431   2
  -5  -3  18 2628.24 240.409   1
  -5  -3  17 711.042 141.500   1
  -5  -3  17 662.425 134.195   2
  -5  -3  16 17341.2 562.926   1
  -5  -3  16 16928.4 555.850   2
  -5  -3  15 3529.63 245.065   2
  -5  -3  15 3633.52 254.300   1
  -5  -3  14 870.805 137.394   1
  -5  -3  14 1102.32 142.553   2
   5  -3 -13 23997.8 593.541   2
  -5  -3  13 24123.8 566.890   2
  -5  -3  13 24477.3 605.107   1
  -5  -3  13 23753.4 592.166   3
   5  -3 -12 13581.8 425.668   2
  -5  -3  12 14001.2 401.558   2
  -5  -3  12 14604.6 451.739   1
  -5  -3  12 14382.9 442.400   3
  -5  -3  11 16261.6 449.168   3
  -5  -3  11 15606.1 443.463   1
  -5  -3  11 15389.5 391.964   2
   5  -3 -11 15298.1 424.802   2
  -5   3  11 16535.3 487.276   3
  -5  -3  10 47910.1 639.065   2
   5  -3 -10 48447.7 701.980   2
  -5  -3  10 48943.1 758.736   1
  -5   3  10 49078.2 796.857   3
  -5  -3   9 2611.56 138.846   2
   5  -3  -9 2663.03 157.229   2
  -5  -3   9 2960.27 183.642   1
  -5   3   9 2586.72 183.957   3
  -5  -3   8 16324.6 307.774   2
   5  -3  -8 15783.4 351.598   2
  -5  -3   8 15905.4 400.931   1
  -5   3   8 17326.3 435.105   3
   5   3  -7 38454.0 598.738   1
  -5   3   7 39514.6 624.595   3
  -5  -3   7 38529.5 605.982   1
  -5  -3   6 3465.10 175.651   1
   5   3  -6 3191.09 169.495   1
  -5   3   6 2877.79 162.359   3
  -5   3   5 3709.49 173.505   3
  -5  -3   5 2957.43 160.415   1
   5   3  -5 3249.67 169.521   1
  -5  -3   4 126159. 962.652   1
   5   3  -4 125360. 968.002   1
   5   3  -3 14025.5 319.286   1
  -5  -3   3 13879.3 321.812   1
  -5  -3   2 496.337 75.2459   1
   5   3  -2 346.295 71.8528   1
  -5   3   1 5812.46 152.340   1
  -5  -3   1 5947.07 206.721   1
   5   3  -1 6028.70 209.619   1
  -5  -3   1 5833.39 161.508   2
  -5   3   0 99.3879 28.8433   1
  -5  -3   0 105.138 43.0315   1
   5   3   0 127.545 49.4931   1
  -5  -3   0 128.996 42.3744   2
  -5  -3  -1 53747.8 599.310   2
  -5   3  -1 54540.2 354.138   1
   5   3   1 54404.9 629.265   1
   5   3   2 67730.0 723.749   1
  -5  -3  -2 71104.0 748.061   2
  -5  -3  -2 71421.8 779.623   3
   5   3   2 70924.2 745.391   2
  -5  -3  -3 37780.2 587.811   2
   5   3   3 37657.2 582.981   2
  -5   3  -3 36426.8 374.073   3
  -5  -3  -3 36280.4 572.789   3
   5   3   3 36247.1 538.193   1
  -5   3  -4 24293.3 328.594   3
  -5  -3  -4 24178.8 504.926   2
   5   3   4 21215.9 423.352   1
  -5  -3  -4 24517.9 493.680   3
   5   3   4 23913.5 496.476   2
   5   3   4 24299.1 492.025   3
  -5  -3  -5 29428.9 592.726   2
   5  -3   5 26950.8 255.158   1
   5   3   5 29324.6 582.491   2
  -5   3  -5 30783.5 393.862   3
  -5  -3  -5 28882.9 558.740   3
   5   3   5 29201.3 565.458   3
   5  -3   6 2490.58 91.2506   1
  -5  -3  -6 2834.60 194.460   2
   5   3   6 3026.31 188.790   3
  -5   3  -6 2912.90 131.093   3
  -5  -3  -6 2829.26 181.157   3
   5   3   6 2971.00 200.979   2
   5  -3   7 31105.3 690.683   2
   5  -3   7 30551.0 352.206   1
   5   3   7 30132.9 658.980   2
  -5  -3  -7 30053.0 616.502   3
  -5  -3  -7 30664.5 676.258   2
   5   3   7 30726.9 628.623   3
  -5   3  -7 31237.3 464.062   3
   5  -3   8 15760.8 513.181   2
   5   3   8 15431.8 496.106   2
  -5  -3  -8 15621.2 466.711   3
  -5   3  -8 16409.7 359.139   3
   5  -3   8 16464.1 367.064   3
   5   3   8 15753.2 471.873   3
   5   3   9 11790.0 425.570   3
   5  -3   9 11951.4 471.379   2
   5  -3   9 12141.1 338.587   3
  -5  -3  -9 11640.5 424.409   3
   5   3   9 11416.2 451.104   2
  -5   3  -9 12192.0 333.412   3
   5  -3  10 4185.25 211.189   3
   5  -3  10 4172.94 297.184   2
   5   3  10 3887.19 288.168   2
  -5  -3 -10 4279.45 273.616   3
  -5   3 -10 4224.17 210.333   3
   5  -3  11 37524.2 913.821   2
   5   3  11 35308.5 862.991   2
  -5  -3 -11 37423.4 809.781   3
   5  -3  11 36879.6 647.249   3
  -5   3 -11 38865.3 661.474   3
   5  -3  12 2025.57 231.219   2
   5   3  12 1889.79 221.392   2
  -5   3 -12 2127.25 171.489   3
  -5  -3 -12 2028.87 208.429   3
   5  -3  12 1814.39 155.137   3
   5  -3  13 18696.9 695.130   2
   5   3  13 17694.7 672.914   2
   5  -3  13 18476.6 404.749   1
  -5  -3 -13 18476.9 614.303   3
   5  -3  14 11770.3 578.610   2
  -5  -3 -14 12211.4 521.792   3
  -5  -3 -15 873.830 162.030   3
   5  -3  15 875.728 181.277   2
  -5  -3 -16 7630.83 447.973   3
   5  -3  16 6820.58 483.258   2
  -5  -3 -17 896.897 178.338   3
  -5  -3 -18 1031.90 198.071   3
  -5  -5  22 389.227 143.550   2
  -5  -5  21 1336.08 194.718   1
  -5  -5  21 1315.03 208.894   2
  -5  -5  20-91.5901 98.7204   1
  -5  -5  20 3.59002 87.3259   2
  -5  -5  19 2113.98 243.920   2
  -5  -5  19 1955.28 218.875   1
  -5  -5  18-7.27756 75.1581   1
  -5  -5  18 87.5867 85.4741   2
  -5  -5  17 1530.02 189.267   2
  -5  -5  17 1583.63 183.319   1
  -5  -5  16 10386.0 444.925   2
  -5  -5  16 10495.4 435.790   1
  -5  -5  15 13500.9 479.227   2
  -5  -5  15 14583.3 495.625   1
  -5  -5  14 33686.0 719.720   2
  -5  -5  14 32998.6 712.628   3
  -5  -5  14 33509.2 724.145   1
  -5  -5  13 41575.7 753.896   2
   5  -5 -13 41344.1 810.618   2
  -5  -5  13 41440.9 767.830   3
  -5  -5  13 42218.3 786.605   1
   5  -5 -12 20996.7 553.522   2
  -5  -5  12 20134.9 511.801   3
  -5  -5  12 19721.7 490.157   2
  -5  -5  12 22250.7 552.446   1
  -5  -5  11 14523.6 436.793   1
  -5  -5  11 14792.5 401.524   2
   5  -5 -11 15324.4 452.976   2
  -5  -5  10 36426.9 661.373   1
  -5   5  10 35206.7 710.396   3
   5  -5 -10 34962.3 646.420   2
  -5  -5   9 2174.90 161.639   1
   5   5  -9 2140.78 160.502   1
  -5   5   9 2041.05 170.718   3
  -5  -5   8 68225.3 842.374   1
   5   5  -8 66316.2 831.256   1
  -5   5   8 69101.9 896.325   3
  -5  -5   7 100810. 992.110   1
   5   5  -7 100197. 1002.67   1
  -5   5   7 102549. 1040.55   3
  -5  -5   6 1879.26 172.400   1
  -5   5   6 1886.23 151.536   3
   5   5  -6 2011.36 174.337   1
   5   5  -5 1360.96 125.377   1
  -5  -5   5 1162.15 120.450   1
  -5   5   5 1825.70 131.890   3
  -5   5   4 402.472 72.1805   3
   5   5  -4 329.587 71.0311   1
  -5  -5   4 390.142 79.3011   1
  -5   5   3 528.180 72.7094   3
  -5  -5   3 794.769 102.132   1
   5   5  -3 708.773 93.1446   1
  -5  -5   2 54587.4 681.725   1
   5   5  -2 55143.7 696.329   1
   5   5  -1 43965.1 615.374   1
  -5  -5   1 43413.5 611.808   1
  -5   5   1 43820.7 439.436   3
   5   5   0 1936.81 140.141   1
  -5  -5   0 1959.28 136.544   1
  -5  -5   0 1476.01 126.407   3
  -5  -5  -1 179.793 67.5535   3
   5   5   1 170.053 58.3115   1
  -5   5  -1 201.433 27.0396   1
  -5  -5  -1 214.634 54.7776   2
  -5  -5  -2 20625.1 463.152   3
   5   5   2 21624.8 457.410   1
  -5  -5  -2 21364.8 441.101   2
  -5  -5  -3 33782.9 607.837   3
   5   5   3 34538.0 591.309   1
  -5  -5  -3 33573.7 590.660   2
   5   5   4 15292.9 400.459   1
  -5  -5  -4 16459.2 435.380   2
  -5  -5  -4 16368.8 443.100   3
  -5   5  -4 13844.0 168.715   3
   5   5   4 17317.2 450.487   3
   5   5   5 3256.38 203.773   3
  -5  -5  -5 2994.60 199.813   3
  -5  -5  -5 3045.40 199.578   2
  -5   5  -5 2485.56 84.9123   3
  -5  -5  -6 711.217 108.945   2
  -5  -5  -6 553.082 96.2957   3
  -5   5  -6 710.181 53.1948   3
   5   5   6 763.914 107.565   3
   5   5   7 41980.4 786.272   3
  -5  -5  -7 41576.8 768.059   3
  -5   5  -7 41439.9 425.488   3
  -5  -5  -8 10748.5 410.144   3
  -5   5  -8 10598.4 236.898   3
   5  -5   9 363.923 33.1996   1
   5  -5   9 389.532 32.2272   1
  -5  -5  -9 551.181 114.575   3
  -5  -5 -10 29750.8 736.597   3
   5  -5  10 26955.8 305.961   1
   5  -5  10 30833.1 809.758   2
   5  -5  10 26539.2 293.868   1
   5  -5  11 23555.7 736.782   2
  -5  -5 -11 23467.8 684.177   3
  -5  -5 -12 1512.46 194.195   3
   5  -5  12 1568.88 214.916   2
   5  -5  12 1353.23 82.2930   1
   5  -5  13 18426.2 712.256   2
  -5  -5 -13 17423.7 626.174   3
   5  -5  14 13778.0 637.010   2
  -5  -5 -14 14044.8 581.112   3
   5  -5  15 409.768 131.346   2
  -5  -5 -15 206.111 103.034   3
   5  -5  16 4442.08 399.107   2
  -5  -5 -16 4419.17 360.783   3
  -5  -5 -17 3075.50 314.120   3
  -5  -5 -18 358.363 152.094   3
  -5  -7  22 1756.11 254.979   2
  -5  -7  21 2610.10 286.249   2
  -5  -7  20-62.1939 97.4703   2
  -5  -7  20 64.4238 81.6430   1
  -5  -7  19 2652.49 251.246   1
  -5  -7  19 2689.14 272.703   2
  -5  -7  18 2000.03 212.893   1
  -5  -7  18 1997.82 226.099   2
  -5  -7  17 343.696 96.7324   1
  -5  -7  17 487.715 117.926   2
  -5  -7  16 26.1780 73.5449   2
  -5  -7  16-1.71700 68.6532   1
  -5  -7  15 4628.96 292.582   2
  -5  -7  15 4947.28 298.469   1
  -5  -7  14 12098.4 447.318   2
  -5  -7  14 12409.8 454.555   1
  -5  -7  14 12226.4 429.569   3
  -5  -7  13 18410.6 533.726   1
  -5  -7  13 17353.1 486.655   3
  -5  -7  12 33947.4 697.491   1
   5  -7 -12 31555.0 743.536   3
   5  -7 -11 12510.2 451.563   3
  -5  -7  11 12463.7 411.792   1
   5  -7 -11 12754.4 440.321   2
   5  -7 -10 14578.3 472.970   3
   5   7 -10 14607.2 433.720   1
  -5  -7  10 14203.7 427.038   1
   5  -7  -9 500.924 107.856   3
  -5  -7   9 1252.68 140.613   1
   5   7  -9 985.038 127.366   1
  -5   7   9 730.484 122.501   3
  -5  -7   8 72.8492 59.4780   1
   5  -7  -8 117.399 76.9143   3
   5   7  -8 96.1578 57.6970   1
  -5   7   8 178.050 68.6439   3
  -5  -7   7 64536.9 849.623   1
  -5   7   7 62953.3 867.468   3
   5   7  -7 62793.5 838.720   1
   5  -7  -7 60983.3 838.551   3
   5   7  -6 15278.9 416.887   1
  -5   7   6 14925.0 400.815   3
   5  -7  -6 14649.8 391.440   3
  -5  -7   6 15884.8 411.882   1
   5  -7  -5 12161.1 336.034   3
  -5  -7   5 11778.2 359.603   1
   5   7  -5 11808.0 365.206   1
  -5   7   5 12804.3 354.176   3
  -5  -7   4 81818.5 914.600   1
   5   7  -4 85350.4 954.510   1
  -5   7   4 86357.1 855.923   3
   5   7  -3 4201.78 217.040   1
  -5   7   3 3191.46 157.481   3
  -5  -7   3 4679.71 227.174   1
  -5   7   2 15929.5 317.303   3
  -5  -7   2 13577.3 379.963   1
   5   7  -2 14323.6 395.210   1
   5   7  -1 43559.7 697.424   1
  -5  -7   1 42405.9 665.613   1
  -5  -7   1 40528.0 652.387   3
  -5   7   1 41111.3 460.736   3
  -5  -7   0 107.851 54.9134   3
   5   7   0 139.059 57.8063   1
  -5   7   0 175.969 34.8924   3
  -5  -7  -1 107.836 58.9817   3
  -5   7  -1 101.193 23.6326   3
   5   7   1 143.627 58.9096   1
   5   7   2 5595.30 264.388   1
  -5   7  -2 4559.85 110.104   1
  -5  -7  -3 34612.8 635.122   2
  -5  -7  -3 34979.1 664.663   3
   5   7   3 36073.6 668.098   1
   5   7   4 19051.1 517.411   3
  -5  -7  -4 19682.2 508.460   2
  -5  -7  -4 19016.0 503.984   3
   5   7   4 19563.6 500.807   1
   5   7   5 10902.0 406.848   3
  -5  -7  -5 11641.4 410.058   2
  -5  -7  -5 10956.1 397.613   3
  -5  -7  -6 32.2020 85.0089   3
  -5  -7  -7 36863.4 778.052   3
  -5  -7  -8 137.145 82.8761   3
  -5  -7  -9 1005.47 152.134   3
  -5  -7 -10 15405.8 553.478   3
  -5  -7 -11 16050.3 593.242   3
   5  -7  12 686.293 140.381   2
  -5  -7 -12 1102.68 180.578   3
   5  -7  13 27279.3 873.885   2
  -5  -7 -13 26637.1 806.071   3
   5  -7  14 4971.09 401.049   2
  -5  -7 -14 5375.29 386.152   3
   5  -7  15 790.592 184.662   2
  -5  -7 -15 931.414 181.772   3
  -5  -7 -16 2026.05 264.733   3
   5  -7  16 1926.17 279.453   2
  -5  -7 -17 2063.55 266.030   3
  -5  -9  21 1020.26 194.316   2
  -5  -9  20-181.934 110.066   2
  -5  -9  19 4473.75 348.495   2
  -5  -9  19 4654.57 320.777   1
  -5  -9  18 2647.42 264.264   2
  -5  -9  18 2826.10 247.508   1
  -5  -9  17 98.2519 95.6411   2
  -5  -9  17-37.6246 83.0532   1
  -5  -9  16 6517.16 370.370   2
  -5  -9  16 6880.61 359.333   1
  -5  -9  15 9810.35 435.352   2
  -5  -9  15 10175.4 424.760   1
   5  -9 -14 2292.68 237.961   3
  -5  -9  14 1763.72 182.455   1
  -5  -9  14 1951.56 174.133   3
   5  -9 -13 277.201 121.046   3
  -5  -9  13 231.942 89.8508   1
  -5  -9  12 4954.39 277.791   1
   5  -9 -12 4497.12 302.625   3
   5   9 -11 20325.2 547.473   1
  -5  -9  11 18371.3 519.039   1
   5  -9 -11 20463.3 605.289   3
  -5  -9  10 46490.8 795.878   1
   5   9 -10 47611.0 822.795   1
   5  -9 -10 44275.7 850.127   3
   5   9  -9 5668.83 280.465   1
  -5  -9   9 5635.21 275.446   1
   5  -9  -9 5675.59 303.949   3
   5   9  -8 127.866 61.7590   1
   5  -9  -8 326.114 91.5036   3
  -5   9   8 270.895 74.1483   3
  -5  -9   8 178.552 74.3200   1
   5   9  -7 31451.8 646.751   1
  -5  -9   7 30281.3 617.585   1
   5  -9  -7 30726.0 627.684   3
  -5   9   7 31178.0 645.322   3
   5   9  -6 4620.50 251.744   1
  -5  -9   6 4102.28 234.901   1
  -5   9   6 5210.07 257.989   3
   5  -9  -6 5083.03 251.922   3
   5   9  -5 4852.47 250.159   1
  -5   9   5 6235.99 263.668   3
  -5  -9   5 4339.76 239.889   1
   5  -9  -5 5819.98 253.181   3
   5  -9  -4 10627.5 321.250   3
  -5  -9   4 12830.2 396.659   1
  -5   9   4 10320.6 324.651   3
   5   9  -4 12589.3 403.312   1
  -5   9   3 7103.57 251.689   3
   5   9  -3 7901.15 316.740   1
  -5  -9   3 7915.74 314.626   1
   5  -9  -3 7217.74 247.486   3
   5  -9  -2 37769.0 517.785   3
   5   9  -2 38179.4 705.982   1
  -5  -9   2 37231.0 657.114   3
  -5   9   2 38558.6 547.773   3
  -5   9   1 80856.4 713.888   3
   5   9  -1 80395.6 1012.58   1
  -5  -9   1 81023.7 990.929   3
   5   9   0-27.6705 54.8559   1
  -5  -9   0-43.3288 73.3468   3
  -5   9   0 46.9323 26.8587   3
   5   9   1 1328.13 144.350   1
  -5  -9  -1 1657.90 153.759   3
  -5   9  -1 1740.44 82.1122   3
   5   9   2 50786.2 850.574   1
  -5  -9  -2 46663.7 796.697   3
  -5   9  -2 48272.8 472.745   1
  -5   9  -3 959.814 57.7658   1
   5   9   3 1263.24 145.537   1
  -5  -9  -3 1574.42 156.759   3
  -5  -9  -4 510.404 111.446   3
   5   9   4 790.735 127.522   1
  -5  -9  -4 591.545 108.908   2
  -5  -9  -5 44777.8 842.344   3
  -5  -9  -6 283.269 81.9987   3
  -5  -9  -7 29861.1 733.139   3
  -5  -9  -8 6251.07 354.007   3
  -5  -9  -9 3865.87 284.578   3
  -5  -9 -10 8379.12 432.889   3
  -5  -9 -11 12651.0 542.661   3
  -5  -9 -12 935.680 170.955   3
   5  -9  13 2900.46 303.159   2
  -5  -9 -13 2818.06 282.355   3
   5  -9  14 4466.80 389.269   2
  -5  -9 -14 4802.70 382.168   3
   5  -9  15-105.386 138.154   2
  -5  -9 -15 90.8264 105.787   3
  -5  -9 -16 2211.88 279.126   3
  -5 -11  20 534.002 156.264   2
  -5 -11  19 1185.98 200.260   2
  -5 -11  18 419.053 132.282   2
  -5 -11  17 2269.02 240.424   2
  -5 -11  17 1983.87 212.086   1
   5 -11 -16 3181.42 308.268   3
  -5 -11  16 2836.59 239.873   1
   5 -11 -15 4050.22 334.660   3
  -5 -11  15 4935.96 304.385   1
   5 -11 -14 116.653 111.554   3
  -5 -11  14-108.297 89.9128   1
   5 -11 -13 10650.2 491.575   3
  -5 -11  13 11365.7 444.680   1
  -5 -11  12 13541.7 470.532   1
   5 -11 -12 13836.6 540.480   3
  -5 -11  11 1209.22 153.318   1
   5 -11 -11 1358.79 176.751   3
  -5 -11  10 3698.95 245.541   1
   5  11 -10 3878.09 253.995   1
   5 -11 -10 3840.76 270.655   3
  -5 -11   9 2453.98 199.903   1
   5  11  -9 2256.55 192.613   1
   5 -11  -9 1929.13 191.721   3
  -5 -11   8 349.550 88.5361   1
   5 -11  -8 240.036 88.9709   3
   5  11  -8 285.089 82.7062   1
   5 -11  -7 198.316 78.1314   3
   5  11  -7 99.6506 55.3306   1
  -5 -11   7 150.360 72.3234   1
  -5  11   7 215.653 85.7420   3
  -5 -11   6 1547.47 164.618   1
  -5  11   6 1087.16 137.309   3
   5  11  -6 1370.46 160.640   1
   5 -11  -6 1233.98 142.418   3
  -5  11   5 44580.0 758.593   3
   5  11  -5 44776.7 810.352   1
  -5 -11   5 43150.7 776.016   1
   5 -11  -5 43460.9 719.875   3
  -5 -11   4 36181.8 669.775   3
   5  11  -4 36941.4 740.080   1
  -5  11   4 36404.1 645.150   3
  -5 -11   4 34145.8 690.786   1
   5 -11  -4 36448.1 625.879   3
  -5 -11   3 4936.94 255.281   3
  -5  11   3 4997.85 229.496   3
   5  11  -3 4466.64 263.732   1
   5 -11  -3 5045.25 224.268   3
  -5 -11   2 22253.0 548.995   3
   5  11  -2 21510.4 574.988   1
  -5  11   2 23014.2 458.862   3
   5 -11  -2 23046.2 444.494   3
   5  11  -1 39639.0 779.197   1
  -5 -11   1 34265.7 687.007   3
  -5  11   1 35023.1 529.878   3
   5 -11  -1 35397.1 510.909   3
  -5 -11   0 891.402 135.717   3
  -5  11   0 899.186 84.9300   3
   5  11   0 1062.38 147.787   1
  -5  11  -1 6227.78 179.356   3
  -5 -11  -1 6035.15 307.739   3
  -5  11  -2 28195.3 438.175   1
  -5 -11  -2 30328.8 696.475   3
  -5  11  -3 9271.53 227.128   1
  -5 -11  -3 8075.92 373.312   3
  -5 -11  -4 28257.3 694.109   3
  -5  11  -4 26471.5 315.485   1
  -5 -11  -5 14849.3 531.009   3
  -5 -11  -6 1015.22 147.323   3
  -5 -11  -7 12844.1 511.044   3
  -5 -11  -8 184.989 101.217   3
  -5 -11  -9 48.8665 93.4524   3
  -5 -11 -10 519.537 125.892   3
  -5 -11 -11 6293.90 410.167   3
  -5 -11 -12-111.849 108.065   3
  -5 -11 -13 6273.36 429.444   3
   5 -11  14 516.616 161.396   2
  -5 -11 -14 928.642 196.179   3
  -5 -11 -15 327.401 138.895   3
  -5 -13  19 4040.24 349.031   2
  -5 -13  18 1633.93 227.528   2
   5 -13 -16 5058.77 395.687   3
  -5 -13  16 5198.37 325.192   1
  -5 -13  15 4787.09 306.776   1
   5 -13 -15 4897.49 376.359   3
   5 -13 -14 266.680 128.026   3
  -5 -13  14 232.958 94.6101   1
   5 -13 -13 3713.93 311.028   3
  -5 -13  13 3469.12 263.342   1
  -5 -13  12 2843.47 232.984   1
   5 -13 -12 1917.74 227.220   3
   5 -13 -11 265.000 105.282   3
  -5 -13  11 69.8211 69.7772   1
  -5 -13  10 10413.0 423.296   1
   5 -13 -10 9733.38 445.058   3
   5 -13  -9 1583.79 189.072   3
  -5 -13   9 1434.67 167.325   1
   5 -13  -8 137.939 84.6767   3
  -5 -13   8 165.127 81.6812   1
   5 -13  -7 16361.2 514.749   3
  -5 -13   7 15265.7 502.052   1
  -5 -13   6 5330.83 273.365   3
   5 -13  -6 5940.09 308.560   3
   5 -13  -5 49.1088 64.4641   3
  -5  13   5 115.072 69.6330   3
  -5 -13   5-40.5670 76.1982   3
  -5 -13   4 30625.7 659.537   3
  -5  13   4 31269.5 652.351   3
   5 -13  -4 31809.3 631.602   3
  -5 -13   3 2088.02 190.659   3
  -5  13   3 2057.64 170.823   3
   5 -13  -3 2081.11 166.570   3
   5 -13  -2 845.187 104.080   3
  -5 -13   2 829.368 125.353   3
  -5  13   2 944.697 108.336   3
  -5 -13   1 13493.7 459.182   3
  -5  13   1 13479.5 362.116   3
   5 -13  -1 13488.5 345.094   3
  -5 -13   0 6699.24 337.080   3
  -5  13   0 7657.88 253.650   3
   5 -13   0 7459.42 237.835   3
  -5  13  -1 2797.39 177.038   1
  -5 -13  -1 5364.54 313.311   3
  -5 -13  -2 40090.3 840.660   3
  -5  13  -2 42715.3 630.306   1
  -5  13  -3 1428.01 106.875   1
  -5 -13  -3 1675.56 174.109   3
  -5  13  -4 5495.78 185.694   1
  -5 -13  -4 5214.14 330.182   3
  -5 -13  -5 14656.0 554.055   3
  -5  13  -5 12201.3 230.443   1
  -5 -13  -6 363.039 127.735   3
  -5 -13  -7 3661.97 295.504   3
  -5 -13  -8 2229.08 242.980   3
  -5 -13  -9 932.838 164.640   3
  -5 -13 -10 10837.6 537.998   3
  -5 -13 -11 1560.95 223.818   3
  -5 -13 -12 136.274 107.458   3
  -5 -13 -13 5103.91 410.454   3
   5 -15 -16 3024.00 325.634   3
   5 -15 -15 529.681 161.040   3
  -5 -15  15 927.979 150.737   1
  -5 -15  14-5.41533 74.1564   1
   5 -15 -14-69.0791 110.129   3
  -5 -15  13 7550.07 392.948   1
   5 -15 -13 7202.91 444.760   3
  -5 -15  12 5337.59 325.484   1
   5 -15 -12 5095.35 364.226   3
  -5 -15  11 1513.79 180.673   1
   5 -15 -11 1796.33 220.063   3
  -5 -15  10 6591.97 358.884   1
   5 -15 -10 7201.74 404.309   3
   5 -15  -9 1541.28 195.556   3
  -5 -15   9 1247.15 148.603   3
  -5 -15   8 1824.79 175.094   3
   5 -15  -8 1903.15 205.087   3
  -5 -15   7 1188.75 150.143   3
   5 -15  -7 1634.75 189.010   3
  -5 -15   6 3377.25 232.838   3
   5 -15  -6 3491.83 254.727   3
   5 -15  -5 4895.73 284.079   3
  -5 -15   5 4497.11 270.270   3
  -5 -15   4 28294.6 681.009   3
  -5  15   4 28693.2 672.052   3
   5 -15  -4 28898.3 643.374   3
  -5 -15   3 2233.88 198.232   3
  -5  15   3 2244.10 187.034   3
   5 -15  -3 2403.95 185.120   3
  -5 -15   2 2961.25 235.711   3
  -5  15   2 2992.50 202.962   3
   5 -15  -2 3059.52 195.158   3
  -5  15   1 18371.1 466.840   3
  -5 -15   1 17844.5 568.742   3
   5 -15  -1 18812.3 442.605   3
   5 -15   0 560.082 82.9673   3
  -5  15   0 602.731 88.6208   3
  -5 -15   0 731.202 135.621   3
  -5  15  -1 1992.06 168.028   1
  -5 -15  -1 1143.57 162.327   3
  -5 -15  -2 15780.1 564.409   3
  -5  15  -2 15156.4 424.172   1
  -5 -15  -3 18.4992 86.8399   3
  -5  15  -3 19.6115 51.3959   1
  -5 -15  -4 5020.71 340.871   3
  -5  15  -4 4615.15 203.608   1
  -5 -15  -5 3854.52 305.151   3
  -5 -15  -6 379.461 109.736   3
  -5 -15  -7 5078.30 370.205   3
  -5 -15  -8 6918.97 435.763   3
  -5 -15  -9-100.608 123.091   3
  -5 -15 -10 1264.25 203.574   3
  -5 -15 -11 1683.90 247.279   3
  -5 -15 -12 745.278 175.812   3
   5 -17 -14 1643.52 240.764   3
   5 -17 -13 4670.94 373.596   3
   5 -17 -12 4042.62 346.061   3
   5 -17 -11 1707.29 227.836   3
  -5 -17  11 1674.04 172.126   3
  -5 -17  10 5996.99 317.740   3
   5 -17 -10 6431.50 402.548   3
   5 -17  -9 309.104 124.920   3
  -5 -17   9 348.294 99.2802   3
  -5 -17   8 1793.26 184.068   3
   5 -17  -8 1973.03 220.299   3
  -5 -17   7 8163.10 373.921   3
   5 -17  -7 7944.88 410.150   3
   5 -17  -6 6650.15 360.656   3
  -5 -17   6 6221.72 334.884   3
   5 -17  -5 599.739 121.308   3
  -5 -17   5 465.320 108.396   3
  -5 -17   4 2197.35 214.921   3
   5 -17  -4 2587.67 215.609   3
   5 -17  -3 268.291 85.3847   3
  -5 -17   3 150.118 80.5377   3
  -5  17   3 205.732 86.1416   3
   5 -17  -2 6747.88 306.596   3
  -5  17   2 6310.47 316.003   3
  -5 -17   2 6399.18 359.194   3
  -5  17   1 1167.67 137.355   3
  -5 -17   1 1330.69 181.804   3
   5 -17  -1 1434.83 143.501   3
  -5  17   0 3329.18 250.070   1
  -5 -17   0 2595.64 244.226   3
   5 -17   0 2630.41 173.000   3
  -5 -17  -1 563.681 122.996   3
  -5  17  -1 888.351 128.886   1
  -5 -17  -2 3660.88 295.262   3
  -5 -17  -3 412.061 111.866   3
  -5 -17  -4 118.928 98.7588   3
  -5 -17  -5 1859.66 223.823   3
  -5 -17  -6 390.246 125.804   3
  -5 -17  -7 1649.98 231.220   3
  -5 -17  -8 2893.76 305.754   3
  -5 -17  -9 153.920 105.071   3
  -5 -17 -10 2466.01 291.913   3
   5 -19 -13 1107.76 214.286   3
   5 -19 -12 33.5983 101.677   3
   5 -19 -11 513.591 156.662   3
   5 -19 -10 4365.97 351.748   3
  -5 -19   9 2070.23 204.387   3
   5 -19  -9 1959.69 237.260   3
   5 -19  -8 1497.28 203.256   3
  -5 -19   8 1133.48 158.120   3
   5 -19  -7 3675.71 299.845   3
  -5 -19   7 3057.72 250.613   3
  -5 -19   6 3605.66 269.164   3
   5 -19  -6 3505.77 280.031   3
  -5 -19   5 1158.97 166.361   3
   5 -19  -5 1712.83 198.530   3
   5 -19  -4 13009.8 492.361   3
  -5 -19   4 12677.9 510.697   3
  -5 -19   3 1342.98 183.614   3
   5 -19  -3 1764.36 183.570   3
  -5 -19   2 3126.90 266.911   3
   5 -19  -2 3122.18 228.849   3
  -5 -19   1 3200.92 281.951   3
   5 -19  -1 3884.12 238.457   3
   5 -19   0 516.584 97.2783   3
  -5 -19   0 499.893 135.838   3
  -5 -19  -1 1096.54 183.872   3
  -5 -19  -2 1744.21 221.453   3
  -5 -19  -3 88.5279 100.129   3
  -5 -19  -4 12036.5 573.500   3
  -5 -19  -5 2051.33 257.105   3
  -5 -19  -6 317.327 125.362   3
  -5 -19  -7 1528.75 229.303   3
  -5 -19  -8 2014.44 272.984   3
   5 -21 -11 291.891 134.460   3
   5 -21 -10 1482.36 227.337   3
   5 -21  -9 25.2438 100.865   3
   5 -21  -8 482.238 144.589   3
  -5 -21   7 2953.24 256.534   3
   5 -21  -7 2856.39 282.645   3
   5 -21  -6-8.05616 91.5763   3
  -5 -21   6-109.462 103.309   3
   5 -21  -5 674.606 140.384   3
  -5 -21   5 837.799 154.116   3
  -5 -21   4 2411.06 251.765   3
   5 -21  -4 2550.95 239.187   3
   5 -21  -3 115.807 80.4825   3
  -5 -21   3 148.917 100.585   3
  -5 -21   2 4879.32 351.072   3
  -5 -21   1 1442.24 212.278   3
  -5 -21   0-151.275 110.091   3
  -5 -21  -1 885.536 186.865   3
  -5 -21  -2 5118.50 384.017   3
  -5 -21  -3-218.237 150.520   3
  -5 -21  -4 1408.78 223.047   3
  -5 -21  -5 2147.57 274.842   3
  -5 -21  -6-161.088 138.527   3
   5 -23  -9 153.929 127.612   3
   5 -23  -8 61.4953 103.928   3
   5 -23  -7 1587.02 225.653   3
   5 -23  -6 75.3458 97.0894   3
  -5 -23   4 842.446 167.673   3
  -5 -23   3 943.556 171.508   3
  -5 -23   2 2860.34 290.377   3
  -5 -23   1 385.365 148.904   3
  -5 -23   0-82.5159 124.662   3
  -5 -23  -1 2197.94 269.849   3
  -5 -23  -2 1646.37 243.134   3
  -5 -23  -3-31.0184 122.344   3
  -5 -25   0 31.2549 112.092   3
  -6   0  23 146.592 113.674   1
  -6   0  22 502.955 137.798   1
  -6   0  21-112.384 99.5816   1
  -6   0  20 9171.63 476.985   1
  -6   0  19 105.260 92.4672   1
  -6   0  18 20375.8 669.721   1
  -6   0  17 58.0564 92.1820   1
  -6   0  16 12433.9 494.588   1
  -6   0  15-72.5048 93.8869   1
  -6   0  14 50708.4 920.052   1
  -6   0  13-36.2753 74.3178   1
  -6   0  12 47821.1 833.083   1
  -6   0  12 49838.9 865.141   3
  -6   0  11 43.2929 53.4937   3
  -6   0  11-12.1009 68.8227   1
  -6   0  10 121.551 62.7445   3
  -6   0  10 73.3743 68.8813   1
  -6   0   9 13.8364 56.1197   1
  -6   0   8 21307.0 479.044   1
   6   0  -7 17.0592 20.8496   2
  -6   0   7 52.9888 58.7830   1
   6   0  -6 42769.2 305.765   2
  -6   0   6 48842.8 654.177   1
  -6   0   5-34.8988 51.8773   1
   6   0  -4 386686. 1661.04   1
  -6   0   4 378267. 1640.19   1
  -6   0   3 58.3384 46.2494   1
   6   0  -3 2.82047 37.2081   1
  -6   0   2 3682.78 147.202   1
   6   0  -2 3635.40 149.755   1
  -6   0   1 132.885 55.0328   1
   6   0  -1 125.271 49.5029   1
   6   0   0 69400.8 635.227   2
   6   0   0 68100.1 605.785   1
  -6   0   0 68312.9 612.689   1
   6   0   1-31.6062 42.7740   2
   6   0   1 24.2487 34.4700   1
   6   0   2 2364.35 151.646   2
  -6   0  -2 1942.82 129.234   3
   6   0   3 19.3354 36.1269   1
   6   0   3-11.4355 46.4599   2
  -6   0  -3-29.2989 48.0035   3
   6   0   4 47143.0 728.708   2
   6   0   4 48575.0 547.287   1
  -6   0  -4 46552.0 622.844   3
   6   0   5-29.9623 62.3049   2
   6   0   5 89.2402 37.4038   1
  -6   0  -5-15.7542 44.3595   3
   6   0   6 65426.8 956.448   2
   6   0   6 64378.3 686.114   1
  -6   0  -6 63381.4 785.590   3
   6   0   7 46.3599 39.9759   1
   6   0   7-26.8518 58.7098   2
  -6   0  -7-11.3808 58.2358   3
   6   0   8 8061.50 374.083   2
   6   0   8 7943.06 310.952   3
  -6   0  -8 7762.47 304.396   3
   6   0   9 280.616 103.438   3
   6   0   9 84.9630 84.6135   2
  -6   0  -9 114.073 85.7971   3
   6   0  10 37526.9 877.055   2
   6   0  10 39444.9 758.609   3
  -6   0 -10 38923.7 739.634   3
   6   0  11 14.4620 63.7356   3
   6   0  11 99.7357 81.1272   2
  -6   0 -11-37.3096 67.9016   3
   6   0  12 47415.0 1076.57   2
  -6   0 -12 49873.2 910.101   3
   6   0  13 60.4148 95.1149   2
  -6   0 -13 42.9296 80.6154   3
   6   0  14 8027.28 495.877   2
  -6   0 -14 8088.09 402.459   3
  -6   0 -15 28.5973 82.8644   3
   6   0  15 106.412 120.534   2
   6   0  16 56.7360 117.074   2
  -6  -2  23 4403.46 365.820   1
  -6  -2  22 555.328 146.713   1
  -6   2  22 588.516 149.226   1
  -6  -2  21 1730.32 222.348   1
  -6   2  21 2147.53 255.793   1
  -6  -2  20 61.1921 95.2478   1
  -6   2  20-97.4898 102.056   1
  -6  -2  19 614.049 141.413   1
  -6   2  19 507.115 132.995   1
  -6  -2  18 1455.99 190.513   1
  -6  -2  18 1588.28 200.385   2
  -6   2  18 1303.29 189.673   1
  -6  -2  17 19418.0 625.692   1
  -6  -2  17 20484.9 621.364   2
  -6  -2  16 327.314 98.5244   2
  -6  -2  16 373.426 106.821   1
  -6  -2  15 18738.4 536.269   2
  -6  -2  15 18091.4 570.921   1
  -6  -2  14 2621.50 192.968   2
  -6  -2  14 2556.29 210.988   1
   6  -2 -13 2401.40 180.915   2
  -6  -2  13 2689.37 182.254   2
  -6  -2  13 2842.10 217.468   1
  -6  -2  12 659.553 112.632   3
   6  -2 -12 550.145 87.0370   2
  -6  -2  12 661.414 94.2324   2
  -6  -2  12 542.466 102.813   1
   6  -2 -11 61573.6 786.828   2
  -6  -2  11 62723.8 742.192   2
  -6  -2  11 63045.3 918.253   1
  -6   2  11 65341.1 972.038   3
  -6  -2  10 551.630 95.1536   1
  -6   2  10 635.833 99.2594   3
   6  -2 -10 552.268 73.2309   2
  -6  -2  10 700.418 76.3486   2
   6  -2  -9 10196.7 275.997   2
  -6  -2   9 10377.6 346.002   1
  -6  -2   9 10462.2 245.622   2
  -6   2   9 10805.2 365.684   3
  -6  -2   8 7047.19 273.739   1
  -6  -2   8 6940.49 174.543   2
   6  -2  -8 6869.02 209.412   2
  -6   2   8 7238.50 284.882   3
  -6  -2   7 13783.1 203.299   2
   6   2  -7 14366.7 375.909   1
  -6  -2   7 14589.9 379.246   1
  -6  -2   6 3113.41 73.6241   2
   6   2  -6 3811.02 188.689   1
  -6  -2   6 3819.46 192.591   1
  -6  -2   5 77276.0 798.605   1
  -6   2   5 72791.2 769.506   1
   6   2  -5 75487.5 799.250   1
   6   2  -4 513.076 71.5594   1
  -6  -2   4 574.999 84.7837   1
  -6   2   4 653.301 75.0808   1
   6   2  -3 284167. 1445.65   1
  -6  -2   3 280107. 1436.74   1
  -6   2   3 280467. 1310.95   1
  -6  -2   2 8184.90 165.110   2
   6   2  -2 7794.74 238.934   1
  -6  -2   2 7999.01 243.612   1
  -6   2   2 8020.92 210.214   1
  -6   2   1 7753.36 192.781   1
  -6  -2   1 7032.43 181.957   2
  -6  -2   1 8590.23 259.176   1
   6  -2  -1 7312.68 188.135   1
   6   2  -1 7855.08 243.103   1
   6   2  -1 7141.12 184.552   2
   6   2   0 2079.34 125.343   1
  -6  -2   0 2266.02 121.559   2
   6   2   0 2517.75 126.794   2
   6  -2   0 2394.09 102.419   1
  -6  -2   0 2146.84 130.770   1
  -6   2   0 2377.09 102.741   1
  -6  -2  -1 99828.5 839.241   1
  -6   2  -1 99561.9 608.635   1
   6   2   1 98554.8 836.558   2
  -6  -2  -1 96698.4 844.171   2
   6  -2   1 98423.2 602.509   1
   6   2   1 97314.1 837.013   1
   6  -2   2 1038.56 61.3944   1
  -6  -2  -2 1038.23 99.5553   2
   6   2   2 972.558 89.6210   1
   6   2   2 1013.95 103.114   2
  -6  -2  -2 838.209 89.5353   3
   6   2   3 145769. 1194.70   2
   6  -2   3 143186. 691.391   1
  -6   2  -3 141035. 909.773   3
  -6  -2  -3 141701. 1154.35   3
   6   2   3 141807. 1059.84   1
  -6   2  -4 1384.61 98.8008   3
   6   2   4 1488.56 136.893   2
   6   2   4 1664.57 122.360   1
  -6  -2  -4 1416.97 124.361   3
   6  -2   4 1692.00 79.7002   1
   6  -2   5 10384.4 374.552   2
   6  -2   5 10004.6 206.571   1
   6   2   5 9917.71 355.684   2
  -6  -2  -5 9467.59 322.741   3
   6   2   5 9561.49 294.151   1
  -6   2  -5 10028.3 267.958   3
   6  -2   6 54.8538 54.9115   2
  -6  -2  -6 145.345 68.2858   3
   6   2   6 80.2945 40.2907   1
  -6   2  -6 94.0092 49.5820   3
   6  -2   6 85.9442 33.8179   1
   6   2   6 138.862 77.1542   2
   6  -2   7 46677.3 508.292   1
   6  -2   7 44865.0 850.290   2
   6   2   7 45170.7 763.213   3
  -6  -2  -7 44901.4 750.076   3
  -6   2  -7 45433.9 631.165   3
   6   2   7 44437.6 828.698   2
  -6   2  -8 7057.12 265.787   3
   6  -2   8 6963.37 354.631   2
  -6  -2  -8 6784.86 312.691   3
   6  -2   8 7548.10 218.406   1
   6   2   8 6644.29 341.618   2
   6   2   8 6570.54 308.760   3
   6  -2   9 76803.6 1223.02   2
   6   2   9 76900.7 1085.68   3
   6   2   9 76217.2 1206.85   2
  -6  -2  -9 77422.2 1068.02   3
  -6   2  -9 80276.1 927.148   3
   6  -2   9 80346.9 749.317   1
   6  -2  10 11212.7 490.298   2
   6   2  10 11650.2 494.098   2
  -6  -2 -10 11838.8 441.898   3
  -6   2 -10 11962.9 379.543   3
   6  -2  11 2450.11 249.595   2
   6   2  11 2373.41 242.493   2
  -6  -2 -11 2355.39 211.616   3
  -6   2 -11 2494.45 185.798   3
  -6   2 -12 344.140 103.703   3
   6  -2  12 387.886 126.726   2
   6   2  12 204.984 114.293   2
  -6  -2 -12 525.801 144.332   3
   6  -2  13 6522.27 424.012   2
   6   2  13 6347.83 412.300   2
  -6  -2 -13 7344.00 390.562   3
  -6   2 -13 7469.96 342.940   3
  -6   2 -14 22.0380 69.9864   3
   6  -2  14-166.116 120.319   2
   6   2  14 75.3458 103.485   2
  -6  -2 -14-22.1533 93.3653   3
   6   2  15 14436.2 670.484   2
  -6  -2 -15 15585.6 604.906   3
   6  -2  15 14376.5 680.916   2
  -6  -2 -16 80.2911 101.754   3
   6  -2  16 338.033 152.613   2
  -6   4  22 2366.13 275.166   1
  -6  -4  22 2664.07 273.725   1
  -6  -4  21 69.0448 86.6114   1
  -6   4  21 34.4563 102.098   1
  -6  -4  21 57.5521 98.2450   2
  -6  -4  20 4338.62 335.020   2
  -6  -4  20 3875.13 313.640   1
  -6  -4  19 70.8526 86.8293   1
  -6  -4  19 39.8484 82.8709   2
  -6  -4  18 7085.55 391.929   1
  -6  -4  18 7559.70 406.041   2
  -6  -4  17 3001.18 243.954   2
  -6  -4  17 2742.84 243.415   1
  -6  -4  16 2402.72 215.227   2
  -6  -4  16 2593.71 228.039   1
  -6  -4  15 3477.72 235.641   2
  -6  -4  15 3936.94 269.128   1
  -6  -4  14 53310.6 856.001   2
   6  -4 -14 52551.5 923.921   2
  -6  -4  14 53774.8 944.918   1
   6  -4 -13 1258.07 146.636   2
  -6  -4  13 1412.82 141.109   2
  -6  -4  13 1287.53 151.640   3
  -6  -4  13 1268.39 157.087   1
  -6  -4  12 46320.3 702.050   2
   6  -4 -12 46257.5 777.399   2
  -6  -4  12 46879.1 818.591   1
   6  -4 -11 2341.85 168.550   2
  -6  -4  11 2336.63 150.509   2
  -6  -4  11 2269.77 177.224   1
  -6  -4  10 810.187 88.6946   2
   6  -4 -10 794.024 103.736   2
  -6  -4  10 705.641 109.167   1
  -6   4  10 917.917 122.800   3
  -6  -4   9 337.034 84.2988   1
   6  -4  -9 340.890 68.3575   2
   6   4  -9 309.449 72.4831   1
  -6   4   9 291.691 75.3334   3
  -6  -4   8 94842.7 1008.96   1
   6   4  -8 94492.5 1022.39   1
  -6   4   8 92449.7 1040.49   3
  -6  -4   7 30507.3 557.236   1
   6   4  -7 30288.5 565.556   1
  -6   4   7 31174.5 571.411   3
  -6  -4   6 226872. 1486.43   1
   6   4  -6 227896. 1499.75   1
  -6   4   6 233175. 1471.66   3
   6   4  -5 26.1902 43.7656   1
  -6  -4   5 13.9493 46.4767   1
   6   4  -4 11787.4 327.431   1
  -6  -4   4 11276.9 317.372   1
   6   4  -3 12672.2 340.567   1
  -6  -4   3 12385.1 334.579   1
  -6  -4   2 12398.4 328.595   1
   6   4  -2 11858.5 323.679   1
  -6  -4   1 2035.37 113.163   2
  -6   4   1 2063.38 99.3591   1
   6   4  -1 1961.17 137.086   1
  -6  -4   1 2040.73 141.321   1
   6   4   0 38219.7 586.130   1
  -6  -4   0 38778.4 515.561   2
  -6  -4   0 40087.9 598.877   1
  -6   4   0 39247.7 373.633   1
  -6  -4  -1 3537.96 196.884   3
  -6  -4  -1 3364.13 166.702   2
  -6   4  -1 3215.88 93.8459   1
   6   4   1 2977.56 169.098   1
  -6   4  -2 241.729 26.3056   1
   6   4   2 311.193 72.2391   1
  -6  -4  -2 234.827 60.5169   2
  -6  -4  -2 200.179 72.0146   3
   6   4   3 4947.52 229.038   1
  -6  -4  -3 4085.32 215.861   2
  -6  -4  -3 3643.04 207.710   3
  -6   4  -3 3882.69 129.132   3
  -6  -4  -4 15751.1 438.133   2
  -6  -4  -4 14813.9 420.320   3
  -6   4  -4 14995.7 254.854   3
   6   4   4 15811.2 406.808   1
   6   4   5 3398.64 196.637   1
  -6  -4  -5 3272.78 213.297   2
  -6   4  -5 3393.19 128.211   3
  -6  -4  -5 3232.87 204.004   3
  -6  -4  -6 52135.1 875.285   2
  -6   4  -6 54421.9 541.961   3
   6   4   6 52618.7 851.772   3
  -6  -4  -6 51563.0 834.320   3
   6   4   6 51448.6 775.732   1
   6   4   6 50109.9 857.823   2
  -6  -4  -7 1692.96 164.164   3
   6   4   7 1767.03 178.627   2
   6   4   7 1606.58 163.935   3
  -6   4  -7 1871.43 110.408   3
   6  -4   8 4720.13 115.125   1
   6  -4   8 5455.79 325.693   2
  -6  -4  -8 5221.45 293.694   3
   6  -4   8 4450.23 109.134   1
  -6   4  -8 5524.99 202.861   3
  -6   4  -9 745.830 91.5827   3
   6  -4   9 543.177 125.150   2
   6  -4   9 593.556 52.3976   1
   6  -4   9 672.623 57.1735   1
  -6  -4  -9 673.049 134.540   3
   6  -4  10 17970.2 630.651   2
   6  -4  10 15787.9 264.159   1
  -6  -4 -10 18391.6 576.018   3
   6  -4  10 17230.3 281.604   1
  -6   4 -10 19138.2 418.677   3
  -6   4 -11 2986.77 179.559   3
   6  -4  11 2711.90 268.873   2
  -6  -4 -11 2755.67 245.849   3
   6  -4  11 2441.49 113.654   1
   6  -4  12 52367.1 1168.85   2
  -6  -4 -12 52963.1 1047.44   3
   6  -4  13 2315.75 271.750   2
  -6  -4 -13 2404.45 248.437   3
   6  -4  14 5332.05 413.912   2
  -6  -4 -14 5027.10 353.536   3
   6  -4  15 124.772 111.418   2
  -6  -4 -15 365.188 136.749   3
  -6  -4 -16 990.873 181.756   3
   6  -4  16 653.556 181.238   2
  -6  -4 -17 13.9171 120.099   3
  -6  -6  21 1460.67 220.094   2
  -6  -6  21 1160.89 187.084   1
  -6  -6  20 82.5141 92.9926   2
  -6  -6  20 118.314 103.034   1
  -6  -6  19 213.021 84.9706   1
  -6  -6  19 197.350 107.013   2
  -6  -6  18-84.3089 96.3879   1
  -6  -6  18-190.393 99.6092   2
  -6  -6  17 5403.32 330.135   1
  -6  -6  17 5248.42 328.150   2
  -6  -6  16 63.6957 69.6361   2
  -6  -6  16 280.937 97.4142   1
  -6  -6  15 18205.2 571.265   1
  -6  -6  15 18753.4 557.827   2
  -6  -6  14 1582.30 179.426   1
  -6  -6  14 1354.34 147.860   2
  -6  -6  13 3820.27 226.133   2
   6  -6 -13 3823.29 254.124   2
  -6  -6  13 4615.50 276.590   1
  -6  -6  12 374.504 72.4278   2
   6  -6 -12 420.927 87.9825   2
  -6  -6  12 543.850 110.939   1
  -6  -6  11 29268.4 638.819   1
   6  -6 -11 27315.0 605.528   2
  -6  -6  10 0.76869 64.9541   1
   6   6 -10 169.370 65.1481   1
  -6   6  10 25.1561 63.8071   3
   6   6  -9 36979.5 681.259   1
  -6   6   9 37891.0 717.629   3
  -6  -6   9 36271.0 673.567   1
   6   6  -8 452.334 89.2985   1
  -6  -6   8 561.846 99.4698   1
  -6   6   8 378.682 88.2441   3
  -6  -6   7 6621.11 286.227   1
  -6   6   7 8571.61 317.059   3
   6   6  -7 7311.48 306.569   1
   6   6  -6 5984.40 276.916   1
  -6  -6   6 5555.62 264.905   1
  -6   6   6 4633.18 221.347   3
   6   6  -5 251434. 1648.03   1
  -6   6   5 251019. 1520.27   3
  -6  -6   5 248332. 1612.99   1
  -6   6   4 439.969 72.8913   3
  -6  -6   4 404.735 90.9559   1
   6   6  -4 378.731 80.2062   1
  -6  -6   3 64727.4 825.618   1
   6   6  -3 65046.9 838.410   1
  -6   6   3 67381.6 689.983   3
   6   6  -2 7884.72 294.495   1
  -6   6   2 8688.37 234.959   3
  -6  -6   2 7225.90 281.088   1
   6   6  -1 10032.8 329.633   1
  -6  -6   1 9266.66 316.807   1
  -6   6   1 11368.7 242.914   3
  -6   6   0 112.802 32.0212   3
   6   6   0 67.5393 50.0894   1
  -6  -6   0 223.284 67.7011   3
  -6  -6  -1 91407.2 914.412   2
   6   6   1 90663.9 1010.00   1
  -6   6  -1 87580.5 503.005   1
  -6  -6  -1 93967.8 1037.32   3
  -6   6  -1 87481.2 530.368   3
  -6  -6  -2 13900.7 388.392   2
  -6  -6  -2 13906.9 413.025   3
   6   6   2 14844.0 419.731   1
   6   6   3 339.338 79.8721   1
  -6   6  -3 255.640 24.1860   3
  -6  -6  -3 347.807 77.3409   2
  -6  -6  -3 466.024 99.1297   3
  -6  -6  -4 1451.27 139.920   2
   6   6   4 1425.26 144.088   1
  -6  -6  -4 1411.88 148.517   3
   6   6   5 32914.3 666.997   1
  -6  -6  -5 34334.1 701.439   2
  -6  -6  -5 34784.1 704.803   3
   6   6   6 675.057 122.838   1
  -6  -6  -6 137.429 78.0362   3
  -6  -6  -7 1768.32 173.813   3
  -6  -6  -8-60.7687 77.3954   3
  -6  -6  -9 31664.9 764.886   3
   6  -6  10 174.466 98.2049   2
  -6  -6 -10 305.604 102.999   3
   6  -6  11 14090.8 597.521   2
  -6  -6 -11 13915.5 546.550   3
   6  -6  12 1122.34 205.498   2
  -6  -6 -12 1147.97 206.063   3
   6  -6  13 13211.9 625.273   2
  -6  -6 -13 13491.0 579.449   3
   6  -6  14 471.553 168.759   2
  -6  -6 -14 442.932 136.757   3
   6  -6  15 6323.91 469.187   2
  -6  -6 -15 6457.05 434.861   3
  -6  -6 -16 2.42987 104.462   3
  -6  -6 -17 4618.38 394.530   3
  -6  -8  20 1849.66 220.194   1
  -6  -8  20 1751.65 231.358   2
  -6  -8  19 373.828 121.720   2
  -6  -8  19 407.904 116.274   1
  -6  -8  18 2572.02 251.439   2
  -6  -8  18 2193.97 227.526   1
  -6  -8  17 1426.92 185.204   2
  -6  -8  17 1793.24 202.351   1
  -6  -8  16 6002.05 341.347   2
  -6  -8  16 6988.91 373.073   1
  -6  -8  15 43.5295 68.0347   2
  -6  -8  15 84.4371 73.0363   1
  -6  -8  14 19516.6 582.362   1
  -6  -8  13 789.520 131.160   1
  -6  -8  12 62394.6 984.074   1
  -6  -8  11 1610.82 173.317   1
   6   8 -11 1461.81 166.185   1
  -6  -8  10 2923.77 214.600   1
   6   8 -10 2905.53 214.459   1
  -6  -8   9 2923.96 203.465   1
  -6   8   9 3458.82 237.357   3
   6   8  -9 3213.03 215.817   1
  -6   8   8 33739.7 686.763   3
  -6  -8   8 33810.8 663.387   1
   6   8  -8 34029.4 681.577   1
   6   8  -7 2862.18 200.264   1
  -6   8   7 3147.30 204.870   3
  -6  -8   7 2878.27 197.004   1
   6   8  -6 49001.6 788.528   1
  -6   8   6 51831.1 773.923   3
  -6  -8   6 48070.2 783.869   1
  -6  -8   5 3311.30 206.799   1
   6   8  -5 3641.77 219.268   1
  -6   8   5 3814.09 200.828   3
   6   8  -4 6126.22 281.195   1
  -6   8   4 6783.08 253.301   3
  -6  -8   4 5527.51 267.800   1
  -6  -8   3 12633.4 394.193   1
   6   8  -3 12134.3 390.507   1
  -6   8   3 10762.6 297.695   3
  -6   8   2 72267.1 709.357   3
  -6  -8   2 76467.1 969.081   1
   6   8  -2 77452.7 984.698   1
   6   8  -1 150.459 65.6022   1
  -6   8   1 81.2283 30.5197   3
  -6  -8   1 148.789 67.4820   3
  -6  -8   0 27426.8 588.765   3
  -6   8   0 27370.9 356.742   3
   6   8   0 26458.7 585.053   1
  -6  -8  -1 728.423 118.109   3
  -6   8  -1 734.242 53.7941   3
   6   8   1 1329.42 147.517   1
  -6  -8  -2 510.657 107.369   3
  -6   8  -2 215.394 29.9497   1
  -6  -8  -2 443.122 88.2120   2
   6   8   2 292.835 82.6081   1
  -6  -8  -3 7202.70 312.542   2
   6   8   3 7009.96 323.069   1
  -6  -8  -3 7476.35 333.192   3
  -6  -8  -4 5488.88 290.303   2
  -6  -8  -4 4974.00 289.181   3
   6   8   4 6489.24 316.644   1
  -6  -8  -5-63.6910 83.7190   3
  -6  -8  -6 65022.7 1047.03   3
  -6  -8  -7 5364.44 318.075   3
  -6  -8  -8 330.565 102.649   3
  -6  -8  -9 664.480 143.775   3
  -6  -8 -10 13679.7 551.372   3
  -6  -8 -11-49.7663 106.197   3
   6  -8  12 22563.2 809.302   2
  -6  -8 -12 22432.5 751.522   3
   6  -8  13 180.953 124.054   2
  -6  -8 -13 410.986 134.669   3
   6  -8  14 3751.38 360.488   2
  -6  -8 -14 3349.79 312.895   3
   6  -8  15 1050.40 215.399   2
  -6  -8 -15 831.223 179.492   3
  -6  -8 -16 1243.88 218.898   3
  -6 -10  20 78.7062 94.3142   2
  -6 -10  19 493.970 131.223   1
  -6 -10  19 367.145 122.736   2
  -6 -10  18 76.4815 93.2369   1
  -6 -10  18 176.601 108.641   2
  -6 -10  17 11949.5 511.583   2
  -6 -10  17 12779.3 514.950   1
  -6 -10  16 699.670 134.565   2
  -6 -10  16 819.399 146.208   1
  -6 -10  15 452.103 111.586   1
  -6 -10  14 1858.36 193.954   1
  -6 -10  13 2350.66 212.919   1
   6 -10 -12 451.987 120.006   3
  -6 -10  12 310.126 87.9700   1
   6 -10 -11 10462.5 443.686   3
  -6 -10  11 11500.4 429.843   1
   6 -10 -10 273.814 95.0778   3
  -6 -10  10 232.463 73.6300   1
  -6 -10   9 4044.27 256.112   1
   6  10  -9 4245.80 263.580   1
   6 -10  -9 4139.53 264.657   3
  -6 -10   8 5715.21 297.091   1
   6  10  -8 6074.47 309.587   1
   6 -10  -8 6129.39 305.975   3
   6  10  -7 1298.83 148.587   1
  -6  10   7 1767.04 169.188   3
  -6 -10   7 1061.79 138.147   1
   6 -10  -7 1615.70 163.326   3
   6 -10  -6 8808.57 335.199   3
   6  10  -6 10065.9 387.986   1
  -6  10   6 8594.44 340.221   3
  -6 -10   6 10451.6 389.530   1
   6 -10  -5 20061.5 475.299   3
  -6 -10   5 22687.3 564.737   1
  -6  10   5 20644.0 492.726   3
   6  10  -5 22963.6 582.373   1
  -6 -10   4 5044.52 275.155   1
   6  10  -4 5048.46 278.072   1
  -6  10   4 4604.49 223.798   3
  -6 -10   3 61568.6 936.028   1
  -6  10   3 64800.7 785.035   3
   6  10  -3 65381.4 981.837   1
  -6 -10   2 579.326 101.946   3
  -6  10   2 624.992 82.3255   3
   6  10  -2 845.511 121.132   1
   6  10  -1 17777.9 520.958   1
  -6 -10   1 18013.6 497.178   3
  -6  10   1 18428.1 358.083   3
  -6 -10   0 2783.44 206.631   3
   6  10   0 3526.07 240.500   1
  -6  10   0 2819.31 127.908   3
  -6  10  -1 26242.8 322.958   3
  -6 -10  -1 28178.4 652.466   3
   6  10   1 29340.2 686.680   1
  -6  10  -2 130.218 33.1979   1
  -6 -10  -2 25.1707 72.1566   3
  -6 -10  -3 44842.2 865.818   3
  -6  10  -3 38263.2 335.180   1
  -6 -10  -4 3632.85 266.477   3
  -6 -10  -5 6402.98 347.573   3
  -6 -10  -6 618.311 137.830   3
  -6 -10  -7 894.232 145.633   3
  -6 -10  -8 140.522 95.2257   3
  -6 -10  -9 29880.9 823.396   3
  -6 -10 -10 463.359 149.996   3
  -6 -10 -11 5177.43 365.867   3
  -6 -10 -12 185.439 129.829   3
   6 -10  13 750.195 178.382   2
  -6 -10 -13 966.194 194.063   3
   6 -10  14 181.514 121.638   2
  -6 -10 -14-55.2383 121.392   3
  -6 -10 -15 2687.54 303.689   3
  -6 -12  19-30.9754 86.2697   2
  -6 -12  18 4320.06 337.926   2
  -6 -12  18 4856.96 336.498   1
  -6 -12  17-20.4637 81.7761   2
  -6 -12  17 53.5243 85.4601   1
  -6 -12  16 3242.80 265.014   1
  -6 -12  15 239.741 92.9819   1
   6 -12 -14 15041.2 611.535   3
  -6 -12  14 15696.5 558.792   1
   6 -12 -13 120.152 92.3482   3
  -6 -12  13 56.2651 78.5630   1
  -6 -12  12 7058.30 361.744   1
   6 -12 -12 7486.46 413.114   3
   6 -12 -11 826.744 139.594   3
  -6 -12  11 1267.54 162.503   1
   6 -12 -10-11.9738 75.9890   3
  -6 -12  10 39.4766 70.2197   1
   6 -12  -9 607.311 122.364   3
  -6 -12   9 904.008 138.435   1
  -6 -12   8 5713.05 313.238   1
   6 -12  -8 4957.53 288.310   3
  -6 -12   7 1212.95 156.176   1
   6 -12  -7 1489.79 161.038   3
  -6  12   6 16938.5 501.597   3
  -6 -12   6 14730.3 492.039   1
   6 -12  -6 16141.3 476.627   3
   6 -12  -5 1869.23 163.672   3
  -6  12   5 1903.59 168.108   3
  -6 -12   5 1018.01 144.837   1
  -6  12   4 5561.84 264.407   3
  -6 -12   4 5731.15 297.155   3
   6 -12  -4 5622.12 259.914   3
  -6  12   3-2.70709 45.1203   3
  -6 -12   3 136.827 78.5402   3
  -6 -12   2 26028.4 633.586   3
  -6  12   2 25182.0 497.425   3
  -6 -12   1 5.31994 83.1675   3
  -6  12   1 189.089 54.6224   3
  -6  12   0 37904.2 511.458   3
  -6 -12   0 37113.6 776.998   3
  -6 -12  -1 97.8993 74.6958   3
  -6  12  -1 62.2439 33.9551   3
  -6 -12  -2 4934.19 309.393   3
  -6  12  -2 5055.66 190.965   1
  -6 -12  -3 1664.31 200.675   3
  -6  12  -3 839.781 73.3940   1
  -6  12  -4 15626.9 209.679   1
  -6 -12  -4 19981.3 619.490   3
  -6 -12  -5 1100.03 160.206   3
  -6 -12  -6 30884.8 812.759   3
  -6 -12  -7 321.775 120.971   3
  -6 -12  -8 69.6081 85.4645   3
  -6 -12  -9 3944.30 325.833   3
  -6 -12 -10 2531.74 272.392   3
  -6 -12 -11 31.8175 98.6019   3
  -6 -12 -12 9991.81 551.373   3
  -6 -12 -13 289.008 135.236   3
  -6 -14  16-10.2801 96.0529   1
   6 -14 -15 3863.02 340.009   3
  -6 -14  15 2914.66 255.744   1
  -6 -14  14 704.419 139.462   1
   6 -14 -14 350.724 129.900   3
   6 -14 -13 1906.20 232.851   3
  -6 -14  13 2465.48 233.455   1
   6 -14 -12 133.248 93.5322   3
  -6 -14  12 195.606 83.7140   1
  -6 -14  11 7575.55 388.476   1
   6 -14 -11 6904.99 396.954   3
   6 -14 -10-84.2590 92.6810   3
  -6 -14  10 32.0968 72.6641   1
  -6 -14   9 6243.73 349.086   1
   6 -14  -9 6349.64 360.190   3
  -6 -14   8 1976.90 202.823   1
   6 -14  -8 2433.41 220.348   3
   6 -14  -7 109.967 81.7246   3
  -6 -14   7 493.373 120.726   1
  -6 -14   6 1669.04 173.454   3
   6 -14  -6 2060.57 191.906   3
  -6 -14   5 25505.7 637.630   3
  -6  14   5 26001.5 634.038   3
   6 -14  -5 26685.8 620.643   3
   6 -14  -4 296.131 79.4270   3
  -6 -14   4 373.745 97.6364   3
  -6  14   4 393.084 83.0453   3
  -6  14   3 4749.62 252.577   3
  -6 -14   3 4590.40 287.758   3
   6 -14  -3 4771.15 242.234   3
  -6 -14   2 894.492 142.307   3
  -6  14   2 1164.08 125.859   3
  -6  14   1 76.4780 54.1488   3
  -6 -14   1 135.956 98.3643   3
  -6 -14   0 6473.40 351.057   3
  -6  14   0 6592.49 240.833   3
  -6 -14  -1 9599.40 433.524   3
  -6  14  -1 12470.1 374.982   1
  -6  14  -2 1914.98 136.554   1
  -6 -14  -2 1699.07 187.369   3
  -6 -14  -3 31402.0 810.261   3
  -6  14  -3 30901.6 482.154   1
  -6 -14  -4 140.936 100.038   3
  -6  14  -4 47.2605 29.9813   1
  -6 -14  -5 54.8925 93.3585   3
  -6 -14  -6 908.377 150.856   3
  -6 -14  -7 396.633 127.286   3
  -6 -14  -8 426.910 150.465   3
  -6 -14  -9 13532.1 614.161   3
  -6 -14 -10 112.624 131.978   3
  -6 -14 -11 686.651 166.503   3
  -6 -14 -12 114.797 135.657   3
   6 -16 -15 323.847 142.359   3
  -6 -16  15 99.3670 94.8943   1
  -6 -16  14 9903.72 474.320   1
   6 -16 -14 9966.61 544.411   3
   6 -16 -13-6.73078 97.2103   3
  -6 -16  13-82.9296 97.0226   1
  -6 -16  12 6684.79 388.394   1
   6 -16 -12 6428.31 418.521   3
   6 -16 -11-98.7308 106.403   3
  -6 -16  11 149.719 103.913   1
  -6 -16  10-0.03195 67.1312   3
  -6 -16  10 76.1113 78.3010   1
   6 -16  -9-15.8078 101.229   3
  -6 -16   9-83.1884 93.5867   3
  -6 -16   8 16186.7 526.784   3
   6 -16  -8 18061.8 607.441   3
   6 -16  -7 654.741 137.157   3
  -6 -16   7 607.418 117.008   3
  -6 -16   6 9689.77 418.087   3
   6 -16  -6 10005.5 423.325   3
  -6 -16   5 3613.65 266.158   3
   6 -16  -5 3564.93 251.683   3
  -6  16   4 3065.48 233.343   3
  -6 -16   4 2915.74 237.291   3
   6 -16  -4 3009.57 217.014   3
   6 -16  -3 360.927 90.7482   3
  -6 -16   3 409.630 107.585   3
  -6  16   3 449.983 96.3055   3
   6 -16  -2 6442.87 281.803   3
  -6  16   2 6353.46 299.708   3
  -6 -16   2 6340.13 356.075   3
  -6  16   1 532.298 87.6047   3
  -6 -16   1 462.262 109.864   3
  -6  16   0 10201.6 393.978   1
  -6  16   0 11113.5 341.192   3
  -6 -16   0 10790.7 474.040   3
  -6  16  -1 282.298 83.0489   1
  -6 -16  -1 186.234 96.1461   3
  -6 -16  -2-36.9742 90.5586   3
  -6 -16  -3 5281.56 353.527   3
  -6 -16  -4 77.2112 87.3376   3
  -6 -16  -5 603.066 140.438   3
  -6 -16  -6 9603.29 503.070   3
  -6 -16  -7 255.724 133.991   3
  -6 -16  -8 3975.60 346.312   3
  -6 -16  -9 65.7240 118.883   3
  -6 -16 -10 238.625 125.446   3
   6 -18 -14 10.3194 111.374   3
   6 -18 -13-102.403 121.865   3
   6 -18 -12-58.0502 111.648   3
  -6 -18  11 4168.76 284.658   3
   6 -18 -11 4205.94 346.584   3
   6 -18 -10 277.921 120.396   3
  -6 -18  10 110.761 72.0216   3
  -6 -18   9 4202.81 287.445   3
   6 -18  -9 4789.06 346.689   3
   6 -18  -8 134.982 108.455   3
  -6 -18   8 107.840 88.8002   3
   6 -18  -7 104.137 90.8212   3
  -6 -18   7-115.156 97.5079   3
   6 -18  -6-6.51437 90.5613   3
  -6 -18   6-57.5281 96.7423   3
  -6 -18   5 15787.3 564.953   3
   6 -18  -5 16542.6 553.493   3
   6 -18  -4-73.2039 81.9307   3
  -6 -18   4-304.262 120.980   3
  -6 -18   3 8490.63 429.649   3
   6 -18  -3 9434.75 384.742   3
   6 -18  -2 246.482 85.2774   3
  -6 -18   2 20.7864 93.6128   3
  -6 -18   1 87.6304 89.3813   3
  -6 -18   0 89.2998 95.0083   3
  -6 -18  -1 6768.48 410.517   3
  -6 -18  -2 780.819 161.236   3
  -6 -18  -3 7723.94 447.679   3
  -6 -18  -4 1519.60 223.728   3
  -6 -18  -5 2349.81 263.087   3
  -6 -18  -6 632.411 167.996   3
  -6 -18  -7 1722.77 248.893   3
  -6 -18  -8 65.7661 102.109   3
   6 -20 -12 1725.38 255.592   3
   6 -20 -11-103.790 115.863   3
   6 -20 -10-62.5901 99.6970   3
   6 -20  -9 355.869 129.381   3
  -6 -20   9 26.3597 79.8884   3
  -6 -20   8 3865.44 290.309   3
   6 -20  -8 4294.30 336.007   3
   6 -20  -7 1122.58 175.426   3
  -6 -20   7 1437.54 190.651   3
  -6 -20   6 3215.73 277.566   3
   6 -20  -6 3462.12 281.619   3
   6 -20  -5 207.836 102.439   3
  -6 -20   5 197.923 117.193   3
   6 -20  -4 409.948 111.836   3
  -6 -20   4 383.744 127.456   3
   6 -20  -3-20.4223 73.0855   3
  -6 -20   3 173.907 122.209   3
  -6 -20   2 2887.50 276.751   3
  -6 -20   1-135.296 109.757   3
  -6 -20   0 5563.20 384.112   3
  -6 -20  -1 132.612 126.797   3
  -6 -20  -2 592.797 146.310   3
  -6 -20  -3 1273.04 227.095   3
  -6 -20  -4 2909.90 308.604   3
  -6 -20  -5-60.7615 113.252   3
  -6 -20  -6 5520.17 424.700   3
   6 -22 -10-217.827 141.914   3
   6 -22  -9 1982.41 260.814   3
   6 -22  -8 25.3945 100.717   3
   6 -22  -7 552.460 150.041   3
   6 -22  -6 96.1767 98.4504   3
  -6 -22   6 19.6695 89.6819   3
  -6 -22   5 3930.36 319.746   3
   6 -22  -5 4182.22 317.249   3
  -6 -22   4 42.1775 92.4277   3
  -6 -22   3 5199.77 377.787   3
  -6 -22   2 1236.01 202.301   3
  -6 -22   1 751.975 167.689   3
  -6 -22   0 680.500 164.525   3
  -6 -22  -1 2499.44 285.697   3
  -6 -22  -2-141.878 128.887   3
  -6 -22  -3 6851.05 477.828   3
  -6 -24   3-91.5126 129.716   3
  -6 -24   2 708.974 171.834   3
  -6 -24   1 598.795 162.563   3
  -6 -24   0 1995.01 270.983   3
  -7  -1  23 160.935 109.955   1
  -7   1  23 232.275 127.581   1
  -7  -1  22 1901.78 244.248   1
  -7   1  22 1913.72 243.653   1
  -7  -1  21 1596.49 224.483   1
  -7   1  21 1444.02 217.698   1
  -7   1  20 68.3812 98.1169   1
  -7  -1  20 91.0308 99.2048   1
  -7   1  19 9810.03 491.764   1
  -7  -1  19 9405.11 474.226   1
  -7   1  18 6598.63 395.899   1
  -7  -1  18 6773.06 400.193   1
  -7   1  17 2894.16 259.257   1
  -7  -1  17 3042.80 265.988   1
  -7  -1  16 17833.4 596.841   1
  -7   1  16 17607.7 593.099   1
  -7  -1  15 22597.1 653.130   1
  -7   1  15 21578.4 639.027   1
  -7   1  14 265.696 98.9869   1
  -7  -1  14 127.182 74.9151   1
  -7   1  13 18597.7 553.687   1
  -7  -1  13 18405.1 551.272   1
  -7   1  12 5965.10 310.705   1
  -7  -1  12 6267.92 315.250   1
  -7  -1  12 6148.54 310.684   3
   7  -1 -11 2127.44 137.953   2
  -7   1  11 2067.17 181.394   1
  -7  -1  11 2122.29 180.070   1
  -7   1  11 2426.64 193.763   3
  -7   1  10 45133.1 777.378   3
   7  -1 -10 42925.2 547.465   2
  -7   1  10 43445.5 758.931   1
  -7  -1  10 44509.1 759.135   1
   7  -1  -9 7347.13 205.377   2
  -7   1   9 7430.38 307.242   1
  -7  -1   9 7629.17 306.414   1
   7  -1  -8 9625.23 209.492   2
  -7   1   8 9435.51 329.642   1
  -7  -1   8 9571.45 330.079   1
   7  -1  -7 28684.3 320.512   2
  -7   1   7 29094.8 547.625   1
  -7  -1   7 30486.8 560.576   1
   7   1  -6 9321.93 299.090   1
  -7   1   6 9579.87 303.361   1
  -7  -1   6 9569.09 302.708   1
  -7  -1   5 110113. 994.132   1
  -7   1   5 112197. 975.722   1
  -7  -1   4 52681.1 658.879   1
   7   1  -4 52509.1 668.535   1
  -7   1   4 52552.9 636.630   1
   7   1  -3 3042.54 92.6880   2
  -7  -1   3 3420.09 167.779   1
   7  -1  -3 3262.86 154.907   1
   7   1  -3 3210.46 163.707   1
  -7   1   3 3275.97 153.297   1
   7   1  -2 2379.07 139.043   1
  -7   1   2 2307.76 124.272   1
   7   1  -2 2248.90 99.7209   2
  -7  -1   2 2387.73 140.415   1
   7  -1  -2 2302.98 127.326   1
   7   1  -1 47162.3 581.656   1
   7   1  -1 47867.3 509.855   2
  -7   1   1 46935.0 529.755   1
   7  -1  -1 46158.4 529.995   1
  -7  -1   1 45862.9 580.066   1
  -7  -1   0 1467.11 110.214   1
   7   1   0 1164.39 93.5651   2
   7   1   0 1378.48 104.826   1
  -7   1   0 1437.42 92.2698   1
   7  -1   0 1338.17 90.2205   1
   7  -1   1 20448.9 328.688   1
   7   1   1 20776.7 410.491   2
   7   1   1 19487.4 375.690   1
  -7  -1  -1 18576.8 365.394   1
  -7   1  -1 18909.7 323.652   1
  -7   1  -2 57434.9 660.179   3
   7  -1   2 57521.3 748.351   2
   7   1   2 57715.6 737.600   2
  -7  -1  -2 56462.3 719.690   3
   7   1   2 56807.2 643.539   1
   7  -1   2 57609.8 554.979   1
   7  -1   3 214.235 44.7666   1
  -7  -1  -3 49.7971 44.4446   3
   7  -1   3 126.772 66.0068   2
  -7   1  -3 100.123 40.4379   3
   7   1   3 225.596 66.3843   2
   7   1   3 251.707 54.9021   1
   7  -1   4 20199.9 504.639   2
   7   1   4 20163.7 496.380   2
  -7  -1  -4 19314.0 447.559   3
   7   1   4 19339.1 392.091   1
   7  -1   4 20086.8 334.028   1
  -7   1  -4 19628.6 408.940   3
   7  -1   5 35769.9 468.253   1
   7  -1   5 34591.9 694.675   2
   7   1   5 34583.4 684.612   2
  -7  -1  -5 34317.0 614.062   3
  -7   1  -5 34888.4 564.706   3
   7   1   5 34204.7 547.633   1
   7  -1   6 5452.17 292.120   2
   7   1   6 5500.87 290.293   2
   7  -1   6 5894.95 200.337   1
  -7  -1  -6 5165.98 249.573   3
   7   1   6 5944.05 239.659   1
  -7   1  -6 5274.15 227.855   3
   7   1   7 12850.9 358.838   1
   7  -1   7 13134.7 478.062   2
   7   1   7 13039.1 470.707   2
   7  -1   7 12777.3 307.050   1
  -7  -1  -7 13187.9 414.382   3
  -7   1  -7 12867.1 373.197   3
   7  -1   8 69982.1 1137.01   2
   7   1   8 66691.3 1102.79   2
   7   1   8 68764.1 863.556   1
  -7  -1  -8 71971.0 1002.34   3
  -7   1  -8 71046.5 907.136   3
   7  -1   8 71072.6 757.985   1
   7  -1   9 2698.77 159.752   1
   7  -1   9 2653.10 240.218   2
   7   1   9 2473.03 233.312   2
  -7   1  -9 2843.82 198.778   3
   7   1   9 2491.53 176.797   1
  -7  -1  -9 2757.97 209.960   3
   7  -1  10 162.648 90.9118   2
   7  -1  10 74.1248 48.6899   1
   7   1  10 82.2173 51.3421   1
   7   1  10 161.157 90.8419   2
  -7  -1 -10 155.466 79.8675   3
  -7   1 -10 162.869 80.2769   3
   7   1  11 21839.8 546.922   1
   7  -1  11 20909.4 711.411   2
   7   1  11 21418.8 722.404   2
  -7  -1 -11 22680.4 629.510   3
  -7   1 -11 22931.1 584.801   3
   7  -1  12 1107.01 180.370   2
   7   1  12 1190.21 195.844   2
  -7  -1 -12 1201.10 162.083   3
  -7   1 -12 1327.17 154.552   3
   7   1  13 6497.74 430.028   2
   7  -1  13 6537.93 433.484   2
  -7  -1 -13 6930.25 373.947   3
  -7   1 -13 7313.49 360.606   3
   7   1  14 4453.52 375.764   2
   7  -1  14 4347.44 373.907   2
  -7  -1 -14 5016.37 337.544   3
  -7   1 -14 4764.90 304.435   3
  -7  -1 -15 50.3486 94.6744   3
   7  -1  15-51.7005 102.601   2
   7   1  15 137.405 128.243   2
  -7  -3  23 58.7811 105.942   1
  -7  -3  22 1163.35 204.863   1
  -7   3  22 1071.02 201.117   1
  -7  -3  21 1686.26 225.713   1
  -7   3  21 1587.24 223.892   1
  -7  -3  20 0.13982 89.4176   1
  -7   3  20-49.9761 89.5010   1
  -7   3  19 3033.18 282.120   1
  -7  -3  19 3035.54 280.105   1
  -7  -3  18 602.541 138.431   1
  -7  -3  18 606.410 133.433   2
  -7  -3  17 2030.11 202.294   2
  -7  -3  17 2114.34 220.211   1
  -7  -3  16 12300.0 444.439   2
  -7  -3  16 12485.2 496.263   1
   7  -3 -15 8586.88 374.900   2
  -7  -3  15 9087.36 362.441   2
  -7  -3  15 9424.26 420.899   1
  -7  -3  14 1043.31 151.316   1
   7  -3 -14 901.264 122.523   2
  -7  -3  14 962.994 125.017   2
   7  -3 -13 41333.6 734.194   2
  -7  -3  13 42187.1 679.418   2
  -7  -3  13 42719.5 828.114   1
   7  -3 -12 3667.21 211.497   2
  -7  -3  12 4157.65 198.885   2
  -7  -3  12 4138.72 260.130   1
  -7  -3  11 994.603 129.216   1
   7  -3 -11 1140.59 115.441   2
  -7  -3  11 1195.53 102.543   2
  -7   3  11 1426.47 160.859   3
  -7  -3  10 19722.1 349.046   2
   7  -3 -10 19071.6 411.192   2
  -7  -3  10 20240.9 514.108   1
  -7   3  10 20819.4 539.632   3
  -7  -3   9 1924.20 97.6854   2
   7  -3  -9 1947.81 123.853   2
  -7   3   9 1910.17 166.801   3
  -7  -3   9 2142.36 173.738   1
  -7   3   8 90.7208 50.5500   3
  -7  -3   8 181.772 82.2682   1
  -7  -3   8 138.812 33.0973   2
   7   3  -8 69.4872 58.3729   1
  -7  -3   7 60605.0 803.099   1
   7   3  -7 58811.6 809.328   1
  -7  -3   6 37644.0 619.323   1
   7   3  -6 37048.6 617.432   1
  -7  -3   5 27669.4 516.233   1
  -7   3   5 27089.3 489.911   1
   7   3  -5 28060.1 523.786   1
  -7  -3   4 89093.5 905.074   1
  -7   3   4 86879.2 827.863   1
   7   3  -4 88463.0 914.730   1
   7   3  -3 17319.6 398.730   1
  -7  -3   3 16268.2 232.185   2
  -7   3   3 16280.1 338.882   1
  -7  -3   3 18058.9 407.989   1
  -7  -3   2 11685.4 324.564   1
  -7  -3   2 12816.4 243.320   2
   7   3  -2 11918.6 330.501   1
  -7   3   2 12077.5 270.471   1
   7   3  -1 171.319 46.7955   1
  -7  -3   1 255.670 48.8370   2
  -7   3   1 230.833 43.4094   1
  -7  -3   1 269.136 59.3177   1
  -7  -3   0 1675.78 113.473   2
  -7  -3   0 2147.86 147.385   1
  -7   3   0 2058.98 100.324   1
   7   3   0 1910.02 139.386   1
  -7   3  -1 8211.50 181.391   1
  -7  -3  -1 8839.25 305.829   3
  -7  -3  -1 8450.34 271.709   2
   7  -3   1 8416.24 181.792   1
   7   3   1 8700.84 275.505   2
  -7  -3  -1 7651.14 261.122   1
   7   3   1 8096.22 272.959   1
  -7  -3  -2 63253.7 792.739   2
  -7  -3  -2 62534.8 824.180   3
   7   3   2 63264.4 770.532   1
  -7   3  -2 62268.3 461.364   1
   7   3   2 64350.4 793.578   2
  -7  -3  -3 2908.51 185.961   2
   7   3   3 2885.43 187.132   2
  -7   3  -3 2554.37 132.153   3
  -7  -3  -3 2501.37 180.301   3
   7   3   3 3288.11 187.698   1
   7  -3   3 2718.14 92.4735   1
  -7  -3  -4 13659.1 416.408   2
  -7  -3  -4 13873.6 408.235   3
   7   3   4 13730.2 419.199   2
  -7   3  -4 14349.1 304.472   3
   7   3   4 13371.8 374.321   1
   7  -3   4 13119.3 193.526   1
   7   3   5 25423.8 523.345   1
   7  -3   5 23451.8 269.338   1
   7   3   5 24529.3 585.252   2
  -7  -3  -5 23251.6 549.843   3
  -7   3  -5 24344.2 413.446   3
   7  -3   6 2477.57 205.704   2
   7  -3   6 2529.36 94.9469   1
   7   3   6 2699.51 209.788   2
   7   3   6 2846.29 187.063   1
  -7  -3  -6 2621.41 194.556   3
  -7   3  -6 2695.35 146.352   3
   7  -3   7 6655.89 350.709   2
  -7  -3  -7 6440.35 311.641   3
   7   3   7 6435.88 334.367   2
  -7   3  -7 6715.81 241.319   3
   7  -3   7 6976.77 164.834   1
   7   3   7 7474.93 308.346   1
   7  -3   8 22964.7 668.793   2
   7   3   8 21767.2 634.327   2
  -7  -3  -8 23097.6 606.673   3
  -7   3  -8 24060.1 474.701   3
   7   3   8 21714.8 540.264   1
   7  -3   8 22978.9 323.226   1
   7   3   9 584.866 105.324   1
   7  -3   9 485.321 62.3302   1
   7  -3   9 408.013 114.381   2
   7   3   9 489.966 123.419   2
  -7  -3  -9 472.547 115.328   3
  -7   3  -9 482.434 86.9836   3
   7  -3  10 211.815 99.2545   2
   7   3  10 209.994 108.026   2
   7  -3  10 175.263 43.8903   1
  -7  -3 -10 222.375 96.4889   3
  -7   3 -10 178.801 62.2208   3
   7   3  10 225.610 81.6319   1
   7  -3  11 43331.6 1039.41   2
   7   3  11 40517.3 990.215   2
  -7  -3 -11 43521.3 923.057   3
  -7   3 -11 44969.4 748.777   3
  -7   3 -12 1178.26 135.770   3
   7  -3  12 1460.52 222.093   2
   7   3  12 1124.04 192.635   2
  -7  -3 -12 1190.38 176.640   3
   7  -3  13 3288.46 326.088   2
  -7  -3 -13 2953.79 269.577   3
   7  -3  14 3935.91 360.104   2
  -7  -3 -14 4103.73 323.275   3
   7  -3  15 134.778 118.702   2
  -7  -3 -15 201.355 109.500   3
  -7  -3 -16 4082.71 339.928   3
  -7  -5  22 633.740 152.550   1
  -7  -5  21 549.020 153.515   1
  -7  -5  21 574.181 137.557   2
  -7  -5  20 82.1453 84.9369   2
  -7  -5  20 125.572 95.8746   1
  -7  -5  19 2255.16 240.890   1
  -7  -5  19 2395.03 239.738   2
  -7  -5  18 6015.43 367.177   1
  -7  -5  18 5996.80 349.932   2
  -7  -5  17 749.999 137.953   1
  -7  -5  17 856.599 136.860   2
  -7  -5  16 13086.0 511.785   1
  -7  -5  16 12965.5 460.312   2
  -7  -5  15 8032.62 387.329   1
  -7  -5  15 7720.25 338.118   2
   7  -5 -14 526.349 107.175   2
  -7  -5  14 481.479 107.671   1
  -7  -5  14 470.814 90.2548   2
  -7  -5  13 12255.4 456.134   1
  -7  -5  13 12363.4 379.118   2
   7  -5 -13 11914.5 418.865   2
  -7  -5  12 18098.8 530.650   1
  -7  -5  12 16454.3 403.231   2
   7  -5 -12 16518.5 471.294   2
  -7  -5  11 8202.72 261.008   2
  -7  -5  11 8471.33 351.106   1
   7  -5 -11 8376.06 318.965   2
  -7  -5  10 22697.6 558.828   1
   7   5 -10 21888.0 549.917   1
  -7   5  10 22068.5 568.703   3
  -7  -5   9 4319.92 239.628   1
   7   5  -9 3993.17 231.054   1
  -7   5   9 3805.02 231.184   3
  -7   5   8 104485. 1141.04   3
  -7  -5   8 100721. 1110.62   1
   7   5  -8 100708. 1119.28   1
  -7  -5   7 145380. 1306.10   1
   7   5  -7 149018. 1327.64   1
  -7  -5   6 249526. 1654.73   1
   7   5  -6 242127. 1663.47   1
  -7   5   6 237775. 1557.39   3
  -7   5   5 57.8639 48.1144   3
   7   5  -5 184.134 64.7087   1
  -7  -5   5 153.661 70.6602   1
  -7   5   4 51965.6 650.625   3
   7   5  -4 53696.9 764.362   1
  -7  -5   4 53499.4 751.885   1
  -7  -5   3 11566.8 354.476   1
   7   5  -3 11904.0 358.342   1
  -7  -5   2 30262.0 567.654   1
  -7  -5   2 30117.3 424.502   2
   7   5  -2 30212.3 574.514   1
  -7   5   2 30417.6 432.627   1
  -7  -5   1 43256.6 564.567   2
  -7  -5   1 40362.7 658.815   1
  -7   5   1 43406.4 475.105   1
   7   5  -1 42977.4 677.106   1
  -7  -5   0 52010.0 741.296   1
  -7  -5   0 48122.3 631.859   2
  -7   5   0 49800.4 451.630   1
   7   5   0 50095.4 739.366   1
  -7  -5  -1 970.706 99.0126   2
   7   5   1 1038.62 116.108   1
  -7  -5  -1 1103.17 122.604   3
  -7   5  -1 1032.85 59.9327   1
  -7  -5  -2 2869.30 202.103   3
  -7  -5  -2 2552.53 174.453   2
   7   5   2 2408.94 176.972   1
  -7  -5  -3 394.884 85.3926   2
  -7  -5  -3 284.286 81.3879   3
   7   5   3 363.279 80.2945   1
  -7   5  -3 258.477 41.3789   3
   7   5   4 53861.2 823.247   1
  -7  -5  -4 53298.2 849.488   2
  -7   5  -4 52210.6 467.776   3
  -7  -5  -4 52484.1 851.859   3
  -7  -5  -5 14536.7 471.073   2
  -7  -5  -5 15034.9 468.522   3
  -7   5  -5 14927.5 259.723   3
   7   5   5 13624.1 422.228   1
  -7  -5  -6 3863.97 249.171   3
   7   5   6 4035.17 235.901   1
  -7   5  -6 3844.13 142.587   3
  -7  -5  -7 4969.94 291.856   3
  -7   5  -7 4979.78 168.133   3
   7   5   7 4818.45 270.491   1
   7   5   8 16650.5 508.770   1
  -7  -5  -8 15789.6 526.672   3
  -7   5  -8 16719.7 329.225   3
  -7   5  -9 51.0975 40.2295   3
   7  -5   9 95.5559 85.9710   2
  -7  -5  -9-14.0679 70.7231   3
   7  -5  10 13947.5 586.145   2
  -7  -5 -10 13445.4 523.441   3
  -7   5 -10 14662.2 340.595   3
   7  -5  11 10712.7 536.008   2
  -7  -5 -11 10705.2 486.819   3
   7  -5  12 2009.48 245.962   2
  -7  -5 -12 2090.60 235.437   3
   7  -5  13 5790.52 433.186   2
  -7  -5 -13 5649.08 375.368   3
   7  -5  14 3391.76 339.125   2
  -7  -5 -14 3209.77 301.219   3
   7  -5  15 197.489 140.544   2
  -7  -5 -15 171.289 116.939   3
  -7  -5 -16 4538.49 380.710   3
  -7  -5 -17 2154.61 282.147   3
  -7  -7  21 240.284 118.037   1
  -7  -7  20 127.237 98.0631   1
  -7  -7  20-65.2871 102.757   2
  -7  -7  19 4080.40 317.478   1
  -7  -7  19 4108.50 310.781   2
  -7  -7  18 937.851 150.082   2
  -7  -7  18 893.540 155.794   1
  -7  -7  17 168.378 89.9139   1
  -7  -7  17 200.406 85.0920   2
  -7  -7  16 194.877 96.7637   1
  -7  -7  16 140.536 82.7353   2
  -7  -7  15 4151.84 254.834   2
  -7  -7  15 4627.30 299.673   1
  -7  -7  14 11323.3 399.785   2
  -7  -7  14 11099.6 452.636   1
  -7  -7  13 7118.79 303.032   2
  -7  -7  13 7820.81 374.436   1
  -7  -7  12 21462.6 590.289   1
   7  -7 -12 20160.8 561.129   2
   7   7 -11 51.0180 62.3820   1
  -7  -7  11 170.576 85.0061   1
  -7  -7  10 4009.59 245.564   1
   7   7 -10 4035.21 248.993   1
  -7  -7   9 3192.50 221.997   1
   7   7  -9 2934.69 215.315   1
  -7   7   9 2169.13 185.274   3
  -7  -7   8 12587.1 412.997   1
  -7   7   8 14858.7 444.704   3
   7   7  -8 13539.6 433.632   1
  -7   7   7 77069.1 962.295   3
  -7  -7   7 79829.1 1011.70   1
   7   7  -7 80491.0 1031.91   1
   7   7  -6 6437.36 295.654   1
  -7   7   6 6043.37 262.673   3
  -7  -7   6 6567.29 290.677   1
  -7  -7   5 8529.16 336.482   1
   7   7  -5 8772.09 342.036   1
  -7   7   5 9040.93 303.893   3
   7   7  -4 21404.6 524.648   1
  -7  -7   4 20975.4 507.474   1
  -7   7   4 22940.5 455.221   3
   7   7  -3 3949.78 228.148   1
  -7  -7   3 4517.17 243.684   1
  -7   7   3 3023.92 159.941   3
  -7  -7   2 16956.1 462.049   1
   7   7  -2 18011.9 478.129   1
  -7   7   2 19059.7 363.099   3
  -7  -7   1 39095.1 691.519   1
  -7   7   1 38190.8 473.539   3
   7   7  -1 39771.7 710.482   1
   7   7   0 19002.1 502.379   1
  -7  -7   0 19946.7 515.050   3
  -7  -7   0 18956.1 435.568   2
  -7   7   0 18910.3 301.648   3
  -7   7  -1 544.699 46.1932   1
  -7  -7  -1 646.094 86.8236   2
  -7  -7  -1 453.439 90.4805   3
   7   7   1 765.439 112.187   1
  -7   7  -1 494.740 47.5792   3
  -7  -7  -2 11014.6 367.345   2
  -7  -7  -2 10890.7 393.248   3
   7   7   2 11051.0 394.695   1
  -7   7  -2 9295.86 161.141   3
  -7  -7  -3 3787.89 226.849   2
  -7  -7  -3 4058.96 247.196   3
   7   7   3 3468.10 228.057   1
   7   7   4 34076.9 715.920   1
  -7  -7  -4 35092.6 722.229   2
  -7  -7  -4 36222.5 752.504   3
   7   7   5 26667.4 644.139   1
  -7  -7  -5 24406.9 637.582   3
  -7  -7  -6 12461.1 467.879   3
  -7  -7  -7 45.1315 76.1251   3
  -7  -7  -8 9278.33 432.195   3
  -7  -7  -9 1233.87 166.491   3
  -7  -7 -10 27261.9 779.125   3
   7  -7  11 6516.51 437.085   2
  -7  -7 -11 6573.19 401.118   3
   7  -7  12 464.069 135.470   2
  -7  -7 -12 639.230 144.610   3
   7  -7  13 3423.06 340.869   2
  -7  -7 -13 3228.93 301.311   3
   7  -7  14 105.632 124.750   2
  -7  -7 -14 83.5313 109.326   3
  -7  -7 -15 30.7432 103.517   3
  -7  -7 -16 4822.16 403.423   3
  -7  -9  20 27.1069 84.2029   2
  -7  -9  20 88.0043 92.9823   1
  -7  -9  19 3953.21 314.412   1
  -7  -9  19 4330.45 324.548   2
  -7  -9  18 4588.83 321.489   2
  -7  -9  18 4833.97 337.073   1
  -7  -9  17 173.041 87.6258   2
  -7  -9  17 184.891 102.713   1
  -7  -9  16 3862.07 272.703   2
  -7  -9  16 3895.58 291.253   1
  -7  -9  15 1770.67 182.486   2
  -7  -9  15 1999.74 209.162   1
  -7  -9  14 164.464 72.4905   1
  -7  -9  13 217.401 83.8830   1
  -7  -9  12 4206.80 275.936   1
  -7  -9  11 2122.25 194.904   1
  -7  -9  10 15223.3 492.224   1
   7   9  -9 7483.93 349.532   1
  -7  -9   9 6967.05 338.260   1
  -7  -9   8 6446.16 316.590   1
  -7   9   8 7765.65 344.876   3
   7   9  -8 7154.19 335.206   1
   7   9  -7 14957.6 477.304   1
  -7  -9   7 13904.6 455.007   1
  -7   9   7 15875.3 465.083   3
   7   9  -6 1706.09 171.596   1
  -7  -9   6 1950.03 178.439   1
  -7   9   6 1363.34 135.482   3
   7   9  -5 4110.59 252.330   1
  -7   9   5 4760.67 235.961   3
  -7  -9   5 3472.95 233.323   1
  -7  -9   4 33186.7 683.924   1
   7   9  -4 32701.2 694.488   1
  -7   9   4 29814.5 549.242   3
  -7   9   3 1088.21 101.511   3
  -7  -9   3 1202.13 138.784   1
   7   9  -3 1341.59 145.982   1
  -7  -9   2 23712.5 575.392   3
  -7   9   2 23529.6 425.910   3
   7   9  -2 24644.6 609.609   1
  -7  -9   2 24461.9 590.953   1
   7   9  -1 9022.52 372.249   1
  -7  -9   1 9698.56 371.549   3
  -7   9   1 9547.55 250.145   3
   7   9   0 7143.02 339.579   1
  -7   9   0 6284.38 181.707   3
  -7  -9   0 6054.53 308.474   3
  -7  -9  -1 6658.75 322.131   3
   7   9   1 6473.58 322.777   1
  -7   9  -1 6354.61 156.316   3
  -7  -9  -2 12628.4 452.262   3
  -7  -9  -2 12611.6 421.202   2
  -7   9  -2 11168.2 176.230   1
  -7   9  -2 12193.7 195.329   1
  -7  -9  -3 1496.48 166.275   3
  -7  -9  -3 1530.60 157.864   2
  -7  -9  -4 18411.5 568.550   3
  -7  -9  -5 33056.7 781.493   3
  -7  -9  -6-64.0265 90.6582   3
  -7  -9  -7 677.991 129.295   3
  -7  -9  -8 11291.0 495.904   3
  -7  -9  -9 1653.07 210.477   3
  -7  -9 -10 3244.81 294.012   3
  -7  -9 -11 8651.03 480.271   3
   7  -9  12 164.532 99.3427   2
  -7  -9 -12 129.923 100.400   3
   7  -9  13 8166.75 530.384   2
  -7  -9 -13 7847.46 483.341   3
   7  -9  14 841.597 199.034   2
  -7  -9 -14 909.079 185.937   3
  -7  -9 -15 480.342 164.658   3
  -7 -11  19 4271.96 332.901   2
  -7 -11  19 4259.76 327.402   1
  -7 -11  18 2312.23 240.176   2
  -7 -11  18 2290.33 235.243   1
  -7 -11  17-37.0446 77.7538   2
  -7 -11  17 6.32353 84.2759   1
  -7 -11  16 3197.89 270.519   1
  -7 -11  15 10399.9 466.869   1
  -7 -11  14 789.386 144.411   1
  -7 -11  13 5935.87 340.125   1
  -7 -11  12 2354.58 214.029   1
  -7 -11  11 110.382 78.6882   1
  -7 -11  10 4654.27 290.027   1
  -7 -11   9 3345.53 245.517   1
  -7 -11   8 863.507 134.251   1
  -7  11   7 25103.1 614.850   3
  -7 -11   7 26177.3 664.137   1
  -7 -11   6 1630.26 179.371   1
  -7  11   6 1629.62 156.473   3
  -7 -11   5 23903.8 620.012   1
  -7  11   5 24318.3 551.958   3
  -7  11   4 11947.1 370.681   3
  -7 -11   4 10547.1 417.539   1
  -7 -11   3 5020.35 284.173   3
  -7  11   3 5194.49 233.949   3
  -7 -11   2 13778.4 468.059   3
  -7  11   2 13841.5 354.263   3
  -7 -11   1 17969.6 543.304   3
  -7  11   1 18285.4 374.739   3
  -7 -11   0 2483.89 206.101   3
  -7  11   0 2355.90 119.509   3
  -7 -11  -1 5241.27 311.995   3
  -7  11  -1 4886.30 144.503   3
  -7  11  -2 31744.2 400.070   1
  -7 -11  -2 35061.6 800.902   3
  -7 -11  -3 27.1075 81.2148   3
  -7  11  -3 87.6622 16.8194   1
  -7 -11  -4 17100.7 580.567   3
  -7 -11  -5 13583.8 531.745   3
  -7 -11  -6 17.7640 85.4084   3
  -7 -11  -7 9599.20 474.393   3
  -7 -11  -8 8095.60 450.500   3
  -7 -11  -9 3459.91 308.133   3
  -7 -11 -10 8266.84 475.555   3
  -7 -11 -11 4073.72 351.004   3
  -7 -11 -12 103.693 104.938   3
   7 -11  13 2186.84 304.017   2
  -7 -11 -13 2233.34 280.885   3
  -7 -11 -14 117.571 118.556   3
  -7 -13  18 1637.91 218.233   1
  -7 -13  18 992.803 166.847   2
  -7 -13  17 31.8399 83.4348   1
  -7 -13  16 3443.34 287.871   1
  -7 -13  15 2226.59 234.664   1
  -7 -13  14 86.3866 76.0872   1
  -7 -13  13 5370.56 338.624   1
  -7 -13  12 1828.46 203.476   1
  -7 -13  11 284.196 98.4946   1
   7 -13 -10 3173.34 258.005   3
  -7 -13  10 3763.02 273.300   1
   7 -13  -9 2075.15 210.684   3
  -7 -13   9 2511.85 230.713   1
  -7 -13   8 2539.81 231.425   1
  -7 -13   7 2472.51 224.856   1
  -7 -13   6 273.265 103.917   1
  -7  13   6 171.745 78.1760   3
  -7 -13   5 5829.88 333.875   1
  -7  13   5 7561.26 333.931   3
  -7 -13   5 7688.83 362.929   3
  -7 -13   4 4541.98 284.583   3
  -7  13   4 4679.70 253.820   3
  -7 -13   3 345.680 97.7212   3
  -7  13   3 211.681 61.0806   3
  -7 -13   2 468.923 115.962   3
  -7  13   2 530.129 89.3313   3
  -7  13   1 9273.37 290.880   3
  -7 -13   1 9139.56 410.624   3
  -7  13   0 17728.6 355.871   3
  -7 -13   0 16972.2 571.216   3
  -7 -13  -1 2623.01 238.933   3
  -7  13  -1 2177.78 107.064   3
  -7 -13  -2 20328.5 643.361   3
  -7  13  -2 23008.0 407.735   1
  -7 -13  -3 1093.52 152.152   3
  -7  13  -3 1065.19 75.2985   1
  -7 -13  -4 1089.27 163.574   3
  -7 -13  -5 11079.6 508.167   3
  -7 -13  -6-98.8545 115.157   3
  -7 -13  -7 2401.93 258.681   3
  -7 -13  -8 5169.08 369.836   3
  -7 -13  -9 38.6984 108.890   3
  -7 -13 -10 5299.58 395.809   3
  -7 -13 -11 2974.89 315.304   3
  -7 -13 -12 39.0011 107.913   3
  -7 -15  16 3946.31 319.399   1
  -7 -15  15 3609.47 298.658   1
  -7 -15  14-23.8608 95.7674   1
  -7 -15  13 2694.22 255.334   1
  -7 -15  12 448.727 127.096   1
   7 -15 -12 13.8047 97.8882   3
   7 -15 -11 2070.19 230.993   3
  -7 -15  11 1818.85 207.340   1
   7 -15 -10 6628.26 380.530   3
  -7 -15  10 6587.87 379.057   1
   7 -15  -9 1066.47 164.745   3
  -7 -15   9 2617.00 252.189   1
   7 -15  -8 659.964 132.930   3
  -7 -15   8 854.196 154.820   1
   7 -15  -7 16345.9 539.644   3
  -7 -15   7 15287.2 527.624   3
  -7 -15   6 14888.9 518.969   3
  -7 -15   5 7092.72 367.573   3
  -7 -15   4 7175.12 375.237   3
  -7  15   4 7094.31 331.802   3
  -7  15   3 3761.59 233.343   3
  -7 -15   3 3809.97 277.430   3
  -7  15   2 2487.07 179.129   3
  -7 -15   2 2335.91 222.441   3
  -7  15   1 10205.7 331.971   3
  -7 -15   1 9706.48 444.228   3
  -7  15   0 147.088 47.9599   3
  -7 -15   0 191.267 94.7326   3
  -7  15  -1 1309.78 127.535   1
  -7 -15  -1 914.845 165.190   3
  -7 -15  -2 26247.4 766.256   3
  -7  15  -2 25066.5 488.490   1
  -7 -15  -3 2617.00 256.827   3
  -7 -15  -4 892.797 160.681   3
  -7 -15  -5 4857.59 353.453   3
  -7 -15  -6-102.151 121.163   3
  -7 -15  -7 5696.76 404.715   3
  -7 -15  -8 4697.32 375.595   3
  -7 -15  -9-55.5425 103.427   3
  -7 -15 -10 191.298 133.068   3
  -7 -17  15-59.2964 87.9378   1
  -7 -17  14 695.012 157.666   1
  -7 -17  13 4321.46 332.788   1
   7 -17 -12 995.950 180.038   3
  -7 -17  12 1913.12 231.798   1
   7 -17 -11 686.691 154.706   3
  -7 -17  11 688.237 133.602   3
  -7 -17  11 327.207 119.134   1
   7 -17 -10 3216.14 291.834   3
  -7 -17  10 2871.34 248.075   3
   7 -17  -9 2240.00 243.270   3
  -7 -17   9 2028.21 209.924   3
   7 -17  -8 6269.52 373.098   3
  -7 -17   8 6031.56 345.481   3
   7 -17  -7 2422.03 231.420   3
  -7 -17   7 2645.77 238.656   3
   7 -17  -6 5420.18 322.771   3
  -7 -17   6 4863.62 321.954   3
  -7 -17   5 7593.80 399.771   3
  -7 -17   4 2310.46 232.820   3
  -7 -17   3 2872.87 252.159   3
  -7 -17   2 5366.50 351.367   3
  -7 -17   1 7765.88 428.932   3
  -7 -17   0 3315.29 290.978   3
  -7 -17  -1 2639.44 259.509   3
  -7 -17  -2 244.688 127.082   3
  -7 -17  -3 66.1235 95.1523   3
  -7 -17  -4 6158.81 410.179   3
  -7 -17  -5 1449.37 215.217   3
  -7 -17  -6 99.5382 105.691   3
  -7 -17  -7 5846.68 431.794   3
  -7 -17  -8 1060.31 208.630   3
   7 -19 -12 18.6904 103.607   3
   7 -19 -11-47.7011 106.790   3
   7 -19 -10 2071.63 247.853   3
  -7 -19  10 1918.38 212.440   3
   7 -19  -9 307.664 121.321   3
  -7 -19   9 287.234 111.224   3
   7 -19  -8-44.6348 93.2426   3
  -7 -19   8 2.02810 87.5476   3
   7 -19  -7 2031.51 226.350   3
  -7 -19   7 1898.05 213.118   3
  -7 -19   6 3903.14 303.573   3
  -7 -19   5 765.974 154.810   3
  -7 -19   4 2442.82 253.790   3
  -7 -19   3 19.1847 86.8683   3
  -7 -19   2 604.432 144.334   3
  -7 -19   1 6584.15 409.829   3
  -7 -19   0 1220.93 197.362   3
  -7 -19  -1 351.121 116.044   3
  -7 -19  -2 7892.58 473.699   3
  -7 -19  -3 304.010 136.306   3
  -7 -19  -4 1728.01 243.599   3
  -7 -19  -5 2927.81 311.478   3
  -7 -19  -6 126.415 132.083   3
  -7 -21   8 2605.13 263.567   3
  -7 -21   7 680.296 149.648   3
  -7 -21   6 1525.61 208.846   3
  -7 -21   5 1439.22 208.513   3
  -7 -21   4 2618.49 270.989   3
  -7 -21   3 1026.73 186.108   3
  -7 -21   2 2711.76 279.667   3
  -7 -21   1 679.949 158.575   3
  -7 -21   0-109.387 112.293   3
  -7 -21  -1 941.176 190.852   3
  -7 -21  -2 2510.04 290.709   3
  -7 -21  -3 336.481 137.656   3
  -7 -21  -4 2938.77 320.555   3
  -7 -23   6 216.491 114.848   3
  -7 -23   5 238.612 130.739   3
  -7 -23   4 688.335 172.663   3
  -7 -23   3 100.310 105.965   3
  -7 -23   2 2855.67 309.869   3
  -7 -23   1 867.558 183.455   3
  -7 -23   0 991.566 196.466   3
  -8   0  23-34.9387 107.353   1
  -8   0  22 939.514 187.132   1
  -8   0  21 44.9972 93.5707   1
  -8   0  20 10871.3 532.584   1
  -8   0  19 32.6135 94.8928   1
  -8   0  18 370.558 125.229   1
  -8   0  17 50.9162 91.7275   1
  -8   0  16 19917.2 641.544   1
  -8   0  15 119.996 96.7420   1
  -8   0  14 30579.5 744.625   1
  -8   0  13 213.760 102.973   1
  -8   0  12 30896.4 704.113   1
  -8   0  11-43.4965 81.7502   1
  -8   0  10 23651.4 571.599   1
  -8   0   9-47.7047 60.2116   1
  -8   0   8 51160.4 780.756   1
  -8   0   7 64.5850 51.5796   1
  -8   0   6 189661. 1381.47   1
  -8   0   5 123.846 67.6985   1
   8   0  -5 134.424 68.4089   1
  -8   0   4 131.619 47.0826   1
   8   0  -4 341.611 72.2296   1
   8   0  -3-17.2589 24.7393   2
  -8   0   3 96.7358 45.5815   1
   8   0  -3 51.8863 42.2276   1
   8   0  -2 3215.24 133.242   2
  -8   0   2 4020.87 181.241   1
   8   0  -2 3648.45 173.511   1
   8   0  -1 16.8592 31.1100   2
   8   0  -1-15.3286 34.1560   1
  -8   0   1-0.12596 41.1076   1
   8   0   0 107751. 878.392   1
   8   0   0 110830. 931.351   2
  -8   0   0 106423. 881.500   1
  -8   0  -1-11.7014 37.9759   1
   8   0   1-28.7425 55.9104   2
   8   0   1-20.4524 41.3612   1
   8   0   2 42494.6 675.000   2
  -8   0  -2 41679.3 636.185   3
   8   0   2 40001.2 541.071   1
   8   0   3-18.0149 37.9171   1
   8   0   3-54.1169 61.1781   2
  -8   0  -3 53.7900 57.5321   3
   8   0   4 30754.0 644.127   2
  -8   0  -4 29757.8 563.388   3
   8   0   4 31010.1 489.305   1
   8   0   5 7.48396 55.8723   2
  -8   0  -5 79.0565 63.0757   3
   8   0   5-6.80372 38.2050   1
  -8   0  -6 70248.2 912.575   3
   8   0   6 69359.5 1067.28   2
   8   0   6 69232.1 776.958   1
   8   0   7-6.71921 71.0580   2
   8   0   7-70.9067 64.6350   1
  -8   0  -7-88.9997 78.5377   3
   8   0   8 1994.81 207.456   2
   8   0   8 2085.49 151.111   1
  -8   0  -8 1985.09 173.278   3
   8   0   9 127.041 67.7859   1
   8   0   9 19.1238 77.3550   2
  -8   0  -9 91.6218 77.0559   3
   8   0  10 26383.7 790.669   2
  -8   0 -10 28239.1 675.767   3
   8   0  10 27758.5 569.919   1
   8   0  11 16.0813 101.481   2
  -8   0 -11-88.1622 91.5131   3
   8   0  12 11225.4 558.749   2
  -8   0 -12 12018.6 470.238   3
   8   0  13 109.693 125.312   2
  -8   0 -13 30.2205 83.8672   3
   8   0  14 2026.23 270.945   2
  -8  -2  23 2947.30 308.277   1
  -8  -2  22 192.238 112.297   1
  -8   2  22 334.187 136.718   1
  -8  -2  21 1604.31 227.700   1
  -8   2  21 1400.69 217.652   1
  -8  -2  20 3.52639 96.9451   1
  -8   2  20 218.023 119.776   1
  -8   2  19 2221.83 252.648   1
  -8  -2  19 2261.90 247.690   1
  -8  -2  18 1536.92 197.517   1
  -8   2  18 1445.02 201.899   1
  -8   2  17 18705.4 652.507   1
  -8  -2  17 18969.6 640.004   1
  -8  -2  16 479.800 123.026   1
  -8   2  16 566.972 137.164   1
  -8  -2  15 309.153 91.8735   1
  -8   2  15 432.359 119.474   1
  -8  -2  14 1178.34 157.903   1
  -8   2  14 1213.70 168.480   1
   8  -2 -13 2733.98 177.285   2
  -8   2  13 2855.86 232.392   1
  -8  -2  13 3350.37 248.949   1
  -8  -2  12 197.505 78.9541   1
   8  -2 -12 135.860 53.0413   2
  -8   2  12 148.591 75.3925   1
   8  -2 -11 61877.9 716.365   2
  -8   2  11 61245.7 956.367   1
  -8  -2  11 62831.8 963.382   1
  -8   2  10 1047.77 130.985   3
  -8  -2  10 960.338 124.343   1
   8  -2 -10 880.556 81.0172   2
  -8   2  10 956.395 127.937   1
   8  -2  -9 12881.3 278.510   2
  -8   2   9 12852.4 412.985   1
  -8  -2   9 13161.7 417.139   1
   8   2  -8 1551.79 139.803   1
  -8   2   8 1760.06 152.784   1
  -8  -2   8 1786.74 154.785   1
  -8  -2   7 4935.11 247.206   1
   8   2  -7 4495.05 235.074   1
  -8   2   7 4321.86 222.937   1
  -8  -2   6 15.6151 58.1922   1
  -8   2   6-8.90519 57.8284   1
   8   2  -6 19.4655 47.7354   1
  -8  -2   5 58713.7 771.514   1
  -8   2   5 57591.4 724.614   1
   8   2  -5 58376.9 773.877   1
  -8  -2   4 7927.02 280.287   1
  -8   2   4 8125.36 262.348   1
   8   2  -4 8066.10 284.935   1
  -8  -2   3 52221.2 694.186   1
  -8   2   3 51537.4 625.059   1
   8   2  -3 52304.0 703.261   1
  -8   2   2 3288.33 153.708   1
   8   2  -2 3285.71 178.819   1
   8   2  -2 3321.40 132.852   2
   8  -2  -2 3406.48 157.708   1
  -8  -2   2 3167.78 173.485   1
   8   2  -1 4035.30 198.223   1
  -8   2   1 4303.38 167.189   1
   8   2  -1 4690.92 180.096   2
   8  -2  -1 4323.39 172.925   1
  -8  -2   1 3628.36 185.167   1
   8   2   0 2192.35 143.651   1
   8  -2   0 2373.13 123.571   1
  -8   2   0 2271.20 119.965   1
   8   2   0 2299.47 138.216   2
  -8  -2   0 2087.29 140.639   1
  -8  -2  -1 55320.6 709.819   1
   8   2   1 54391.3 709.052   2
  -8   2  -1 55209.8 555.363   1
   8   2   1 52765.8 691.313   1
   8  -2   1 53410.6 539.700   1
   8   2   2 872.999 106.521   2
  -8  -2  -2 811.687 107.444   3
   8   2   2 924.324 98.3650   1
   8  -2   2 1011.94 73.9635   1
   8   2   3 44889.7 657.132   1
   8  -2   3 46267.3 478.162   1
  -8  -2  -3 45228.5 731.129   3
   8   2   3 47092.3 751.687   2
  -8   2  -3 47316.5 626.869   3
   8  -2   4 3833.15 236.049   2
  -8   2  -4 3911.96 186.817   3
   8  -2   4 4007.38 143.755   1
   8   2   4 3822.56 197.380   1
  -8  -2  -4 4096.73 226.617   3
   8   2   4 4066.94 238.415   2
   8  -2   5 34.7413 55.6734   2
   8   2   5 10.8796 46.2898   1
   8   2   5 101.013 71.6266   2
  -8  -2  -5 93.8510 64.4831   3
  -8   2  -5 128.202 52.7265   3
   8  -2   5 90.8839 34.4966   1
   8  -2   6 2017.13 195.034   2
   8   2   6 2325.62 200.261   2
  -8  -2  -6 2254.13 188.654   3
  -8   2  -6 2360.45 155.708   3
   8  -2   6 2197.71 112.572   1
   8   2   6 2078.03 160.149   1
   8   2   7 28082.9 715.986   2
   8  -2   7 28705.3 734.158   2
  -8  -2  -7 27692.1 641.118   3
  -8   2  -7 29079.3 557.131   3
   8  -2   7 30579.8 428.127   1
   8   2   7 29537.6 598.948   1
   8   2   8 5888.68 278.732   1
   8  -2   8 6212.27 364.480   2
  -8  -2  -8 5863.95 308.324   3
  -8   2  -8 6393.46 273.640   3
   8   2   8 5788.24 348.320   2
   8  -2   8 6647.87 209.361   1
   8  -2   9 7038.72 228.110   1
   8   2   9 6386.53 297.707   1
   8  -2   9 6338.02 381.672   2
   8   2   9 6332.76 377.723   2
  -8  -2  -9 6527.56 336.962   3
  -8   2  -9 6854.95 298.397   3
   8   2  10 6100.05 389.343   2
   8  -2  10 5758.61 378.617   2
   8   2  10 6522.60 316.138   1
  -8  -2 -10 6011.37 337.197   3
  -8   2 -10 6267.46 297.282   3
   8  -2  11 453.370 137.999   2
   8   2  11 351.914 124.962   2
  -8  -2 -11 169.489 76.9699   3
  -8   2 -11 439.725 102.151   3
   8   2  12 1373.03 210.323   2
   8  -2  12 1274.80 206.278   2
  -8   2 -12 1396.70 162.613   3
  -8  -2 -12 1457.47 197.683   3
   8   2  13 2560.41 295.449   2
   8  -2  13 2356.36 279.874   2
  -8  -2 -13 2602.83 257.390   3
   8   2  14 281.645 140.369   2
   8  -2  14 227.149 133.284   2
  -8  -2 -14 37.6081 89.1467   3
  -8  -2 -15 14299.9 603.730   3
  -8  -4  23 357.133 132.619   1
  -8  -4  22 865.260 171.771   1
  -8   4  22 902.911 181.206   1
  -8  -4  21 7.39658 101.940   1
  -8   4  21 105.249 103.669   1
  -8   4  20 4073.99 341.697   1
  -8  -4  20 4206.05 335.097   1
  -8  -4  19 2160.42 221.852   2
  -8   4  19 1932.62 235.246   1
  -8  -4  19 1858.97 223.898   1
  -8  -4  18 91.1124 87.3845   1
  -8  -4  18 248.279 93.6999   2
  -8  -4  17 38.3759 83.0573   1
  -8  -4  17 161.899 81.1049   2
  -8  -4  16 2337.40 196.198   2
  -8  -4  16 2239.40 222.395   1
   8  -4 -15 984.750 133.607   2
  -8  -4  15 1018.84 153.136   1
  -8  -4  15 1200.76 136.027   2
  -8  -4  14 28150.1 565.306   2
   8  -4 -14 27014.3 624.363   2
  -8  -4  14 28112.8 711.177   1
   8  -4 -13 5400.89 269.846   2
  -8  -4  13 5436.30 230.042   2
  -8  -4  13 5719.55 315.093   1
  -8  -4  12 11899.9 437.266   1
  -8  -4  12 11932.5 311.801   2
   8  -4 -12 11627.1 367.634   2
  -8  -4  11 27.3699 34.8449   2
   8  -4 -11 27.7541 41.1283   2
  -8  -4  11-24.2779 64.6655   1
  -8   4  10 110.396 71.4301   3
  -8  -4  10 172.909 82.8767   1
   8  -4 -10 156.954 58.8986   2
   8   4 -10 107.643 73.2909   1
  -8  -4  10 147.267 43.7239   2
  -8  -4   9 12775.5 224.091   2
  -8  -4   9 13661.7 430.378   1
   8   4  -9 13703.8 436.694   1
  -8   4   9 13648.0 430.826   3
  -8  -4   8 140871. 1332.64   1
   8   4  -8 140919. 1353.05   1
  -8   4   8 139196. 1311.12   3
  -8  -4   7 7277.74 298.711   1
   8   4  -7 6557.15 287.832   1
  -8  -4   6 67820.3 886.526   1
   8   4  -6 68707.0 894.111   1
  -8  -4   5 10219.4 345.184   1
  -8   4   5 9196.37 300.531   1
  -8  -4   5 7658.91 141.049   2
   8   4  -5 9609.56 338.513   1
   8   4  -4 11835.5 366.248   1
  -8  -4   4 10862.4 197.212   2
  -8   4   4 10898.5 311.194   1
  -8  -4   4 12314.2 367.052   1
  -8  -4   3 687.040 65.8117   2
   8   4  -3 537.755 87.6491   1
  -8  -4   3 516.211 92.8573   1
  -8   4   3 676.760 82.8282   1
  -8  -4   2 17428.1 326.028   2
   8   4  -2 17103.7 432.288   1
  -8   4   2 17691.4 342.726   1
  -8  -4   2 18127.3 435.068   1
   8   4  -1 37.1071 45.0153   1
  -8   4   1 18.8756 37.7095   1
  -8  -4   1 17.2799 33.5605   2
  -8  -4   1 43.0553 49.0048   1
  -8  -4   0 23799.8 455.121   2
   8   4   0 23817.1 517.391   1
  -8  -4   0 23627.7 509.578   1
  -8   4   0 23672.9 341.480   1
  -8  -4  -1 20236.2 449.972   2
  -8  -4  -1 19898.0 503.425   3
  -8   4  -1 20089.4 292.684   1
   8   4   1 19468.9 465.410   1
  -8  -4  -2 27675.1 559.750   2
   8   4   2 25582.0 543.675   1
  -8  -4  -2 27815.4 595.834   3
  -8   4  -2 23493.3 283.767   1
  -8  -4  -3 1464.81 148.190   2
  -8   4  -3 1358.35 100.370   3
  -8  -4  -3 1412.93 155.013   3
   8   4   3 1910.67 158.066   1
  -8  -4  -4 41584.6 772.996   2
  -8  -4  -4 40790.3 754.655   3
   8   4   4 41670.9 717.615   1
  -8   4  -4 41346.2 519.165   3
  -8  -4  -5 5458.65 287.664   3
  -8   4  -5 6070.48 205.799   3
   8   4   5 6055.63 312.123   2
   8   4   5 5806.87 279.759   1
  -8  -4  -6 5225.37 287.841   3
   8   4   6 5194.11 301.672   2
  -8   4  -6 5496.85 203.520   3
   8   4   6 5335.43 273.034   1
   8   4   7 176.469 75.3272   1
   8  -4   7 36.4428 86.7859   2
   8   4   7 110.239 72.2206   2
  -8  -4  -7 30.1227 73.0452   3
  -8   4  -7 161.483 54.8379   3
   8  -4   8 2265.15 221.247   2
   8   4   8 2290.28 191.770   1
  -8  -4  -8 2195.88 204.517   3
   8   4   8 2269.35 224.368   2
  -8   4  -8 2499.07 151.427   3
   8  -4   9 196.052 116.707   2
  -8  -4  -9 155.329 101.985   3
  -8   4  -9 62.1806 53.7313   3
   8  -4  10 12868.6 571.508   2
  -8  -4 -10 13549.4 524.829   3
  -8   4 -10 13941.8 383.726   3
  -8   4 -11 896.094 111.353   3
   8  -4  11 829.165 169.940   2
  -8  -4 -11 857.426 146.512   3
   8  -4  12 15272.0 674.821   2
  -8  -4 -12 15458.5 597.882   3
   8  -4  13 942.850 181.082   2
  -8  -4 -13 884.311 173.964   3
   8  -4  14 1401.02 250.559   2
  -8  -4 -14 1222.03 191.573   3
  -8  -4 -15 115.363 125.985   3
  -8  -4 -16 2358.50 283.440   3
  -8  -6  22-196.812 124.956   1
  -8  -6  21 1415.74 213.791   1
  -8  -6  20-166.330 118.103   1
  -8  -6  20 17.6142 86.9283   2
  -8  -6  19 2754.31 271.143   1
  -8  -6  19 2753.80 249.528   2
  -8  -6  18 195.536 91.7931   1
  -8  -6  18 212.560 92.6262   2
  -8  -6  17 4653.90 323.865   1
  -8  -6  17 4478.29 282.107   2
  -8  -6  16 58.1969 64.0347   2
  -8  -6  16 65.4148 77.8692   1
  -8  -6  15 11246.5 469.544   1
  -8  -6  15 11369.5 392.130   2
  -8  -6  14 95.5921 66.7117   2
   8  -6 -14 58.3086 65.8256   2
  -8  -6  14 42.0799 76.6834   1
  -8  -6  13 3668.35 199.395   2
  -8  -6  13 4580.62 291.184   1
   8  -6 -13 3692.85 240.134   2
  -8  -6  12-78.9708 52.5887   2
   8  -6 -12-134.685 74.8022   2
  -8  -6  12 42.4635 68.9981   1
  -8  -6  11 5509.89 299.066   1
  -8  -6  10 329.103 74.0586   1
   8   6 -10 271.793 73.2100   1
  -8  -6   9 116252. 1282.37   1
   8   6  -9 117530. 1312.07   1
  -8   6   9 120132. 1313.77   3
  -8   6   8 195.978 79.4038   3
  -8  -6   8 186.188 83.2822   1
   8   6  -8 257.473 86.5077   1
  -8  -6   7 21264.6 531.951   1
   8   6  -7 20682.3 534.156   1
  -8   6   7 17658.9 464.077   3
   8   6  -6 2800.82 194.660   1
  -8  -6   6 2814.25 193.221   1
  -8   6   6 3077.98 189.399   3
   8   6  -5 78215.7 1012.20   1
  -8   6   5 76844.6 875.916   3
  -8  -6   5 79070.6 996.184   1
  -8  -6   4 2759.98 199.451   1
   8   6  -4 2559.67 194.682   1
  -8   6   4 2634.83 157.847   3
   8   6  -3 71616.5 956.539   1
  -8  -6   3 71121.1 933.923   1
   8   6  -2 2469.13 184.989   1
  -8  -6   2 2254.86 137.194   2
  -8   6   2 2168.87 127.941   1
  -8  -6   2 2660.23 191.510   1
  -8  -6   1 20098.1 418.252   2
  -8  -6   1 23663.6 542.245   1
  -8   6   1 20631.0 349.899   1
   8   6  -1 21767.5 535.759   1
  -8  -6   0 1887.51 167.280   3
  -8  -6   0 1762.99 135.945   2
  -8   6   0 1723.66 91.7035   1
   8   6   0 1668.21 152.050   1
  -8  -6  -1 22644.7 561.008   3
   8   6   1 23902.4 563.917   1
  -8  -6  -1 22285.2 503.656   2
  -8   6  -1 22218.9 277.040   1
  -8  -6  -2 2362.51 174.265   2
  -8  -6  -2 2240.15 183.691   3
   8   6   2 2345.85 181.691   1
  -8  -6  -3 66197.5 955.483   2
  -8   6  -3 63808.5 527.316   3
   8   6   3 67163.5 976.582   1
  -8  -6  -3 66656.6 1002.97   3
   8   6   4 431.087 99.1871   1
  -8  -6  -4 682.315 111.103   2
  -8   6  -4 646.866 56.4089   3
  -8  -6  -4 710.065 120.989   3
  -8  -6  -5 19331.2 569.579   3
  -8   6  -5 18003.1 265.044   3
   8   6   5 19636.4 547.167   1
  -8  -6  -6 1128.04 153.186   3
  -8   6  -6 973.197 67.5215   3
  -8  -6  -7 17346.7 574.735   3
  -8   6  -7 16305.9 272.677   3
  -8  -6  -8 499.327 122.943   3
  -8   6  -8 587.105 57.9256   3
   8  -6   9 27013.4 822.289   2
  -8  -6  -9 27229.8 757.991   3
   8  -6  10 138.653 105.978   2
  -8  -6 -10-5.80251 88.0793   3
   8  -6  11 4012.35 351.151   2
  -8  -6 -11 3730.99 302.803   3
   8  -6  12 874.962 189.994   2
  -8  -6 -12 1141.80 195.833   3
   8  -6  13-19.2306 104.155   2
  -8  -6 -13-59.6263 123.174   3
   8  -6  14 242.501 134.785   2
  -8  -6 -14 31.4311 102.048   3
  -8  -6 -15 10491.8 568.820   3
  -8  -6 -16 190.081 136.523   3
  -8  -8  21 23.6364 94.0718   1
  -8  -8  20 5963.75 398.585   1
  -8  -8  19 23.2540 79.9109   2
  -8  -8  19 21.7602 89.1957   1
  -8  -8  18 204.223 87.1069   2
  -8  -8  18 29.0903 91.7370   1
  -8  -8  17 872.597 137.137   2
  -8  -8  17 948.680 161.631   1
  -8  -8  16 594.531 112.961   2
  -8  -8  16 753.211 140.158   1
  -8  -8  15 1467.50 154.190   2
  -8  -8  15 1428.82 180.332   1
  -8  -8  14 10912.6 382.007   2
  -8  -8  14 11919.5 486.109   1
  -8  -8  13 1225.97 169.516   1
  -8  -8  12 28506.5 705.924   1
  -8  -8  11 1292.42 165.080   1
  -8  -8  10 2338.63 204.693   1
  -8  -8   9 2414.95 204.698   1
  -8   8   8 64759.4 951.331   3
  -8  -8   8 65288.1 988.831   1
   8   8  -8 66466.5 1030.59   1
  -8  -8   7 1507.18 163.385   1
   8   8  -7 1443.92 158.338   1
  -8   8   7 1293.28 140.317   3
   8   8  -6 27340.7 636.337   1
  -8  -8   6 26037.3 625.446   1
  -8   8   6 27167.7 570.315   3
  -8  -8   5 895.442 124.396   1
   8   8  -5 953.725 130.845   1
  -8   8   5 1201.49 119.649   3
   8   8  -4 4238.56 261.367   1
  -8  -8   4 3964.39 252.771   1
  -8   8   4 4805.00 219.588   3
   8   8  -3 406.646 91.2122   1
  -8  -8   3 660.244 113.157   1
  -8   8   3 338.254 67.3690   3
   8   8  -2 27778.5 643.207   1
  -8  -8   2 27380.0 627.355   1
  -8   8   2 24747.4 436.046   3
   8   8  -1 93.3272 52.6588   1
  -8  -8   1 269.808 80.9230   3
  -8   8   1 160.197 44.1044   3
   8   8   0 20570.3 563.283   1
  -8  -8   0 20005.0 479.007   2
  -8  -8   0 20689.7 558.670   3
  -8   8   0 20391.1 326.342   1
  -8   8   0 19865.7 330.305   3
  -8   8  -1 164.461 30.4757   1
   8   8   1 149.146 73.4526   1
  -8  -8  -1 245.968 81.9196   3
  -8  -8  -1 230.849 73.0826   2
  -8   8  -1 203.458 37.1411   3
  -8  -8  -2 9053.31 355.206   2
  -8  -8  -2 9429.71 398.653   3
  -8   8  -2 7907.70 152.541   3
  -8  -8  -3 311.055 92.3949   2
  -8  -8  -3 427.749 122.656   3
  -8  -8  -4 32472.9 765.943   3
  -8  -8  -5 4477.36 293.975   3
  -8  -8  -6 2112.41 206.141   3
  -8  -8  -7-69.8731 106.300   3
  -8  -8  -8 1192.80 172.465   3
  -8  -8  -9 7466.33 430.327   3
  -8  -8 -10 5359.58 366.246   3
   8  -8  11-39.4634 130.950   2
  -8  -8 -11 93.7407 104.667   3
   8  -8  12 9561.75 563.874   2
  -8  -8 -12 9571.11 512.032   3
   8  -8  13 114.557 104.548   2
  -8  -8 -13 130.804 122.528   3
  -8  -8 -14 626.973 165.249   3
  -8  -8 -15 158.713 141.926   3
  -8 -10  20 906.890 176.286   1
  -8 -10  19 1006.55 176.387   1
  -8 -10  18 412.167 120.725   2
  -8 -10  18 398.064 124.512   1
  -8 -10  17 7924.99 394.485   2
  -8 -10  17 8307.96 439.121   1
  -8 -10  16 322.657 109.364   1
  -8 -10  16 171.087 82.8249   2
  -8 -10  15 1088.91 166.227   1
  -8 -10  14 436.659 118.760   1
  -8 -10  13 849.124 147.270   1
  -8 -10  12 298.176 90.3371   1
  -8 -10  11 11858.3 468.627   1
  -8 -10  10 583.938 104.895   1
  -8 -10   9 6431.85 340.429   1
  -8 -10   8 552.229 111.303   1
  -8 -10   7 91.5446 78.4856   1
  -8  10   7 26.7358 53.4727   3
  -8  10   6 2606.41 192.393   3
  -8 -10   6 3281.17 237.696   1
  -8 -10   5 20963.2 585.165   1
  -8  10   5 19145.3 479.349   3
  -8 -10   4 1027.00 147.370   1
  -8  10   4 620.926 89.7070   3
  -8 -10   3 42835.7 827.351   1
  -8  10   3 43701.5 654.834   3
  -8 -10   2 256.488 100.877   3
  -8  10   2 144.096 59.8811   3
  -8 -10   1 1042.51 149.999   3
  -8  10   1 1003.58 89.2570   3
  -8 -10   0 284.893 104.981   3
  -8  10   0 72.8135 37.6987   3
  -8 -10  -1 20799.9 602.835   3
  -8 -10  -1 21725.5 564.734   2
  -8  10  -1 18517.8 274.782   3
  -8  10  -1 21475.8 319.481   1
  -8  10  -2 290.750 33.5128   1
  -8 -10  -2 416.414 97.7723   3
  -8  10  -2 359.745 32.9951   1
  -8 -10  -3 55294.1 1024.95   3
  -8 -10  -4 657.846 147.369   3
  -8 -10  -5 14465.6 545.562   3
  -8 -10  -6 2831.49 259.887   3
  -8 -10  -7 18133.4 643.703   3
  -8 -10  -8 1693.60 211.354   3
  -8 -10  -9 23224.9 770.124   3
  -8 -10 -10 483.849 151.631   3
  -8 -10 -11 859.800 175.606   3
   8 -10  12 488.729 168.315   2
  -8 -10 -12 623.097 179.537   3
  -8 -10 -13-73.8787 111.128   3
  -8 -10 -14 102.554 113.089   3
  -8 -12  19 11.6061 93.6388   1
  -8 -12  18 1013.04 173.586   1
  -8 -12  17 159.153 92.7371   2
  -8 -12  17 114.091 94.1213   1
  -8 -12  16 4262.37 324.748   1
  -8 -12  15 229.285 100.355   1
  -8 -12  14 11610.2 506.327   1
  -8 -12  13-30.9966 95.6374   1
  -8 -12  12 7574.58 399.543   1
  -8 -12  11 171.951 93.7463   1
  -8 -12  10 1742.72 195.859   1
  -8 -12   9 114.362 81.3338   1
  -8 -12   8 23705.4 663.730   1
  -8 -12   7 196.095 87.4762   1
  -8 -12   6 37603.1 840.068   1
  -8  12   6 39908.5 765.056   3
  -8 -12   5 132.766 74.6163   1
  -8  12   5 45.9466 52.3109   3
  -8 -12   4 233.727 92.8537   3
  -8 -12   4 198.538 84.0148   1
  -8  12   4 258.808 71.4624   3
  -8 -12   3 2261.08 206.210   3
  -8  12   3 2332.82 164.827   3
  -8 -12   2 246.004 88.2103   3
  -8  12   2 193.295 63.2681   3
  -8 -12   1 15359.5 533.264   3
  -8  12   1 15222.6 352.181   3
  -8 -12   0 41409.6 885.470   3
  -8  12   0 40710.1 509.656   3
  -8  12  -1 171.456 33.8581   3
  -8 -12  -1 202.008 95.0723   3
  -8 -12  -2 9331.12 439.185   3
  -8  12  -2 7808.81 197.111   1
  -8 -12  -3 673.402 143.583   3
  -8 -12  -4 14936.0 583.266   3
  -8 -12  -5 383.773 106.429   3
  -8 -12  -6 13549.1 572.060   3
  -8 -12  -7 1927.27 236.763   3
  -8 -12  -8-40.7657 110.275   3
  -8 -12  -9-49.0805 106.644   3
  -8 -12 -10 4624.59 375.672   3
  -8 -12 -11 643.670 177.021   3
  -8 -12 -12 7930.63 513.158   3
  -8 -14  18 271.164 121.536   1
  -8 -14  17 3720.68 318.028   1
  -8 -14  16 183.114 100.185   1
  -8 -14  15 2111.60 234.607   1
  -8 -14  14 2.28876 83.8480   1
  -8 -14  13 216.895 105.429   1
  -8 -14  12 95.4712 77.5443   1
  -8 -14  11 8379.23 426.113   1
  -8 -14  10 221.104 101.576   1
  -8 -14   9 2431.07 241.537   1
  -8 -14   8 3660.10 281.557   1
  -8 -14   7 710.767 158.692   1
  -8 -14   6 1141.01 165.736   3
  -8 -14   6 2019.45 214.550   1
  -8 -14   5 13016.0 500.181   3
  -8  14   5 13616.4 459.147   3
  -8 -14   4 822.193 154.367   3
  -8  14   4 717.790 115.050   3
  -8 -14   3 10716.9 464.225   3
  -8  14   3 11020.7 375.250   3
  -8 -14   2 904.290 162.840   3
  -8  14   2 790.751 105.044   3
  -8  14   1 1385.06 120.800   3
  -8 -14   1 1250.40 173.489   3
  -8  14   0 3487.60 163.863   3
  -8 -14   0 3771.02 295.323   3
  -8  14  -1 22130.8 453.580   1
  -8 -14  -1 17121.6 612.839   3
  -8 -14  -2 3662.01 294.748   3
  -8  14  -2 3428.77 157.871   1
  -8 -14  -3 21026.3 701.267   3
  -8 -14  -4 279.143 133.210   3
  -8 -14  -5 2518.80 262.663   3
  -8 -14  -6 58.5414 104.887   3
  -8 -14  -7 1773.80 236.279   3
  -8 -14  -8-12.1407 99.6384   3
  -8 -14  -9 8145.97 498.140   3
  -8 -14 -10 118.719 104.298   3
  -8 -16  16 141.010 93.5200   1
  -8 -16  15 342.752 128.063   1
  -8 -16  14 8094.08 455.595   1
  -8 -16  13 59.6925 84.9640   1
  -8 -16  12 6661.26 405.521   1
  -8 -16  11 182.340 103.360   1
  -8 -16  10 129.025 86.8426   1
  -8 -16   9 2624.19 254.697   1
  -8 -16   9 1423.16 176.926   3
  -8 -16   8 20996.5 647.963   3
  -8 -16   7-62.9541 82.5539   3
  -8 -16   6 14059.1 539.386   3
  -8 -16   5 161.061 101.036   3
  -8 -16   4-188.558 111.116   3
  -8  16   4 88.8902 66.4992   3
  -8 -16   3 223.599 90.8252   3
  -8  16   3 379.074 85.1977   3
  -8 -16   2 14049.7 558.311   3
  -8 -16   1 694.302 148.674   3
  -8 -16   0 8829.97 456.551   3
  -8 -16  -1 7287.48 425.858   3
  -8 -16  -2 897.544 175.715   3
  -8 -16  -3 872.879 171.651   3
  -8 -16  -4 1777.51 230.896   3
  -8 -16  -5-3.45618 104.962   3
  -8 -16  -6 17095.0 707.339   3
  -8 -16  -7 316.109 157.841   3
  -8 -16  -8 2395.09 288.913   3
  -8 -18  15 889.929 171.006   1
  -8 -18  14 197.032 108.850   1
  -8 -18  13-113.687 127.113   1
  -8 -18  12 119.447 100.941   3
  -8 -18  11 2025.93 224.249   3
  -8 -18  10 285.981 104.874   3
  -8 -18   9 4972.65 338.036   3
  -8 -18   8 338.814 113.486   3
  -8 -18   7 700.987 140.929   3
  -8 -18   6 1837.90 222.597   3
  -8 -18   5 5825.36 373.105   3
  -8 -18   4 2664.13 258.139   3
  -8 -18   3 7494.49 430.338   3
  -8 -18   2 685.970 162.454   3
  -8 -18   1 820.862 168.702   3
  -8 -18   0 28.3432 100.253   3
  -8 -18  -1 5888.18 404.273   3
  -8 -18  -2 181.713 121.309   3
  -8 -18  -3 7683.70 473.846   3
  -8 -18  -4 108.904 107.181   3
  -8 -18  -5 392.104 128.826   3
  -8 -18  -6-145.507 124.959   3
  -8 -20  10 243.058 112.099   3
  -8 -20   9 189.691 117.259   3
  -8 -20   8 902.719 170.267   3
  -8 -20   7-28.3677 96.2272   3
  -8 -20   6 3508.15 311.150   3
  -8 -20   5 93.3889 100.811   3
  -8 -20   4 1941.16 235.778   3
  -8 -20   3 192.271 118.271   3
  -8 -20   2 4578.58 361.313   3
  -8 -20   1 256.004 116.588   3
  -8 -20   0 6295.11 429.970   3
  -8 -20  -1 349.604 137.162   3
  -8 -20  -2 858.334 182.450   3
  -8 -20  -3 1871.61 259.167   3
  -8 -20  -4 1787.44 258.850   3
  -8 -22   8-29.6871 96.3014   3
  -8 -22   7-127.219 118.006   3
  -8 -22   6-9.81926 98.0477   3
  -8 -22   5 4349.24 354.408   3
  -8 -22   4-113.909 123.900   3
  -8 -22   3 1629.95 233.907   3
  -8 -22   2 258.690 133.371   3
  -8 -22   1-138.900 117.439   3
  -8 -22   0 530.324 162.845   3
  -8 -22  -1 3590.66 352.931   3
  -8 -24   4-8.11977 127.487   3
  -8 -24   3 57.7360 118.039   3
  -9  -1  23 264.048 129.082   1
  -9  -1  22 1374.40 220.324   1
  -9   1  22 1290.12 214.607   1
  -9  -1  21 909.398 189.941   1
  -9   1  21 801.418 174.214   1
  -9  -1  20 79.0648 87.9474   1
  -9   1  20 369.270 123.523   1
  -9   1  19 2252.65 246.586   1
  -9  -1  19 2334.12 250.569   1
  -9   1  18 2888.12 272.159   1
  -9  -1  18 3062.53 282.652   1
  -9   1  17 3638.41 295.949   1
  -9  -1  17 3913.69 303.824   1
  -9  -1  16 1492.70 191.590   1
  -9   1  16 1294.73 181.428   1
  -9   1  15 3196.07 258.729   1
  -9  -1  15 3225.74 262.871   1
  -9  -1  14 67.2763 76.9382   1
  -9   1  14 278.884 103.793   1
  -9   1  13 10410.3 432.389   1
  -9  -1  13 10557.6 436.372   1
  -9   1  12 20817.9 591.174   1
  -9  -1  12 21448.8 596.034   1
   9  -1 -11 4127.91 162.550   2
  -9   1  11 4831.24 283.311   1
  -9  -1  11 5020.10 284.883   1
   9  -1 -10 27213.8 369.002   2
  -9   1  10 29283.1 652.375   1
  -9  -1  10 28410.3 644.593   1
   9  -1  -9 24380.6 309.969   2
  -9   1   9 28321.1 620.142   1
  -9  -1   9 28448.6 620.796   1
   9  -1  -8 7264.72 150.225   2
  -9   1   8 9075.16 340.310   1
  -9  -1   8 9227.30 343.930   1
   9   1  -7 42405.7 718.137   1
  -9   1   7 43389.0 707.585   1
  -9  -1   7 43041.1 712.689   1
  -9  -1   6 11094.1 351.746   1
   9   1  -6 10665.1 355.282   1
  -9   1   6 11126.8 347.741   1
  -9  -1   5 1450.37 128.702   1
   9   1  -5 1682.47 138.918   1
  -9   1   5 1646.30 137.086   1
  -9   1   4 15102.8 374.964   1
   9   1  -4 14207.2 215.705   2
  -9  -1   4 15351.2 393.019   1
   9  -1  -4 15137.9 379.715   1
   9   1  -4 14978.5 395.112   1
  -9  -1   3 706.674 94.4947   1
   9   1  -3 732.924 95.9350   1
   9   1  -3 784.383 65.8836   2
  -9   1   3 706.529 89.5684   1
   9  -1  -3 660.002 84.5756   1
   9   1  -2 59108.4 601.044   2
  -9   1   2 57021.0 682.050   1
   9  -1  -2 57130.1 699.102   1
  -9  -1   2 56870.3 727.579   1
   9   1  -2 56846.3 734.984   1
   9   1  -1 61036.9 747.452   1
  -9  -1   1 63201.0 773.382   1
   9   1  -1 62318.4 688.094   2
  -9   1   1 62206.3 697.747   1
   9  -1  -1 61233.4 695.835   1
   9  -1   0 1583.90 128.945   2
   9   1   0 1649.66 128.943   1
   9   1   0 1625.19 126.367   2
  -9   1   0 1897.54 128.211   1
  -9  -1   0 2110.06 149.086   1
   9  -1   0 1660.74 115.853   1
  -9   1  -1 72809.0 730.698   1
   9  -1   1 77775.1 903.890   2
   9   1   1 76644.2 886.810   2
   9   1   1 74407.9 818.794   1
   9  -1   1 75776.2 737.712   1
   9  -1   2 28463.6 448.617   1
   9  -1   2 28685.1 585.584   2
  -9  -1  -2 27268.3 566.701   3
   9   1   2 28199.8 576.155   2
  -9   1  -2 28125.4 533.668   3
   9   1   2 28749.8 513.088   1
   9  -1   3 3301.22 214.429   2
   9  -1   3 3535.63 160.474   1
   9   1   3 3446.31 217.605   2
  -9   1  -3 3213.04 186.106   3
   9   1   3 3390.79 183.403   1
  -9  -1  -3 3263.17 204.697   3
   9  -1   4 4301.92 179.130   1
   9  -1   4 4165.32 254.315   2
   9   1   4 4262.19 252.809   2
  -9   1  -4 4099.33 213.222   3
  -9  -1  -4 4184.89 233.515   3
   9   1   4 4015.98 201.175   1
   9  -1   5 32205.1 732.110   2
  -9   1  -5 32642.5 610.590   3
   9   1   5 32947.5 728.769   2
  -9  -1  -5 32948.3 666.152   3
   9  -1   5 33508.4 499.514   1
   9   1   5 32977.2 585.688   1
   9  -1   6 1113.84 157.635   2
   9   1   6 1177.19 157.327   2
  -9  -1  -6 1194.96 150.197   3
  -9   1  -6 1066.43 122.068   3
   9  -1   6 1051.51 98.0684   1
   9   1   6 768.688 93.5206   1
   9   1   7 251.593 69.0796   1
   9  -1   7 251.152 54.6245   1
   9  -1   7 378.389 117.585   2
   9   1   7 373.872 114.111   2
  -9  -1  -7 254.085 89.4254   3
  -9   1  -7 283.544 81.6294   3
   9  -1   8 13617.5 544.834   2
   9   1   8 13555.8 541.531   2
   9   1   8 14268.2 419.065   1
  -9  -1  -8 14127.4 480.639   3
  -9   1  -8 14514.2 453.760   3
   9  -1   8 15027.6 361.922   1
   9  -1   9 829.534 161.101   2
   9   1   9 976.260 165.286   2
   9   1   9 743.315 106.845   1
   9  -1   9 802.129 92.1178   1
  -9  -1  -9 844.585 132.961   3
  -9   1  -9 824.615 121.283   3
   9   1  10 571.062 142.075   2
   9  -1  10 493.492 140.150   2
  -9  -1 -10 475.652 110.095   3
  -9   1 -10 376.937 77.3264   3
   9  -1  11 6683.29 437.881   2
   9   1  11 6774.33 435.924   2
  -9  -1 -11 7109.00 378.317   3
  -9   1 -11 6917.94 343.571   3
   9  -1  12 113.055 101.853   2
   9   1  12 99.2295 105.718   2
  -9  -1 -12 219.293 95.1469   3
  -9   1 -12 193.679 85.0142   3
   9  -1  13 3305.57 338.111   2
   9   1  13 3416.84 336.621   2
  -9  -1 -13 3825.90 298.190   3
   9   1  14 3991.70 380.607   2
   9  -1  14 3993.78 391.732   2
  -9  -3  23 73.8777 112.327   1
  -9  -3  22 1369.27 213.813   1
  -9   3  22 1594.04 230.964   1
  -9  -3  21 1150.02 202.332   1
  -9   3  21 856.415 178.819   1
  -9  -3  20 349.880 126.143   1
  -9   3  20 326.801 122.041   1
  -9  -3  19 64.3052 88.5235   1
  -9   3  19-18.1943 111.789   1
  -9   3  18 2596.30 258.900   1
  -9  -3  18 2940.20 275.591   1
  -9  -3  17 32.6918 83.8256   1
  -9   3  17 21.5933 82.2152   1
  -9   3  16 10285.1 475.381   1
  -9  -3  16 11019.4 481.507   1
   9  -3 -15 1488.52 152.225   2
  -9  -3  15 1513.99 183.954   1
  -9   3  15 1690.90 202.660   1
   9  -3 -14 2378.42 179.271   2
  -9   3  14 2536.91 237.213   1
  -9  -3  14 2582.85 231.123   1
   9  -3 -13 6039.07 260.754   2
  -9   3  13 6031.10 337.209   1
  -9  -3  13 6103.56 331.207   1
   9  -3 -12 1887.46 139.415   2
  -9   3  12 2098.53 197.391   1
  -9  -3  12 2112.47 195.398   1
  -9  -3  11 243.179 81.3934   1
   9  -3 -11 191.841 51.1364   2
  -9   3  11 178.899 72.3436   1
  -9  -3  10 27722.7 645.603   1
   9  -3 -10 26685.6 446.522   2
  -9   3  10 27178.1 630.198   1
  -9   3  10 28224.5 650.348   3
  -9  -3   9 17716.0 500.029   1
   9   3  -9 16423.2 486.042   1
  -9   3   9 16586.3 486.315   1
  -9  -3   8 448.679 82.9995   1
  -9   3   8 963.259 131.821   1
   9   3  -8 605.009 97.6555   1
  -9  -3   7 61011.0 872.266   1
  -9   3   7 61650.2 848.280   1
   9   3  -7 62467.2 898.147   1
  -9  -3   6 3063.49 198.476   1
  -9   3   6 3056.76 189.387   1
   9   3  -6 3124.06 204.931   1
  -9  -3   5 18451.8 463.060   1
  -9   3   5 18925.7 432.656   1
   9   3  -5 19107.7 477.785   1
  -9  -3   4 39303.7 658.272   1
  -9   3   4 39766.5 596.001   1
   9   3  -4 40107.4 674.401   1
   9   3  -3 8282.50 309.187   1
  -9  -3   3 8986.17 316.988   1
  -9   3   3 8354.72 261.235   1
  -9   3   2 934.161 88.6796   1
   9   3  -2 924.148 114.384   1
  -9  -3   2 841.439 110.003   1
   9   3  -1 4004.64 215.142   1
  -9   3   1 4162.36 170.197   1
  -9  -3   1 4320.08 222.450   1
  -9  -3   0 13055.2 382.574   1
   9   3   0 12760.1 345.004   2
   9   3   0 12233.9 368.755   1
   9  -3   0 12454.3 278.181   1
  -9   3   0 12653.8 280.300   1
   9   3   1 85620.8 942.306   2
  -9   3  -1 85066.3 698.275   1
   9  -3   1 83846.6 684.129   1
   9   3   1 83339.2 957.801   1
  -9  -3  -1 84225.1 1036.63   3
  -9  -3  -2 21259.0 534.228   3
   9   3   2 21206.5 499.560   2
   9  -3   2 20509.8 322.478   1
   9   3   2 19362.5 468.615   1
  -9  -3  -3 78.3448 58.4983   3
  -9   3  -3 43.7857 45.4971   3
   9   3   3 216.938 81.8960   2
   9   3   3-40.1183 112.712   1
   9  -3   3 95.9918 32.7326   1
   9   3   4 15984.7 446.435   1
  -9   3  -4 16654.9 384.270   3
  -9  -3  -4 15908.1 484.330   3
   9   3   4 16254.3 494.631   2
   9  -3   4 15859.7 260.954   1
   9  -3   5 459.047 112.335   2
   9   3   5 527.280 98.4120   1
  -9  -3  -5 586.975 120.387   3
   9   3   5 492.740 114.261   2
  -9   3  -5 496.895 82.1108   3
   9  -3   5 461.244 50.6565   1
   9   3   6 4604.63 253.930   1
   9  -3   6 4392.85 291.749   2
   9   3   6 4397.08 285.049   2
  -9  -3  -6 4245.51 266.209   3
  -9   3  -6 4107.31 202.814   3
   9  -3   6 4398.03 134.659   1
   9   3   7 6158.93 347.910   2
   9  -3   7 6149.72 160.926   1
   9  -3   7 6346.21 366.747   2
  -9  -3  -7 6321.07 333.708   3
   9   3   7 6539.32 309.645   1
  -9   3  -7 6621.65 267.363   3
   9  -3   8 7009.23 401.564   2
   9  -3   8 6307.90 166.692   1
   9   3   8 6622.19 377.163   2
  -9  -3  -8 6963.40 359.905   3
  -9   3  -8 7285.93 291.311   3
   9   3   8 6642.56 321.409   1
   9   3   9 205.071 76.1292   1
   9  -3   9-39.0166 103.575   2
   9   3   9 243.729 109.110   2
  -9  -3  -9 48.0724 80.3901   3
  -9   3  -9 145.151 58.3265   3
   9  -3  10 5424.17 381.605   2
   9   3  10 5299.90 369.430   2
  -9  -3 -10 4887.42 316.883   3
  -9   3 -10 5730.88 274.642   3
   9  -3  11 6153.44 425.206   2
   9   3  11 6008.28 410.486   2
  -9  -3 -11 6261.89 377.332   3
  -9   3 -11 6484.22 303.186   3
   9  -3  12 446.593 140.422   2
  -9  -3 -12 375.381 106.981   3
   9  -3  13 2211.50 285.797   2
  -9  -3 -13 2341.36 253.699   3
  -9  -3 -14 3229.99 295.974   3
  -9  -5  23-48.1844 104.086   1
  -9  -5  22 750.457 172.491   1
  -9  -5  21 1768.16 240.483   1
  -9   5  21 1632.09 232.836   1
  -9  -5  20 1162.80 190.623   1
  -9   5  20 1238.39 197.699   1
  -9  -5  19 411.780 119.173   1
  -9  -5  19 526.535 112.442   2
  -9   5  19 205.505 98.4389   1
  -9  -5  18 1051.83 171.644   1
  -9  -5  18 993.684 143.057   2
  -9  -5  17 583.610 107.512   2
  -9  -5  17 395.459 108.759   1
  -9  -5  16 1738.49 159.755   2
  -9  -5  16 1649.59 192.658   1
  -9  -5  15 14216.1 537.565   1
   9  -5 -15 12995.0 460.010   2
  -9  -5  15 13883.4 405.285   2
   9  -5 -14 101.504 68.4421   2
  -9  -5  14 139.245 56.1107   2
  -9  -5  14 22.1106 76.8804   1
  -9  -5  13 4954.65 304.907   1
  -9  -5  13 5112.98 211.530   2
   9  -5 -13 4660.00 253.984   2
  -9  -5  12 2153.73 203.807   1
   9  -5 -12 1889.08 156.665   2
  -9  -5  12 1992.57 120.501   2
  -9  -5  11 4476.14 161.077   2
  -9  -5  11 4263.00 270.769   1
  -9  -5  10 50651.9 469.517   2
  -9  -5  10 57424.7 945.905   1
  -9  -5   9 19840.7 546.299   1
   9   5  -9 19726.2 551.445   1
  -9   5   9 18929.8 524.990   3
   9   5  -8 457.272 102.125   1
  -9   5   8 222.751 71.9825   3
  -9  -5   8 619.612 108.352   1
  -9   5   7 78839.3 973.766   3
  -9  -5   7 81604.1 1049.25   1
   9   5  -7 80109.7 1060.08   1
  -9   5   6 63401.5 842.041   1
  -9  -5   6 65318.1 917.971   1
   9   5  -6 64824.5 937.900   1
   9   5  -5 1782.64 164.177   1
  -9  -5   5 1499.80 80.5759   2
  -9   5   5 1784.99 149.153   1
  -9  -5   5 1917.47 174.077   1
  -9  -5   4 257.846 41.3849   2
   9   5  -4 337.593 80.2620   1
  -9   5   4 413.206 72.4564   1
  -9  -5   4 313.884 82.8344   1
  -9  -5   3 3920.88 158.734   2
  -9  -5   3 4285.67 235.772   1
  -9   5   3 3996.73 183.841   1
   9   5  -3 4118.07 233.905   1
  -9  -5   2 8288.07 254.664   2
   9   5  -2 8172.24 331.427   1
  -9  -5   2 7576.76 317.435   1
  -9   5   2 8185.60 246.950   1
  -9   5   1 45861.2 535.557   1
  -9  -5   1 46821.6 646.691   2
  -9  -5   1 45387.3 750.961   1
   9   5  -1 45814.8 766.357   1
  -9  -5   0 7051.80 271.110   2
  -9  -5   0 8101.56 323.057   1
  -9   5   0 7583.33 203.762   1
   9   5   0 7613.26 325.261   1
  -9  -5  -1 10059.1 342.091   2
  -9  -5  -1 10678.4 396.206   3
   9   5   1 8840.49 344.118   1
  -9   5  -1 8692.85 197.963   1
   9   5   2 25911.1 592.413   1
  -9  -5  -2 24813.9 571.219   2
  -9  -5  -2 24501.8 615.279   3
  -9   5  -2 24044.8 283.386   1
  -9  -5  -3 21148.3 550.312   2
   9   5   3 22831.8 571.829   1
  -9   5  -3 21494.6 376.736   3
  -9  -5  -3 21557.7 583.020   3
   9   5   4 5424.42 283.883   1
  -9   5  -4 5835.31 196.459   3
  -9  -5  -4 5278.67 296.740   3
  -9   5  -5 7544.15 225.917   3
   9   5   5 6793.25 325.024   1
  -9  -5  -5 7176.91 358.553   3
  -9  -5  -6 2577.01 228.214   3
  -9   5  -6 2947.09 146.945   3
   9   5   6 2923.15 226.706   1
   9  -5   7 4160.46 306.728   2
  -9  -5  -7 4349.28 291.844   3
  -9   5  -7 4565.62 188.394   3
   9  -5   8 1317.34 187.267   2
  -9  -5  -8 1044.67 157.030   3
  -9   5  -8 1031.34 93.8011   3
   9  -5   9-68.7282 114.020   2
  -9  -5  -9-18.0629 96.1880   3
  -9   5  -9 30.8392 43.5436   3
   9  -5  10 5969.08 416.827   2
  -9  -5 -10 5424.15 357.523   3
   9  -5  11 9958.68 551.977   2
  -9  -5 -11 10076.9 497.019   3
   9  -5  12 323.313 131.294   2
  -9  -5 -12 225.519 100.617   3
   9  -5  13 3972.56 375.368   2
  -9  -5 -13 4554.44 366.094   3
  -9  -5 -14 4869.10 387.612   3
  -9  -5 -15-83.0788 116.862   3
  -9  -7  22 2040.30 257.557   1
  -9  -7  21 952.713 177.819   1
  -9  -7  20 833.935 163.080   1
  -9  -7  19 704.172 163.178   1
  -9  -7  18 2041.39 232.054   1
  -9  -7  18 2181.58 206.220   2
  -9  -7  17-23.1527 62.1439   2
  -9  -7  17-88.1069 93.6074   1
  -9  -7  16 3046.27 214.193   2
  -9  -7  16 3059.69 266.896   1
  -9  -7  15 3721.41 221.219   2
  -9  -7  15 4159.22 299.301   1
  -9  -7  14 16024.4 424.549   2
  -9  -7  14 16459.2 572.893   1
   9  -7 -14 15644.2 523.382   2
  -9  -7  13 3683.46 193.186   2
  -9  -7  13 4026.69 283.952   1
   9  -7 -13 3575.54 241.848   2
  -9  -7  12 8917.60 404.751   1
  -9  -7  11 1181.83 161.931   1
  -9  -7  10 13667.3 478.236   1
  -9  -7   9 24061.1 615.958   1
  -9   7   8 628.755 104.063   3
  -9  -7   8 438.456 103.506   1
  -9  -7   7 22436.1 578.550   1
  -9   7   7 21869.3 531.768   3
   9   7  -7 21982.6 590.831   1
  -9  -7   6 6991.75 326.036   1
   9   7  -6 6686.09 321.327   1
  -9   7   6 6331.08 275.777   3
   9   7  -5 16084.7 493.875   1
  -9  -7   5 15951.7 477.991   1
  -9   7   5 16961.8 426.034   3
   9   7  -4 57603.5 926.151   1
  -9  -7   4 56461.9 897.125   1
  -9   7   4 56218.8 739.349   3
   9   7  -3 3964.80 255.670   1
  -9  -7   3 3203.25 166.542   2
  -9   7   3 3239.78 179.591   1
  -9  -7   3 4723.29 271.989   1
  -9   7   3 2881.69 168.578   3
  -9   7   2 519.536 71.1343   3
   9   7  -2 409.531 92.8161   1
  -9  -7   2 196.483 79.8298   1
  -9  -7   2 506.052 77.8762   2
  -9   7   2 400.872 60.6103   1
  -9  -7   1 28897.2 653.505   1
  -9  -7   1 28233.0 540.031   2
   9   7  -1 29591.0 666.937   1
  -9   7   1 28006.6 424.761   1
  -9  -7   0 19180.8 472.079   2
  -9  -7   0 19855.3 556.736   3
   9   7   0 19235.0 538.469   1
  -9   7   0 19276.3 312.846   1
   9   7   1 7993.70 351.850   1
  -9  -7  -1 8308.85 327.485   2
  -9  -7  -1 8606.29 375.439   3
  -9   7  -1 7998.89 175.508   1
   9   7   2 20301.9 573.174   1
  -9  -7  -2 20263.9 533.569   2
  -9  -7  -2 20499.6 585.159   3
  -9  -7  -3 739.986 124.104   2
  -9   7  -3 562.707 56.4725   3
  -9  -7  -3 618.065 119.423   3
  -9  -7  -4 26409.9 696.681   3
  -9   7  -4 21875.0 276.789   3
  -9  -7  -5 3790.51 280.517   3
  -9  -7  -6 3872.21 289.753   3
  -9  -7  -7 1120.04 157.796   3
  -9  -7  -8 22241.9 702.922   3
   9  -7   9 483.762 140.289   2
  -9  -7  -9 660.039 135.677   3
   9  -7  10 8581.79 500.331   2
  -9  -7 -10 8998.33 477.304   3
   9  -7  11 3401.67 341.436   2
  -9  -7 -11 3163.15 305.798   3
   9  -7  12-6.08752 106.804   2
  -9  -7 -12 26.4088 111.826   3
   9  -7  13 3165.24 343.941   2
  -9  -7 -13 3151.88 316.669   3
  -9  -7 -14 3613.44 354.715   3
  -9  -7 -15-98.5299 139.952   3
  -9  -9  21 391.934 149.270   1
  -9  -9  20 20.0852 100.166   1
  -9  -9  19 3109.98 291.249   1
  -9  -9  18 3134.92 249.010   2
  -9  -9  18 3473.06 302.664   1
  -9  -9  17 239.603 91.9242   2
  -9  -9  17 75.6222 84.3677   1
  -9  -9  16 919.971 165.414   1
  -9  -9  16 832.694 129.325   2
  -9  -9  15 10029.8 374.697   2
  -9  -9  15 10850.1 493.909   1
  -9  -9  14 843.364 147.729   1
  -9  -9  13 2296.95 223.154   1
  -9  -9  12 3130.30 254.116   1
  -9  -9  11 329.476 104.634   1
  -9  -9  10 10340.3 432.371   1
  -9  -9   9 4206.73 276.620   1
  -9  -9   8 234.618 93.4177   1
  -9  -9   7 21203.9 602.634   1
  -9   9   7 22470.6 558.666   3
  -9  -9   6 1746.32 184.694   1
  -9   9   6 901.758 114.219   3
  -9  -9   5 5229.85 300.868   1
  -9   9   5 5832.38 261.061   3
  -9  -9   4 27580.7 670.105   1
  -9   9   4 23754.4 499.458   3
  -9  -9   3 4512.35 277.975   1
  -9   9   3 4118.97 195.919   3
  -9  -9   2 8881.59 382.272   1
  -9   9   2 9859.58 286.795   3
  -9  -9   1 19718.3 582.927   3
  -9  -9   1 18160.3 471.482   2
  -9   9   1 18428.6 362.997   1
  -9   9   1 17938.8 358.452   3
  -9  -9   0 1661.53 183.812   3
  -9  -9   0 1964.08 174.071   2
  -9   9   0 1936.61 110.455   1
  -9   9   0 1698.12 106.747   3
  -9  -9  -1 12451.0 477.365   3
  -9  -9  -1 11551.4 409.558   2
  -9   9  -1 11337.1 228.791   3
  -9   9  -1 11007.9 208.977   1
  -9  -9  -2 23792.1 668.371   3
  -9   9  -2 18842.4 233.474   3
  -9  -9  -3 3804.62 277.115   3
  -9  -9  -4 12929.9 519.023   3
  -9  -9  -5 327.139 108.746   3
  -9  -9  -6 4770.55 329.039   3
  -9  -9  -7 12758.2 545.024   3
  -9  -9  -8 4924.53 368.478   3
  -9  -9  -9 654.060 144.280   3
  -9  -9 -10 2609.51 275.890   3
   9  -9  11 4407.06 393.181   2
  -9  -9 -11 4392.74 360.501   3
   9  -9  12 136.251 118.700   2
  -9  -9 -12 231.778 113.848   3
  -9  -9 -13 1786.53 263.583   3
  -9 -11  20 66.0617 96.1397   1
  -9 -11  19 546.588 137.439   1
  -9 -11  18 5278.01 373.611   1
  -9 -11  17 281.358 95.1496   2
  -9 -11  17 491.670 135.227   1
  -9 -11  16 2482.68 211.489   2
  -9 -11  16 2463.32 253.892   1
  -9 -11  15 2264.70 237.607   1
  -9 -11  14 1577.82 199.422   1
  -9 -11  13 9825.65 459.059   1
  -9 -11  12 5552.55 344.877   1
  -9 -11  11 183.258 100.639   1
  -9 -11  10 5302.27 330.195   1
  -9 -11   9 9380.41 429.399   1
  -9 -11   8 427.763 105.411   1
  -9  11   7 8416.63 364.617   3
  -9 -11   7 9421.67 426.719   1
  -9 -11   6 1812.23 198.634   1
  -9  11   6 1297.14 143.721   3
  -9 -11   5 766.900 141.587   1
  -9  11   5 829.701 111.558   3
  -9  11   4 25053.8 544.397   3
  -9 -11   4 25585.0 687.708   1
  -9 -11   3 2016.09 203.825   1
  -9  11   3 3055.04 180.549   3
  -9 -11   3 2892.40 231.830   3
  -9 -11   2 4231.59 286.962   3
  -9  11   2 4150.37 198.765   3
  -9 -11   1 44052.5 904.110   3
  -9  11   1 42459.0 571.560   3
  -9 -11   0 2325.31 219.401   3
  -9 -11   0 2147.70 188.374   2
  -9  11   0 1975.01 112.357   3
  -9 -11  -1 13166.1 515.264   3
  -9  11  -1 10924.2 209.270   3
  -9  11  -1 12377.9 248.587   1
  -9  11  -2 18959.7 196.453   1
  -9 -11  -2 30518.6 791.584   3
  -9 -11  -3 1831.07 209.426   3
  -9 -11  -4 17175.2 622.881   3
  -9 -11  -5 5153.22 353.798   3
  -9 -11  -6 9331.70 479.723   3
  -9 -11  -7 1828.52 222.560   3
  -9 -11  -8 10572.3 538.026   3
  -9 -11  -9 373.991 134.596   3
  -9 -11 -10 4491.99 374.232   3
  -9 -11 -11 1184.65 226.640   3
  -9 -11 -12 220.570 131.395   3
  -9 -13  19 2893.55 300.365   1
  -9 -13  18 164.858 99.8038   1
  -9 -13  17 269.892 111.260   1
  -9 -13  16 3581.96 314.285   1
  -9 -13  15 4158.32 326.865   1
  -9 -13  14 470.123 124.274   1
  -9 -13  13 4444.42 330.463   1
  -9 -13  12 3924.53 306.669   1
  -9 -13  11 70.6976 93.8129   1
  -9 -13  10 3944.49 298.811   1
  -9 -13   9 1370.48 192.277   1
  -9 -13   8 4035.63 302.939   1
  -9 -13   7 18783.5 622.603   1
  -9  13   6 4053.46 261.028   3
  -9 -13   6 5844.98 355.767   1
  -9 -13   5 1840.61 195.589   3
  -9 -13   5 1557.01 192.373   1
  -9  13   5 1760.08 165.966   3
  -9 -13   4 17677.7 595.849   3
  -9  13   4 17533.5 481.466   3
  -9  13   3 4290.08 230.192   3
  -9 -13   3 4604.69 309.426   3
  -9 -13   2 2485.39 232.078   3
  -9  13   2 2353.41 154.351   3
  -9  13   1 20461.2 419.176   3
  -9 -13   1 20718.6 654.584   3
  -9  13   0 5389.47 190.058   3
  -9 -13   0 5915.25 361.358   3
  -9 -13  -1 3468.81 292.528   3
  -9  13  -1 2152.66 90.6671   3
  -9  13  -2 20963.7 291.211   1
  -9 -13  -2 23581.0 736.580   3
  -9 -13  -3 1216.72 186.494   3
  -9 -13  -4 3571.17 304.870   3
  -9 -13  -5 12717.8 572.691   3
  -9 -13  -6 790.189 170.354   3
  -9 -13  -7 2367.52 269.204   3
  -9 -13  -8 3454.60 329.792   3
  -9 -13  -9 1111.62 206.229   3
  -9 -13 -10 3438.71 341.838   3
  -9 -15  18 773.018 173.492   1
  -9 -15  17 134.141 107.628   1
  -9 -15  16 8666.80 485.228   1
  -9 -15  15 2044.86 247.987   1
  -9 -15  14 331.716 116.295   1
  -9 -15  13 2700.66 272.835   1
  -9 -15  12 1038.00 182.384   1
  -9 -15  11 518.836 132.224   1
  -9 -15  10 4728.27 340.891   1
  -9 -15   9 13426.7 556.538   1
  -9 -15   8 11.7785 78.0293   1
  -9 -15   7 7290.03 416.905   1
  -9 -15   7 5305.42 341.289   3
  -9 -15   6 478.759 131.184   3
  -9 -15   5 113.399 79.2141   3
  -9  15   5 108.088 60.1547   3
  -9  15   4 4544.25 269.530   3
  -9 -15   4 4568.29 323.678   3
  -9 -15   3 1923.94 219.627   3
  -9  15   3 2013.80 173.747   3
  -9 -15   2 35.5634 90.2575   3
  -9  15   2 72.1366 59.2644   3
  -9 -15   1 11485.4 512.412   3
  -9 -15   0 7095.68 421.725   3
  -9 -15  -1 4699.59 343.797   3
  -9 -15  -2 5549.38 380.390   3
  -9 -15  -3 679.210 152.075   3
  -9 -15  -4 758.616 166.554   3
  -9 -15  -5 4321.63 353.411   3
  -9 -15  -6 473.079 150.318   3
  -9 -15  -7 2957.84 321.478   3
  -9 -15  -8 4588.87 401.588   3
  -9 -15  -9-104.688 134.916   3
  -9 -17  16 985.104 186.668   1
  -9 -17  15 577.355 150.927   1
  -9 -17  14 1785.86 235.146   1
  -9 -17  13 3138.87 300.902   1
  -9 -17  12 601.547 159.639   1
  -9 -17  11 45.3667 98.3640   1
  -9 -17  10 6131.58 374.022   3
  -9 -17  10 7297.11 442.102   1
  -9 -17   9 421.463 123.364   3
  -9 -17   8 251.907 93.7798   3
  -9 -17   7 9041.95 460.192   3
  -9 -17   6 591.283 139.745   3
  -9 -17   5 570.657 137.560   3
  -9 -17   4 6245.64 391.032   3
  -9 -17   3 2784.40 271.946   3
  -9 -17   2 1655.68 215.529   3
  -9 -17   1 5380.45 380.953   3
  -9 -17   0 1083.16 193.046   3
  -9 -17  -1 1481.77 214.027   3
  -9 -17  -2 3663.99 325.463   3
  -9 -17  -3 525.952 137.300   3
  -9 -17  -4 3265.18 321.103   3
  -9 -17  -5 5132.46 408.818   3
  -9 -17  -6 278.447 124.976   3
  -9 -19  15 898.402 189.339   1
  -9 -19  12 414.787 136.248   3
  -9 -19  11 1115.95 175.672   3
  -9 -19  10 2292.42 247.865   3
  -9 -19   9 384.920 130.595   3
  -9 -19   8 360.327 115.700   3
  -9 -19   7 1193.49 197.517   3
  -9 -19   6 548.137 138.787   3
  -9 -19   5 5062.53 365.183   3
  -9 -19   4 1739.37 234.337   3
  -9 -19   3 2017.62 247.166   3
  -9 -19   2-112.434 121.941   3
  -9 -19   1 5977.19 421.345   3
  -9 -19   0 2509.45 285.434   3
  -9 -19  -1 1174.00 200.360   3
  -9 -19  -2 2227.34 268.898   3
  -9 -19  -3 64.4191 103.639   3
  -9 -19  -4 2007.27 268.168   3
  -9 -21   9 333.733 125.372   3
  -9 -21   8 198.817 117.972   3
  -9 -21   7 968.818 184.431   3
  -9 -21   6 1728.67 230.984   3
  -9 -21   5 1179.88 202.876   3
  -9 -21   4 201.379 125.565   3
  -9 -21   3 1418.51 219.613   3
  -9 -21   2 1512.86 230.576   3
  -9 -21   1 765.361 189.270   3
  -9 -21   0 308.831 148.123   3
  -9 -21  -1 394.019 147.300   3
  -9 -23   7 1766.95 249.453   3
  -9 -23   6 307.904 123.434   3
  -9 -23   5 482.626 147.210   3
  -9 -23   4 731.552 176.415   3
  -9 -23   3 219.975 128.421   3
 -10   0  22 139.683 119.178   1
 -10   0  21-66.2121 104.459   1
 -10   0  20 1723.55 226.704   1
 -10   0  19 37.2535 87.9948   1
 -10   0  18 2189.11 244.426   1
 -10   0  17-114.628 90.1831   1
 -10   0  16 163.935 98.2240   1
 -10   0  15-46.7474 75.8701   1
 -10   0  14 14534.8 532.351   1
 -10   0  13 152.143 97.5580   1
 -10   0  12 542.036 119.687   1
 -10   0  11-55.2927 75.9067   1
 -10   0  10 53959.2 907.991   1
 -10   0   9-79.7456 78.2697   1
 -10   0   8 23936.0 564.861   1
 -10   0   7-41.9558 62.8968   1
 -10   0   6 26690.2 561.715   1
  10   0  -6 26933.0 566.971   1
  10   0  -5 5.41847 17.2865   2
 -10   0   5 24.7488 55.0611   1
  10   0  -5-21.1774 48.2560   1
  10   0  -4 3084.64 122.881   2
 -10   0   4 2916.06 179.777   1
  10   0  -4 2974.25 185.577   1
  10   0  -3-1.36138 29.9667   2
  10   0  -3 46.2722 47.7195   1
 -10   0   3 29.6016 46.9663   1
  10   0  -2 48564.0 598.139   2
 -10   0   2 51346.4 708.394   1
  10   0  -2 49545.6 698.225   1
  10   0  -1 36.4948 44.9698   1
  10   0  -1-16.4204 39.6521   2
 -10   0   1-36.1689 51.0172   1
  10   0   0 189435. 1382.93   2
 -10   0   0 184969. 1317.85   1
  10   0   0 184827. 1304.30   1
  10   0   1-82.5695 62.4577   2
  10   0   1-57.4854 53.1068   1
 -10   0  -1-55.8203 55.6041   1
  10   0   2 2909.04 202.619   2
  10   0   2 2607.00 161.701   1
 -10   0  -2 3168.37 204.846   3
  10   0   3-46.8954 66.2043   2
 -10   0  -3 51.9914 62.1164   3
  10   0   3 47.0595 48.9729   1
  10   0   4 11144.5 424.259   2
 -10   0  -4 10608.0 373.266   3
  10   0   4 12033.9 340.044   1
  10   0   5 33.7278 44.1393   1
  10   0   5 82.1933 84.8379   2
 -10   0  -5 31.8121 60.5369   3
  10   0   6 47342.3 954.128   2
 -10   0  -6 47838.2 826.623   3
  10   0   6 46853.5 683.135   1
  10   0   7 38.0505 51.9913   1
  10   0   7 82.2256 88.7200   2
 -10   0  -7 66.4982 78.8019   3
  10   0   8-48.6920 68.2359   1
 -10   0  -8-89.7772 92.0125   3
  10   0   8 130.294 99.1810   2
  10   0   9 167.045 129.439   2
 -10   0  -9 44.4477 84.9048   3
  10   0  10 1513.87 226.027   2
 -10   0 -10 1303.72 169.615   3
  10   0  11-74.8098 105.744   2
 -10   0 -11-26.7107 75.1901   3
  10   0  12 10951.6 589.721   2
 -10   0 -12 12217.2 502.849   3
 -10  -2  22 273.195 135.284   1
 -10   2  22-173.539 127.069   1
 -10  -2  21 1308.02 213.717   1
 -10   2  21 1385.60 220.361   1
 -10  -2  20-14.4764 99.2768   1
 -10   2  20-111.944 119.035   1
 -10   2  19 2201.19 254.909   1
 -10  -2  19 2309.20 262.066   1
 -10  -2  18-73.8531 90.0188   1
 -10   2  18-105.842 104.742   1
 -10   2  17 7065.18 414.658   1
 -10  -2  17 7277.07 413.230   1
 -10  -2  16 1183.70 176.718   1
 -10   2  16 1087.43 169.851   1
 -10   2  15 9154.10 443.165   1
 -10  -2  15 8915.94 436.467   1
 -10  -2  14 546.007 125.247   1
 -10   2  14 480.469 117.894   1
  10  -2 -13 1033.15 97.7546   2
 -10   2  13 1171.29 163.077   1
 -10  -2  13 1480.67 177.572   1
  10  -2 -12 746.276 81.2280   2
 -10  -2  12 820.469 134.861   1
 -10   2  12 843.574 144.212   1
  10  -2 -11 39010.8 498.323   2
 -10   2  11 40915.2 817.786   1
 -10  -2  11 41465.9 819.860   1
  10  -2 -10 53.4647 33.2679   2
 -10  -2  10 12.9894 69.1507   1
 -10  -2   9 338.678 89.4093   1
  10  -2  -9 297.781 42.8576   2
 -10   2   9 288.369 86.9874   1
 -10  -2   8-2.70879 62.8452   1
  10   2  -8-100.493 81.5401   1
 -10   2   8 157.558 75.0702   1
 -10  -2   7 906.224 120.957   1
 -10   2   7 1145.91 131.942   1
  10   2  -7 998.208 125.023   1
 -10  -2   6 2052.68 165.852   1
  10   2  -6 1969.58 164.717   1
 -10   2   6 2049.53 159.658   1
 -10  -2   5 31542.9 615.190   1
  10   2  -5 31344.0 620.612   1
 -10   2   5 30780.2 569.716   1
  10   2  -4 469.412 85.7245   1
 -10  -2   4 509.973 86.9037   1
 -10   2   4 520.890 73.9320   1
 -10   2   3 44594.2 638.003   1
  10   2  -3 45617.3 511.444   2
  10  -2  -3 44583.3 646.257   1
 -10  -2   3 43955.2 698.121   1
  10   2  -3 44074.3 712.957   1
 -10  -2   2 340.757 82.3816   1
  10   2  -2 414.344 83.7180   1
  10   2  -2 313.589 54.3937   2
  10  -2  -2 327.624 63.4281   1
 -10   2   2 264.532 56.7981   1
  10   2  -1 1276.55 134.368   1
  10   2  -1 1491.89 130.114   2
 -10  -2   1 1075.43 130.726   1
  10  -2  -1 1286.07 111.248   1
 -10   2   1 1147.43 110.132   1
 -10   2   0 1356.38 109.613   1
 -10  -2   0 1310.02 131.533   1
  10   2   0 1204.50 119.972   1
  10   2   0 1063.05 108.809   2
  10  -2   0 1206.93 103.455   1
 -10  -2  -1 66014.4 850.429   1
  10   2   1 62054.5 848.436   2
  10   2   1 63041.0 836.005   1
  10  -2   1 62200.7 675.613   1
 -10   2  -1 64830.7 698.971   1
  10  -2   2 1261.98 141.152   2
 -10   2  -2 1359.23 122.202   3
 -10  -2  -2 1353.04 143.147   3
  10   2   2 1257.79 132.459   2
  10   2   2 1221.58 120.838   1
  10  -2   2 1258.67 97.4868   1
  10  -2   3 35970.3 737.894   2
 -10   2  -3 35921.3 623.344   3
 -10  -2  -3 35928.4 715.734   3
  10   2   3 36612.6 728.213   2
  10   2   3 35295.2 640.402   1
  10  -2   3 35862.8 487.341   1
  10  -2   4 7022.60 346.169   2
  10   2   4 7152.97 337.822   2
 -10   2  -4 7150.10 283.043   3
 -10  -2  -4 7137.84 328.958   3
  10   2   4 6944.30 292.244   1
  10  -2   4 7274.78 218.759   1
  10  -2   5 6199.67 198.368   1
  10  -2   5 6442.20 351.279   2
  10   2   5 6499.31 345.219   2
 -10  -2  -5 6585.85 327.153   3
 -10   2  -5 6557.26 280.640   3
  10   2   5 5856.13 274.151   1
  10  -2   6 1669.86 108.887   1
  10   2   6 1348.79 172.352   2
 -10  -2  -6 1211.93 152.560   3
  10  -2   6 1363.42 180.793   2
 -10   2  -6 1373.75 144.499   3
  10   2   6 1478.59 146.953   1
  10   2   7 4515.18 258.375   1
  10  -2   7 4530.59 320.314   2
  10  -2   7 4451.30 175.110   1
  10   2   7 4398.73 314.182   2
 -10  -2  -7 4332.37 278.384   3
 -10   2  -7 4564.59 247.171   3
  10   2   8 3258.58 220.590   1
  10  -2   8 3340.76 289.944   2
  10   2   8 3656.35 295.184   2
 -10  -2  -8 3564.73 259.471   3
 -10   2  -8 3710.71 228.051   3
  10  -2   9 23317.6 770.726   2
  10   2   9 23484.5 761.112   2
 -10  -2  -9 24426.1 695.453   3
 -10   2  -9 24901.6 598.086   3
  10  -2  10 448.147 135.695   2
  10   2  10 668.917 165.693   2
 -10  -2 -10 475.148 113.261   3
 -10   2 -10 584.333 112.565   3
  10  -2  11 5166.57 401.372   2
  10   2  11 4834.11 377.099   2
 -10  -2 -11 4975.54 332.697   3
  10  -2  12 436.050 148.299   2
  10   2  12 608.736 161.831   2
 -10  -2 -12 647.975 153.094   3
  10  -2  13 2264.88 295.857   2
  10   2  13 2507.76 303.401   2
 -10  -2 -13 2288.47 247.489   3
 -10  -4  23-139.006 104.942   1
 -10  -4  22 1416.37 224.615   1
 -10  -4  21 15.1764 103.057   1
 -10   4  21-154.867 124.679   1
 -10  -4  20 486.203 131.423   1
 -10   4  20 336.570 111.622   1
 -10  -4  19 123.727 97.7931   1
 -10   4  19-117.144 116.983   1
 -10  -4  18 3885.36 314.579   1
 -10   4  18 3334.30 298.810   1
 -10  -4  17 3367.18 293.238   1
 -10   4  17 3255.64 292.225   1
 -10  -4  16 2188.80 228.738   1
  10  -4 -16 1742.21 172.130   2
 -10   4  16 2034.89 230.623   1
  10  -4 -15 621.420 105.533   2
 -10  -4  15 706.217 137.938   1
 -10   4  15 655.176 137.543   1
 -10  -4  14 16317.3 574.247   1
  10  -4 -14 14683.8 434.597   2
 -10   4  14 15413.1 570.137   1
 -10  -4  13 2146.84 208.528   1
  10  -4 -13 2108.74 158.587   2
 -10   4  13 1788.22 195.195   1
 -10  -4  12 6229.54 335.587   1
  10  -4 -12 5774.37 245.236   2
 -10   4  12 6082.02 339.561   1
 -10  -4  11 392.123 96.8326   1
  10  -4 -11 582.432 80.7216   2
 -10   4  11 680.348 126.845   1
 -10  -4  10 3937.71 266.605   1
 -10   4  10 3438.44 247.058   1
 -10  -4   9 1033.67 141.146   1
 -10   4   9 1076.49 141.528   1
 -10  -4   8 102675. 1205.92   1
 -10   4   8 98455.3 1153.38   1
  10   4  -8 101606. 1232.96   1
 -10  -4   7 7398.45 328.165   1
 -10   4   7 7250.08 307.094   1
  10   4  -7 7250.05 329.004   1
 -10  -4   6 40714.0 742.943   1
 -10   4   6 41270.1 698.355   1
  10   4  -6 41764.0 759.191   1
 -10  -4   5 6590.50 297.917   1
 -10   4   5 6283.71 264.486   1
  10   4  -5 6266.70 296.577   1
 -10   4   4 390.446 79.8461   1
  10   4  -4 328.727 94.0528   1
 -10  -4   4 269.478 90.3350   1
  10   4  -3 1299.69 133.804   1
 -10  -4   3 1288.01 137.408   1
 -10   4   3 1420.26 117.334   1
 -10   4   2 53447.3 647.878   1
  10   4  -2 53370.9 831.946   1
 -10  -4   2 53761.0 823.879   1
 -10   4   1 538.033 66.8386   1
  10   4  -1 567.541 96.2279   1
 -10  -4   1 527.679 90.8342   1
  10   4   0 63458.5 905.801   1
 -10   4   0 62194.0 636.244   1
 -10  -4   0 63613.9 899.593   1
  10   4   1 156.129 57.6987   1
 -10   4  -1 296.019 55.2844   1
 -10  -4  -1 84.7446 71.0253   3
 -10  -4  -2 2902.76 224.276   3
  10   4   2 2005.36 171.868   1
 -10  -4  -3 313.554 97.9667   3
 -10   4  -3 281.252 69.3384   3
  10   4   3 60.6429 63.2215   1
  10   4   4 9766.77 377.951   1
 -10  -4  -4 9486.91 404.043   3
 -10   4  -4 9446.71 292.411   3
  10  -4   5 1802.20 193.974   2
  10   4   5 2190.67 192.325   1
 -10  -4  -5 1862.02 188.518   3
 -10   4  -5 2084.95 147.423   3
  10   4   5 1748.43 183.080   2
  10  -4   6 9782.44 451.594   2
  10   4   6 9512.98 391.587   1
 -10  -4  -6 9743.15 428.401   3
 -10   4  -6 10409.0 317.980   3
  10   4   6 9940.03 446.799   2
  10   4   7 5967.40 317.517   1
  10  -4   7 6434.42 388.216   2
 -10   4  -7 6632.39 260.504   3
 -10  -4  -7 5881.59 343.877   3
  10  -4   8 6559.89 405.978   2
 -10  -4  -8 6600.61 371.761   3
 -10   4  -8 6861.93 272.652   3
  10  -4   9 246.378 132.168   2
 -10  -4  -9-1.39978 84.3524   3
 -10   4  -9 87.5816 66.0036   3
  10  -4  10 5933.77 420.706   2
 -10  -4 -10 5865.13 372.443   3
  10  -4  11 175.027 124.033   2
 -10  -4 -11 137.700 103.120   3
  10  -4  12 9473.05 569.449   2
 -10  -4 -12 10034.6 511.802   3
  10  -4  13 106.246 125.816   2
 -10  -4 -13 282.141 143.590   3
 -10  -4 -14 289.900 135.525   3
 -10  -6  23 1120.08 217.349   1
 -10  -6  22 303.553 132.225   1
 -10  -6  21-114.258 118.238   1
 -10   6  21-68.4538 107.986   1
 -10  -6  20-199.497 134.596   1
 -10   6  20-113.210 127.358   1
 -10  -6  19 1353.01 203.282   1
 -10  -6  18 78.0055 73.0146   2
 -10  -6  18-14.5874 97.9310   1
 -10  -6  17 2422.17 246.970   1
 -10  -6  17 2368.39 187.796   2
 -10  -6  16 215.749 66.1382   2
 -10  -6  16 171.775 95.2253   1
 -10  -6  15 11870.9 507.581   1
  10  -6 -15 11504.3 440.202   2
 -10  -6  15 12050.1 359.236   2
 -10  -6  14 1680.74 203.971   1
 -10  -6  14 1625.14 126.398   2
  10  -6 -14 1592.39 164.678   2
 -10  -6  13 5258.75 199.371   2
 -10  -6  13 6397.01 355.062   1
  10  -6 -13 5157.35 271.468   2
 -10  -6  12 70.8746 35.6157   2
 -10  -6  12 80.4163 68.9023   1
 -10  -6  11 12959.4 251.717   2
 -10  -6  11 16087.2 531.808   1
 -10  -6  10 63.8393 22.0401   2
 -10  -6  10 80.1143 67.6885   1
 -10  -6   9 19263.9 563.379   1
 -10   6   8 965.796 125.126   3
 -10  -6   8 897.481 136.647   1
 -10  -6   7 6608.68 329.031   1
 -10   6   7 4979.72 259.549   3
 -10   6   6 4433.49 231.845   3
 -10  -6   6 4151.07 134.994   2
 -10   6   6 4376.96 235.431   1
 -10  -6   6 4295.98 253.542   1
  10   6  -6 4369.27 262.468   1
 -10  -6   5 35264.8 723.623   1
  10   6  -5 33106.8 705.370   1
 -10  -6   5 31411.0 410.175   2
 -10   6   5 32428.5 598.562   1
  10   6  -4 2715.74 210.667   1
 -10  -6   4 2778.20 135.426   2
 -10  -6   4 2767.01 206.013   1
 -10   6   4 2772.07 169.408   1
 -10  -6   3 48533.6 619.233   2
  10   6  -3 48154.0 850.363   1
 -10  -6   3 45837.8 817.701   1
 -10   6   3 48523.9 652.271   1
 -10  -6   2 2427.66 199.617   1
 -10  -6   2 1879.97 138.873   2
  10   6  -2 1945.45 181.983   1
 -10   6   2 2102.82 137.097   1
 -10   6   1 12525.1 294.539   1
 -10  -6   1 12017.1 356.530   2
  10   6  -1 13263.1 451.957   1
 -10  -6   1 14202.2 460.895   1
  10   6   0 6.67273 66.3068   1
 -10  -6   0 112.708 53.3638   2
 -10  -6   0 17.0207 70.0064   3
 -10   6   0 177.435 43.7304   1
 -10  -6  -1 29737.3 629.663   2
 -10  -6  -1 29498.3 696.307   3
  10   6   1 29829.5 675.177   1
 -10   6  -1 29601.3 369.913   1
 -10  -6  -2 9625.23 378.746   2
 -10  -6  -2 9752.28 410.183   3
  10   6   2 9185.81 384.356   1
 -10   6  -3 28045.7 432.928   3
 -10  -6  -3 28118.9 708.611   3
 -10  -6  -4 67.2249 71.7379   3
 -10   6  -4 76.2935 37.9416   3
 -10   6  -5 3581.54 151.217   3
 -10  -6  -5 3619.95 276.556   3
 -10  -6  -6 63.5692 86.7690   3
 -10   6  -6 168.940 46.3380   3
 -10  -6  -7 4888.52 329.082   3
 -10   6  -7 4953.93 177.546   3
  10  -6   8 670.081 155.075   2
 -10  -6  -8 653.528 144.793   3
  10  -6   9 23597.6 806.063   2
 -10  -6  -9 23875.9 758.815   3
  10  -6  10 765.271 183.440   2
 -10  -6 -10 773.051 169.574   3
  10  -6  11 3374.09 340.713   2
 -10  -6 -11 2983.61 289.553   3
  10  -6  12-42.9472 108.925   2
 -10  -6 -12 210.515 120.243   3
 -10  -6 -13 5749.50 422.356   3
 -10  -6 -14 11.6343 128.468   3
 -10  -8  22 1617.65 238.967   1
 -10  -8  21 194.995 124.573   1
 -10  -8  20 3977.86 337.609   1
 -10  -8  19 739.819 170.119   1
 -10  -8  18 92.6914 92.2311   1
 -10  -8  17 89.6840 66.4077   2
 -10  -8  17-234.626 121.734   1
 -10  -8  16 1020.71 127.318   2
 -10  -8  16 1086.63 172.029   1
 -10  -8  15 248.128 68.1041   2
 -10  -8  15 205.256 100.008   1
 -10  -8  14 10219.3 326.836   2
 -10  -8  14 11455.8 495.509   1
 -10  -8  13-36.4937 84.1245   1
 -10  -8  13-7.61911 46.1246   2
 -10  -8  12 12949.0 508.738   1
 -10  -8  11 117.028 83.6488   1
 -10  -8  10 3837.67 275.069   1
 -10  -8   9 526.261 106.918   1
 -10   8   8 31831.9 693.757   3
 -10  -8   8 32449.2 746.882   1
 -10   8   7-59.4368 64.9113   3
 -10  -8   7 48.7747 74.9874   1
 -10  -8   6 19336.3 574.846   1
 -10   8   6 20753.0 513.907   3
 -10  -8   5 1350.23 170.692   1
 -10   8   5 1667.49 146.798   3
 -10  -8   4 2355.27 147.573   2
 -10   8   4 2694.15 175.614   1
 -10  -8   4 1726.95 186.092   1
 -10   8   4 2976.09 184.813   3
 -10  -8   3 8003.96 363.700   1
 -10  -8   3 7534.23 271.957   2
 -10   8   3 7510.58 268.072   1
 -10   8   3 7233.86 265.101   3
 -10  -8   2 54990.5 772.312   2
 -10   8   2 56791.5 680.922   1
 -10  -8   2 57086.6 964.051   1
 -10   8   2 52829.2 673.441   3
 -10  -8   1 4180.23 276.512   3
 -10  -8   1 3634.32 213.674   2
 -10   8   1 3572.51 158.844   1
 -10   8   1 3528.00 164.801   3
 -10   8   0 26644.9 383.898   1
 -10  -8   0 25957.1 586.533   2
 -10  -8   0 26217.8 682.525   3
 -10   8   0 24947.7 403.978   3
 -10  -8  -1 809.149 121.165   2
 -10  -8  -1 965.784 164.257   3
 -10   8  -1 452.460 48.0353   1
 -10   8  -1 768.683 72.5354   3
 -10  -8  -2 969.063 151.605   3
 -10   8  -2 700.300 59.3169   3
 -10   8  -3 319.238 37.9629   3
 -10   8  -3 407.409 46.5318   3
 -10  -8  -3 636.145 140.456   3
 -10  -8  -4 4426.45 310.121   3
 -10   8  -4 2417.96 71.6073   3
 -10  -8  -5 66.6456 80.9457   3
 -10  -8  -6 13074.5 546.090   3
 -10  -8  -7 3282.74 284.420   3
 -10  -8  -8 4351.97 331.428   3
  10  -8   9 964.254 195.894   2
 -10  -8  -9 897.412 172.288   3
  10  -8  10 5048.25 406.896   2
 -10  -8 -10 5125.45 381.397   3
  10  -8  11-127.277 128.581   2
 -10  -8 -11-57.5294 125.088   3
 -10  -8 -12 3634.91 346.722   3
 -10  -8 -13 363.957 179.284   3
 -10 -10  21 1780.83 245.378   1
 -10 -10  20 461.395 147.707   1
 -10 -10  19 1021.77 180.969   1
 -10 -10  18 864.624 169.629   1
 -10 -10  17 6754.20 417.575   1
 -10 -10  16 1503.91 203.710   1
 -10 -10  16 1129.32 141.342   2
 -10 -10  15 4533.11 252.085   2
 -10 -10  15 4611.23 339.432   1
 -10 -10  14 332.367 124.776   1
 -10 -10  13 4808.15 328.883   1
 -10 -10  12-80.3739 92.3730   1
 -10 -10  11 19021.8 622.542   1
 -10 -10  10 2445.20 232.445   1
 -10 -10   9 2716.44 246.230   1
 -10 -10   8 4335.90 296.505   1
 -10 -10   7 188.009 93.7443   1
 -10  10   7 99.0334 52.3983   3
 -10 -10   6-22.5011 78.8197   1
 -10  10   6 7.71328 57.5880   3
 -10 -10   5 15237.3 535.947   1
 -10  10   5 12277.6 391.776   3
 -10 -10   4 6977.72 367.459   1
 -10  10   4 6140.88 263.028   3
 -10 -10   3 27253.3 713.186   1
 -10  10   3 27991.7 531.101   3
 -10 -10   2 668.235 110.744   2
 -10  10   2 631.689 92.7756   1
 -10  10   2 423.384 81.3868   3
 -10 -10   2 493.137 124.957   3
 -10 -10   1 906.075 155.844   3
 -10 -10   1 1030.58 131.827   2
 -10  10   1 900.771 91.9888   1
 -10  10   1 782.853 88.1852   3
 -10  10   0 160.869 50.0735   1
 -10 -10   0 134.874 101.238   3
 -10 -10   0 224.094 88.6555   2
 -10  10   0 111.509 47.1743   3
 -10  10  -1 32853.7 359.613   1
 -10 -10  -1 35686.6 847.477   3
 -10  10  -1 31199.6 385.676   3
 -10 -10  -2 1.44926 82.5931   3
 -10  10  -2 35.8316 14.7167   3
 -10 -10  -3 37492.9 906.731   3
 -10 -10  -4 376.861 121.142   3
 -10 -10  -5 69.9268 90.3268   3
 -10 -10  -6 57.8786 105.670   3
 -10 -10  -7 14360.2 608.282   3
 -10 -10  -8-37.9285 106.313   3
 -10 -10  -9 11446.2 583.888   3
 -10 -10 -10 625.648 164.111   3
  10 -10  11 2180.72 294.656   2
 -10 -10 -11 2054.88 271.855   3
 -10 -10 -12 97.3048 119.080   3
 -10 -12  20 4206.83 357.609   1
 -10 -12  19 558.444 151.086   1
 -10 -12  18 1611.98 223.136   1
 -10 -12  17 161.283 113.658   1
 -10 -12  16 1829.65 233.368   1
 -10 -12  15 33.9575 83.4221   1
 -10 -12  14 13925.4 579.114   1
 -10 -12  13-29.0056 93.7417   1
 -10 -12  12 880.659 161.731   1
 -10 -12  11 199.843 101.100   1
 -10 -12  10 4895.74 329.856   1
 -10 -12   9 1427.51 183.163   1
 -10 -12   8 19929.6 648.222   1
 -10 -12   7 191.887 93.9712   1
 -10 -12   6 2416.72 239.797   1
 -10  12   6 2509.21 199.332   3
 -10 -12   5 1278.13 179.973   1
 -10  12   5 905.904 128.351   3
 -10 -12   4 1790.87 203.139   3
 -10 -12   4 2506.44 246.182   1
 -10  12   4 1425.03 142.048   3
 -10 -12   3 98.1920 76.2335   3
 -10  12   3 116.914 56.3243   3
 -10 -12   2 7393.74 397.175   3
 -10  12   2 6973.24 264.929   3
 -10 -12   1 16272.2 590.762   3
 -10  12   1 15634.3 357.684   3
 -10 -12   0 44839.0 982.423   3
 -10  12   0 40092.3 503.873   3
 -10  12   0 43394.1 551.582   1
 -10 -12  -1 361.886 131.445   3
 -10  12  -1 271.335 35.1873   3
 -10  12  -1 579.422 59.9600   1
 -10 -12  -2 636.404 145.149   3
 -10 -12  -3 220.757 116.636   3
 -10 -12  -4 6534.81 411.602   3
 -10 -12  -5 5715.24 390.306   3
 -10 -12  -6 15545.9 650.727   3
 -10 -12  -7 1209.84 218.382   3
 -10 -12  -8 18.8146 120.713   3
 -10 -12  -9 119.301 123.377   3
 -10 -12 -10 1725.46 252.454   3
 -10 -14  19 343.105 132.381   1
 -10 -14  18 144.309 128.797   1
 -10 -14  17 8771.08 496.002   1
 -10 -14  16 1246.49 206.960   1
 -10 -14  15 1832.96 240.167   1
 -10 -14  14 109.777 100.541   1
 -10 -14  13 323.444 112.876   1
 -10 -14  12-29.0947 95.5332   1
 -10 -14  11 11837.4 538.764   1
 -10 -14  10 1643.02 212.981   1
 -10 -14   9 3861.93 312.698   1
 -10 -14   8 1089.86 185.324   1
 -10 -14   7 249.914 114.473   1
 -10 -14   6 254.632 105.031   3
 -10 -14   6 8.85080 85.2891   1
 -10  14   5 18141.0 531.556   3
 -10 -14   5 19454.0 650.815   3
 -10 -14   4 282.298 109.938   3
 -10  14   4 238.795 73.9132   3
 -10 -14   3 5216.95 348.000   3
 -10  14   3 5237.20 260.025   3
 -10 -14   2 228.912 106.902   3
 -10  14   2 16.2179 50.5874   3
 -10 -14   1 60.8170 89.0663   3
 -10 -14   0 179.759 119.344   3
 -10 -14  -1 11653.2 543.952   3
 -10  14  -1 10567.8 254.247   1
 -10 -14  -2 148.200 112.840   3
 -10 -14  -3 13512.1 595.574   3
 -10 -14  -4 803.545 178.727   3
 -10 -14  -5 74.1970 98.8161   3
 -10 -14  -6 314.192 139.084   3
 -10 -14  -7 4267.76 372.297   3
 -10 -14  -8 2652.68 302.424   3
 -10 -14  -9 9936.44 583.381   3
 -10 -16  18 882.818 189.756   1
 -10 -16  17 62.4064 109.543   1
 -10 -16  16 83.8035 106.361   1
 -10 -16  15-17.5599 103.424   1
 -10 -16  14 7434.67 460.470   1
 -10 -16  13 119.034 101.693   1
 -10 -16  12 3561.08 320.409   1
 -10 -16  11 276.629 121.410   1
 -10 -16  10 413.981 135.564   1
 -10 -16   9 96.0819 105.715   1
 -10 -16   8 13753.3 588.397   1
 -10 -16   8 12029.8 529.382   3
 -10 -16   7 457.748 132.088   3
 -10 -16   6 5570.44 367.108   3
 -10 -16   5 143.339 100.004   3
 -10 -16   4 184.504 94.4274   3
 -10 -16   3 1371.85 194.889   3
 -10 -16   2 13499.6 582.080   3
 -10 -16   1 26.3785 87.0965   3
 -10 -16   0 7121.45 439.901   3
 -10 -16  -1 0.45642 96.2768   3
 -10 -16  -2 497.433 146.469   3
 -10 -16  -3 803.389 167.102   3
 -10 -16  -4 4024.56 355.326   3
 -10 -16  -5 34.4599 102.807   3
 -10 -16  -6 5169.03 411.823   3
 -10 -18  16 28.9010 99.9984   1
 -10 -18  15 477.690 146.925   1
 -10 -18  14 147.683 125.222   1
 -10 -18  13 188.369 119.266   1
 -10 -18  12 649.273 151.361   3
 -10 -18  12 854.684 174.723   1
 -10 -18  11 5174.40 369.714   3
 -10 -18  10 46.8419 95.2223   3
 -10 -18   9 3795.69 310.238   3
 -10 -18   8 324.952 133.865   3
 -10 -18   7-262.598 130.860   3
 -10 -18   6 49.9236 98.9316   3
 -10 -18   5 4894.75 364.582   3
 -10 -18   4 643.118 151.490   3
 -10 -18   3 5287.80 386.568   3
 -10 -18   2 1006.76 194.041   3
 -10 -18   1 1047.17 196.983   3
 -10 -18   0 19.1414 110.009   3
 -10 -18  -1 2825.75 301.168   3
 -10 -18  -2-24.6450 109.029   3
 -10 -18  -3 4252.42 372.848   3
 -10 -18  -4 138.134 125.530   3
 -10 -20  11 136.605 112.929   3
 -10 -20  10 13.3424 95.3187   3
 -10 -20   9-34.6979 113.828   3
 -10 -20   8 3679.87 328.243   3
 -10 -20   7 27.7159 104.699   3
 -10 -20   6 3824.80 339.187   3
 -10 -20   5 753.835 173.534   3
 -10 -20   4 65.3270 99.3108   3
 -10 -20   3 2030.49 259.896   3
 -10 -20   2 2761.88 304.610   3
 -10 -20   1-150.431 137.824   3
 -10 -20   0 3017.37 326.234   3
 -10 -20  -1 132.204 120.381   3
 -10 -22   9 771.549 182.478   3
 -10 -22   8 89.9495 111.020   3
 -10 -22   7 322.030 140.041   3
 -10 -22   6 172.030 117.095   3
 -10 -22   5 1188.65 210.728   3
 -10 -22   4 52.7136 111.426   3
 -10 -22   3 939.456 201.726   3
 -11   1  22 2483.95 290.422   1
 -11  -1  22 2431.74 285.954   1
 -11   1  21 12.1213 104.575   1
 -11  -1  21 204.133 119.121   1
 -11   1  20 60.0322 103.612   1
 -11  -1  20 100.837 114.388   1
 -11   1  19 7277.88 445.435   1
 -11  -1  19 7659.85 458.905   1
 -11  -1  18 1431.31 202.774   1
 -11   1  18 1577.39 216.880   1
 -11  -1  17 10.3517 86.4181   1
 -11   1  17 207.499 108.615   1
 -11   1  16 11258.3 511.619   1
 -11  -1  16 11722.9 520.457   1
 -11   1  15 2588.99 249.854   1
 -11  -1  15 2697.10 252.635   1
 -11  -1  14 1577.21 194.438   1
 -11   1  14 1404.15 183.342   1
 -11   1  13 9609.50 433.937   1
 -11  -1  13 9933.28 437.345   1
 -11   1  12 3569.54 265.156   1
 -11  -1  12 3709.41 265.808   1
 -11   1  11 4961.66 296.918   1
 -11  -1  11 4674.26 290.675   1
 -11   1  10 184.490 85.5950   1
 -11  -1  10 33.9065 77.0545   1
 -11  -1   9 2842.93 214.056   1
 -11   1   9 2656.39 206.737   1
 -11   1   8 1040.89 133.153   1
 -11  -1   8 988.172 128.861   1
  11   1  -8 1067.75 132.601   1
 -11  -1   7 9159.79 353.915   1
  11   1  -7 9550.59 369.287   1
 -11   1   7 9055.97 348.150   1
 -11   1   6 2789.91 187.387   1
 -11  -1   6 2945.73 199.716   1
  11   1  -6 2789.35 196.641   1
 -11   1   5 2777.10 187.294   1
 -11  -1   5 2585.96 188.696   1
  11   1  -5 2335.00 94.8317   2
  11  -1  -5 2670.76 184.659   1
  11   1  -5 2696.83 193.683   1
 -11   1   4 9360.09 324.321   1
  11   1  -4 9238.50 220.710   2
 -11  -1   4 9509.91 340.270   1
  11  -1  -4 9411.51 331.795   1
  11   1  -4 9135.07 340.475   1
  11  -1  -3 6979.97 230.314   2
  11   1  -3 7388.27 225.008   2
 -11   1   3 7982.39 290.134   1
  11  -1  -3 7627.32 289.453   1
 -11  -1   3 8061.02 309.985   1
  11   1  -3 7564.78 304.085   1
 -11  -1   2 9212.00 329.184   1
  11  -1  -2 9947.69 298.860   2
  11   1  -2 9921.07 289.446   2
  11  -1  -2 9759.33 322.972   1
 -11   1   2 9616.10 315.857   1
  11   1  -2 9857.18 343.743   1
 -11   1   1 61663.9 780.888   1
  11  -1  -1 60441.2 785.515   2
  11   1  -1 61542.3 771.857   2
 -11  -1   1 61253.3 829.096   1
  11  -1  -1 60944.1 778.198   1
  11   1  -1 61230.8 831.931   1
  11   1   0 20312.2 477.028   1
 -11  -1   0 22093.3 498.972   1
  11  -1   0 19821.2 482.542   2
  11   1   0 20211.8 475.573   2
 -11   1   0 21870.7 457.472   1
  11  -1   0 20440.5 441.155   1
  11  -1   1 2388.92 183.138   2
 -11  -1  -1 2161.91 160.410   1
  11   1   1 2338.80 167.595   1
  11   1   1 2477.46 184.013   2
 -11   1  -1 2180.06 146.718   1
  11  -1   1 2469.90 155.931   1
  11  -1   2 9437.45 373.006   2
  11   1   2 9675.49 332.266   1
  11   1   2 9619.42 369.210   2
 -11   1  -2 9688.20 353.354   3
 -11  -1  -2 9605.31 371.714   3
  11  -1   2 9413.96 292.555   1
  11  -1   3 264.740 85.8316   2
 -11   1  -3 158.495 66.2843   3
 -11  -1  -3 247.586 82.4813   3
  11   1   3 281.681 85.7114   2
  11  -1   3 339.577 62.2619   1
  11   1   3 462.063 87.5750   1
  11  -1   4 17753.8 397.051   1
  11  -1   4 17723.7 565.268   2
 -11   1  -4 17595.2 484.313   3
  11   1   4 17748.8 553.682   2
 -11  -1  -4 18041.2 525.821   3
  11   1   4 17979.0 462.136   1
  11  -1   5 39430.4 589.589   1
  11  -1   5 38494.5 861.859   2
  11   1   5 38457.6 854.368   2
 -11  -1  -5 39788.8 801.253   3
 -11   1  -5 38866.7 734.943   3
  11   1   5 38062.7 677.688   1
  11   1   6 1746.00 204.993   2
  11  -1   6 1804.85 212.618   2
  11  -1   6 1659.08 127.021   1
 -11  -1  -6 1981.17 200.449   3
 -11   1  -6 2000.71 180.631   3
  11   1   6 1539.08 145.906   1
  11   1   7 233.107 81.6079   1
  11  -1   7 397.411 135.335   2
  11   1   7 262.854 110.241   2
 -11  -1  -7 258.469 102.265   3
 -11   1  -7 377.800 107.267   3
  11  -1   8 30912.1 874.124   2
  11   1   8 30852.1 870.015   2
 -11  -1  -8 32131.7 779.261   3
 -11   1  -8 32810.3 732.558   3
  11  -1   9 583.266 147.195   2
  11   1   9 689.424 164.197   2
 -11  -1  -9 697.940 141.324   3
 -11   1  -9 746.867 128.398   3
  11  -1  10 3433.43 322.235   2
  11   1  10 3242.06 313.985   2
 -11  -1 -10 3424.76 277.702   3
 -11   1 -10 3671.24 265.477   3
  11  -1  11 8706.15 526.576   2
  11   1  11 8523.76 526.890   2
 -11  -1 -11 9258.94 458.435   3
  11  -1  12-86.4344 108.919   2
  11   1  12 41.9814 107.545   2
 -11  -3  22 980.126 192.991   1
 -11  -3  21 614.361 161.516   1
 -11   3  21 373.651 130.523   1
 -11  -3  20 104.192 106.785   1
 -11   3  20-198.120 138.396   1
 -11   3  19 2312.38 267.413   1
 -11  -3  19 2732.44 281.764   1
 -11   3  18 5262.79 376.128   1
 -11  -3  18 5237.38 370.620   1
 -11  -3  17 1538.64 205.718   1
 -11   3  17 1579.46 216.793   1
 -11   3  16 3729.38 310.509   1
 -11  -3  16 3491.29 293.883   1
  11  -3 -15 4584.54 235.678   2
 -11   3  15 5106.68 342.843   1
 -11  -3  15 5396.75 346.239   1
  11  -3 -14 30.5048 40.8252   2
 -11  -3  14-19.9030 75.9567   1
 -11   3  14-43.3086 89.8914   1
 -11  -3  13 3947.31 286.802   1
  11  -3 -13 3701.98 184.407   2
 -11   3  13 3636.86 272.170   1
 -11  -3  12 12725.8 486.508   1
  11  -3 -12 11376.8 299.442   2
 -11   3  12 12031.8 473.527   1
 -11  -3  11 2351.58 215.272   1
  11  -3 -11 2611.63 140.935   2
 -11   3  11 2739.75 231.196   1
 -11  -3  10 16800.8 526.733   1
 -11   3  10 16940.1 527.647   1
 -11  -3   9 15167.5 494.131   1
 -11   3   9 15027.5 476.581   1
 -11  -3   8 3626.90 240.773   1
 -11   3   8 3867.86 242.045   1
 -11  -3   7 22546.4 570.889   1
  11   3  -7 22081.6 576.818   1
 -11   3   7 22069.5 539.997   1
 -11  -3   6 9654.37 371.158   1
  11   3  -6 9254.22 373.510   1
 -11   3   6 9005.22 332.043   1
 -11  -3   5 5070.44 267.186   1
  11   3  -5 5311.09 277.822   1
 -11   3   5 5159.19 244.623   1
 -11   3   4 41732.4 663.840   1
 -11  -3   4 42673.9 747.925   1
  11   3  -4 42473.4 762.342   1
  11   3  -3 41637.2 743.399   1
 -11  -3   3 43120.3 750.783   1
 -11   3   3 42161.9 641.802   1
  11   3  -2 2730.79 198.745   1
 -11   3   2 2940.59 166.592   1
 -11  -3   2 2697.63 198.542   1
  11   3  -1 29541.4 625.314   1
 -11   3   1 30122.8 513.645   1
 -11  -3   1 29745.3 617.931   1
 -11   3   0 5443.13 214.359   1
  11   3   0 5035.03 263.505   1
  11   3   0 5113.53 245.000   2
  11  -3   0 4753.34 199.138   1
 -11  -3   0 5266.06 263.202   1
 -11  -3  -1 25061.8 621.541   3
  11   3   1 23944.8 565.125   1
  11   3   1 23774.9 554.770   2
  11  -3   1 23683.9 419.467   1
 -11   3  -1 23399.2 421.784   1
 -11  -3  -2 36396.8 760.413   3
  11   3   2 36101.8 714.848   2
  11   3   2 35471.5 695.055   1
 -11   3  -2 35146.0 625.065   3
  11  -3   2 35853.8 493.983   1
  11  -3   3 3584.70 253.308   2
 -11   3  -3 3528.43 204.035   3
 -11  -3  -3 3647.57 252.147   3
  11   3   3 3754.05 247.246   2
  11   3   3 4068.75 240.356   1
  11  -3   3 3883.65 156.571   1
  11  -3   4 4104.73 279.044   2
 -11   3  -4 4406.12 225.927   3
 -11  -3  -4 4494.28 287.100   3
  11   3   4 4076.04 269.968   2
  11  -3   4 4172.95 157.189   1
  11   3   4 4160.48 250.259   1
  11  -3   5 17799.3 601.018   2
 -11  -3  -5 17440.8 568.303   3
  11   3   5 17048.9 567.291   2
 -11   3  -5 18387.5 462.177   3
  11  -3   5 16906.5 298.078   1
  11   3   5 17507.8 514.187   1
  11  -3   6 2604.25 248.165   2
  11   3   6 2739.37 242.441   2
 -11  -3  -6 2709.88 232.612   3
 -11   3  -6 2724.28 186.426   3
  11  -3   6 2542.96 114.260   1
  11   3   6 3042.29 224.524   1
  11  -3   7 20708.5 701.961   2
  11   3   7 19744.6 667.018   2
 -11  -3  -7 20566.6 643.085   3
 -11   3  -7 21714.8 526.054   3
  11   3   7 19981.2 577.067   1
  11  -3   8 9361.59 494.407   2
  11   3   8 9235.94 477.135   2
 -11  -3  -8 9660.94 453.738   3
 -11   3  -8 9970.14 364.348   3
  11  -3   9 4.55984 98.5043   2
  11   3   9 125.456 108.781   2
 -11  -3  -9 22.4561 91.3243   3
 -11   3  -9 50.1639 60.9499   3
  11  -3  10 3278.52 327.270   2
  11   3  10 2854.78 298.094   2
 -11  -3 -10 3172.14 282.738   3
  11  -3  11 4475.76 388.914   2
 -11  -3 -11 4552.37 344.662   3
  11  -3  12 933.667 199.754   2
 -11  -3 -12 990.369 168.927   3
 -11  -5  22 380.437 141.241   1
 -11  -5  21 126.385 106.176   1
 -11   5  21 179.249 111.690   1
 -11  -5  20 77.7160 99.2908   1
 -11   5  20-142.215 129.728   1
 -11  -5  19 954.378 176.790   1
 -11   5  19 931.356 176.074   1
 -11  -5  18 10.7538 95.2009   1
 -11   5  18-7.10217 97.3141   1
 -11  -5  17 389.330 123.677   1
 -11   5  17 433.218 137.820   1
 -11  -5  16 9514.96 473.129   1
 -11   5  16 8888.37 471.214   1
 -11  -5  15 8039.81 426.055   1
  11  -5 -15 6819.19 315.265   2
 -11   5  15 6974.98 408.201   1
  11  -5 -14 329.423 77.1585   2
 -11  -5  14 306.263 103.271   1
 -11   5  14 265.236 101.475   1
  11  -5 -13 10.3774 48.1931   2
 -11  -5  13 59.9744 77.7948   1
 -11   5  13 111.852 82.6779   1
  11  -5 -12 21.0765 40.0803   2
 -11  -5  12 18.7656 81.7107   1
 -11   5  12-52.7096 79.1070   1
 -11  -5  11 514.954 109.556   1
 -11   5  11 641.114 122.103   1
 -11  -5  10 11607.9 452.958   1
 -11   5  10 10914.4 437.875   1
 -11  -5   9 13193.5 475.653   1
 -11   5   9 12284.8 443.962   1
 -11  -5   8 1070.12 155.004   1
 -11   5   8 1549.32 165.631   1
 -11  -5   7 17676.7 522.693   1
 -11   5   7 18007.6 492.482   1
 -11   5   6 8781.21 338.215   1
 -11  -5   6 9894.62 390.217   1
 -11  -5   5 2124.39 192.834   1
  11   5  -5 2331.95 200.094   1
 -11   5   5 2538.23 175.882   1
 -11  -5   4 42230.0 521.104   2
  11   5  -4 43031.0 810.654   1
 -11  -5   4 43963.6 802.513   1
 -11   5   4 42915.9 664.203   1
 -11  -5   3 17843.7 378.161   2
  11   5  -3 18398.4 535.075   1
 -11  -5   3 18508.4 526.039   1
 -11   5   3 18064.6 413.685   1
 -11  -5   2 768.665 94.7156   2
 -11   5   2 780.856 89.8445   1
  11   5  -2 745.115 132.737   1
 -11  -5   2 546.994 110.825   1
 -11  -5   1 30773.9 579.769   2
 -11   5   1 31329.6 489.551   1
  11   5  -1 30247.2 677.457   1
 -11  -5   1 30581.0 667.540   1
 -11  -5   0 7112.00 354.531   3
  11   5   0 8388.01 365.870   1
 -11  -5   0 9806.25 385.076   1
 -11   5   0 8228.50 239.501   1
 -11  -5  -1 1898.29 192.961   3
 -11   5  -1 1335.37 92.4472   1
  11   5   1 1345.41 159.545   1
 -11   5  -2 12207.0 338.112   3
 -11  -5  -2 12551.5 483.296   3
  11   5   2 13337.6 468.215   1
 -11  -5  -3 165.720 80.1311   3
 -11   5  -3 62.8894 49.3551   3
 -11  -5  -4 697.939 133.887   3
 -11   5  -4 682.614 87.2221   3
 -11   5  -5 1553.35 126.607   3
 -11  -5  -5 1444.80 176.641   3
  11  -5   6 4668.24 335.355   2
 -11  -5  -6 4670.31 325.571   3
 -11   5  -6 5329.10 221.547   3
  11  -5   7 2832.04 271.015   2
 -11  -5  -7 3207.62 274.934   3
 -11   5  -7 3355.58 180.595   3
  11  -5   8 10959.0 545.948   2
 -11  -5  -8 10323.0 486.900   3
  11  -5   9 677.900 163.966   2
 -11  -5  -9 442.700 116.047   3
  11  -5  10 5440.93 424.720   2
 -11  -5 -10 4846.18 362.543   3
  11  -5  11 1627.42 249.864   2
 -11  -5 -11 1670.49 232.187   3
 -11  -5 -12 508.070 144.934   3
 -11  -5 -13 620.067 178.173   3
 -11  -7  22 1340.31 225.218   1
 -11  -7  21 377.270 142.729   1
 -11  -7  20 955.278 174.231   1
 -11   7  20 880.367 185.970   1
 -11  -7  19 1492.62 218.209   1
 -11   7  19 1669.96 238.653   1
 -11  -7  18 1450.05 209.302   1
 -11  -7  17 104.631 90.8303   1
 -11  -7  16 2861.41 271.648   1
 -11  -7  16 2971.02 184.189   2
 -11  -7  15 3273.80 177.713   2
 -11  -7  15 3780.33 300.539   1
 -11  -7  14 685.900 80.0168   2
  11  -7 -14 532.651 104.030   2
 -11  -7  14 617.256 140.234   1
 -11  -7  13 1222.18 91.5993   2
 -11  -7  13 1675.82 202.643   1
  11  -7 -13 1325.32 147.364   2
 -11  -7  12 6956.22 190.516   2
 -11  -7  12 8900.96 424.099   1
 -11  -7  11 1308.49 171.031   1
 -11  -7  11 1220.33 73.6378   2
 -11  -7  10 13921.9 509.972   1
 -11  -7   9 16031.8 545.842   1
 -11  -7   8 2363.75 212.503   1
 -11  -7   7 7655.80 190.395   2
 -11   7   7 8752.04 353.604   1
 -11   7   7 8776.77 351.884   3
 -11  -7   7 9185.39 398.602   1
 -11  -7   6 4875.15 300.921   1
 -11  -7   6 3977.71 151.275   2
 -11   7   6 4173.10 238.809   1
 -11   7   6 3863.87 228.589   3
 -11   7   5 32054.6 613.213   3
 -11  -7   5 32177.2 470.878   2
 -11  -7   5 32174.5 722.159   1
 -11   7   5 32198.6 618.212   1
 -11  -7   4 13798.2 338.121   2
 -11  -7   4 12961.8 467.545   1
 -11   7   4 14396.3 395.808   1
 -11  -7   3 52342.0 929.572   1
 -11  -7   3 47477.9 672.254   2
 -11   7   3 48849.7 682.434   1
 -11   7   2 351.013 59.7558   1
 -11  -7   2 387.863 67.8236   2
 -11  -7   2 626.913 118.441   1
 -11  -7   1 23602.3 623.361   1
 -11   7   1 22732.5 405.345   1
 -11  -7   1 22974.4 533.749   2
 -11  -7   0 7618.46 323.397   2
 -11  -7   0 7896.34 383.574   3
 -11   7   0 7767.49 218.404   1
 -11  -7  -1 20681.9 560.990   2
 -11   7  -1 18275.7 292.298   1
 -11  -7  -1 20657.0 627.454   3
 -11   7  -2 13437.7 316.163   3
 -11  -7  -2 14335.5 531.869   3
 -11   7  -3 85.6837 38.8636   3
 -11  -7  -3 165.994 83.0182   3
 -11  -7  -4 530.895 120.596   3
 -11   7  -4 477.405 58.7861   3
 -11  -7  -5 6597.63 387.907   3
 -11   7  -5 6178.81 183.969   3
 -11  -7  -6 4119.26 314.441   3
 -11  -7  -7 8690.28 465.957   3
  11  -7   8 11465.8 584.368   2
 -11  -7  -8 11289.6 532.789   3
  11  -7   9-93.1845 109.003   2
 -11  -7  -9 18.6220 114.220   3
  11  -7  10 4109.20 375.725   2
 -11  -7 -10 4151.29 349.016   3
  11  -7  11 1519.20 250.570   2
 -11  -7 -11 1454.90 232.181   3
 -11  -7 -12 1781.22 250.044   3
 -11  -7 -13 976.752 207.785   3
 -11  -9  22 1199.73 223.435   1
 -11  -9  21 3202.44 323.812   1
 -11  -9  20 278.474 137.605   1
 -11  -9  19 1384.13 216.108   1
 -11  -9  18 1933.85 246.296   1
 -11  -9  17 318.263 117.349   1
 -11  -9  16 3824.38 322.082   1
 -11  -9  15 7658.41 291.045   2
 -11  -9  15 8400.61 451.060   1
 -11  -9  14 91.6270 91.2796   1
 -11  -9  14-1.47685 48.4017   2
 -11  -9  13 802.869 154.232   1
 -11  -9  12 6777.98 386.255   1
 -11  -9  11 77.2850 84.6597   1
 -11  -9  10 4186.06 299.421   1
 -11  -9   9 14966.2 544.240   1
 -11  -9   8 598.634 131.832   1
 -11  -9   7 6155.58 349.583   1
 -11   9   7 6414.98 310.859   3
 -11   9   6 191.551 69.6346   3
 -11  -9   6 494.951 125.651   1
 -11  -9   5 1811.40 133.423   2
 -11   9   5 1982.78 164.172   1
 -11  -9   5 1365.05 173.777   1
 -11   9   5 2020.36 163.905   3
 -11  -9   4 44317.5 898.102   1
 -11  -9   4 40642.8 648.567   2
 -11   9   4 43078.0 702.731   1
 -11   9   4 39754.1 670.965   3
 -11  -9   3 12752.9 387.897   2
 -11   9   3 12931.2 364.020   1
 -11  -9   3 12656.0 486.770   1
 -11   9   3 12059.7 354.447   3
 -11  -9   2 3280.85 258.676   3
 -11  -9   2 2989.46 199.142   2
 -11  -9   2 1886.88 193.272   1
 -11   9   2 2719.23 158.876   1
 -11   9   2 3044.66 172.456   3
 -11  -9   1 9058.14 356.604   2
 -11  -9   1 9201.67 427.517   3
 -11   9   1 9325.07 263.854   1
 -11   9   1 8652.79 269.099   3
 -11   9   0 2056.77 113.819   1
 -11  -9   0 1859.23 174.808   2
 -11  -9   0 1625.63 196.107   3
 -11   9   0 1533.13 108.516   3
 -11  -9  -1 2317.65 238.301   3
 -11   9  -1 1767.24 81.0863   1
 -11   9  -1 2089.72 115.560   3
 -11   9  -2 10925.8 234.984   3
 -11  -9  -2 13543.6 547.316   3
 -11   9  -2 11318.4 230.561   3
 -11  -9  -3 430.695 126.763   3
 -11   9  -3 279.009 30.9820   3
 -11  -9  -4 5639.00 367.555   3
 -11  -9  -5 6838.54 411.928   3
 -11  -9  -6 716.981 156.410   3
 -11  -9  -7 8982.54 491.034   3
 -11  -9  -8 4163.47 352.191   3
 -11  -9  -9 1658.40 236.434   3
  11  -9  10 2292.02 301.558   2
 -11  -9 -10 2155.93 270.351   3
 -11  -9 -11 411.924 147.528   3
 -11  -9 -12 310.935 152.944   3
 -11 -11  21 699.128 172.272   1
 -11 -11  20 301.304 132.703   1
 -11 -11  19 1579.54 230.409   1
 -11 -11  18 6097.23 423.006   1
 -11 -11  17 177.170 115.402   1
 -11 -11  16 3571.10 314.021   1
 -11 -11  15 3114.27 289.073   1
 -11 -11  14 174.596 102.344   1
 -11 -11  13 1248.01 185.683   1
 -11 -11  12 3661.08 299.158   1
 -11 -11  11 4502.02 332.835   1
 -11 -11  10 2835.37 260.108   1
 -11 -11   9 1656.25 201.491   1
 -11 -11   8 214.203 101.606   1
 -11 -11   7 4831.73 324.561   1
 -11  11   6 1345.33 148.285   3
 -11 -11   6 1351.05 185.150   1
 -11 -11   5 339.808 108.975   1
 -11  11   5 433.200 85.0680   3
 -11 -11   4 166.257 83.1849   1
 -11  11   4 196.664 58.4255   3
 -11 -11   3 382.927 117.780   3
 -11 -11   3 383.127 90.1125   2
 -11  11   3 421.581 90.1759   1
 -11  11   3 311.085 74.4290   3
 -11 -11   3 421.052 126.427   1
 -11 -11   2 552.970 128.172   3
 -11 -11   2 886.648 132.728   2
 -11  11   2 1034.19 118.115   1
 -11  11   2 831.859 106.413   3
 -11 -11   1 47361.4 1004.76   3
 -11 -11   1 47963.3 878.147   2
 -11  11   1 50096.0 631.840   1
 -11  11   1 44752.0 607.171   3
 -11 -11   0 2712.33 253.976   3
 -11  11   0 2198.88 120.841   3
 -11  11   0 2428.16 124.489   1
 -11 -11  -1 65.9297 89.4464   3
 -11  11  -1 10.7218 23.4610   3
 -11  11  -1 32.0171 19.9728   1
 -11 -11  -2 13694.5 568.583   3
 -11 -11  -3 422.645 135.283   3
 -11 -11  -4 116.130 108.622   3
 -11 -11  -5 5278.47 389.712   3
 -11 -11  -6 7014.54 443.260   3
 -11 -11  -7 8171.71 490.474   3
 -11 -11  -8 5657.75 424.499   3
 -11 -11  -9 49.7298 116.592   3
 -11 -11 -10 2775.05 316.969   3
 -11 -13  20 161.085 127.655   1
 -11 -13  19 1862.99 251.346   1
 -11 -13  18 2663.21 294.494   1
 -11 -13  17 633.787 159.569   1
 -11 -13  16 4792.77 377.929   1
 -11 -13  15 2487.35 274.479   1
 -11 -13  14 137.225 108.519   1
 -11 -13  13 3105.99 293.155   1
 -11 -13  12 3071.60 287.026   1
 -11 -13  11 206.024 103.062   1
 -11 -13  10 3163.82 290.734   1
 -11 -13   9 5965.93 377.762   1
 -11 -13   8 4263.44 326.579   1
 -11 -13   7 4490.28 329.162   1
 -11 -13   6 13023.2 547.597   1
 -11 -13   5 184.896 101.237   3
 -11  13   5 112.118 60.5107   3
 -11 -13   5 45.3792 81.9848   1
 -11 -13   4 4557.94 328.233   3
 -11  13   4 4277.25 244.021   3
 -11 -13   3 1528.56 198.917   3
 -11  13   3 1454.01 136.005   3
 -11 -13   2 126.815 96.1543   3
 -11  13   2 7.37086 50.4497   3
 -11 -13   1 12127.0 544.870   3
 -11  13   1 13046.8 347.486   1
 -11 -13   0 814.352 168.852   3
 -11  13   0 847.625 84.2488   1
 -11 -13  -1 751.089 162.332   3
 -11 -13  -2 13775.9 606.261   3
 -11 -13  -3 2112.18 257.885   3
 -11 -13  -4 4354.05 355.501   3
 -11 -13  -5 7282.02 464.648   3
 -11 -13  -6 827.409 186.293   3
 -11 -13  -7 30.4704 126.047   3
 -11 -13  -8 5163.16 418.838   3
 -11 -15  19 532.107 161.373   1
 -11 -15  18 1327.38 226.964   1
 -11 -15  17 234.083 133.822   1
 -11 -15  16 2969.52 314.577   1
 -11 -15  15 2553.61 282.663   1
 -11 -15  14 46.6429 99.3646   1
 -11 -15  13 1432.14 215.157   1
 -11 -15  12 2267.17 261.605   1
 -11 -15  11 161.492 113.442   1
 -11 -15  10 5506.55 386.254   1
 -11 -15   9 4007.37 335.873   1
 -11 -15   8 2248.42 252.339   1
 -11 -15   7 2160.20 241.776   3
 -11 -15   7 2767.13 274.845   1
 -11 -15   6 3150.98 288.219   3
 -11 -15   5 360.975 125.859   3
 -11 -15   4 1815.00 227.574   3
 -11 -15   3 3503.80 303.306   3
 -11 -15   2 192.379 120.336   3
 -11 -15   1 4919.64 365.309   3
 -11 -15   0 748.665 161.495   3
 -11 -15  -1 17.4284 98.9757   3
 -11 -15  -2 3338.63 319.590   3
 -11 -15  -3 238.092 128.802   3
 -11 -15  -4 560.183 159.923   3
 -11 -15  -5 765.957 181.902   3
 -11 -15  -6 866.989 193.244   3
 -11 -17  17 481.459 152.978   1
 -11 -17  16 740.891 183.580   1
 -11 -17  15 2.97212 112.814   1
 -11 -17  14-163.070 133.098   1
 -11 -17  13 1663.47 242.773   1
 -11 -17  12 1980.18 253.625   1
 -11 -17  11 78.7524 106.731   1
 -11 -17  10 4137.46 351.310   1
 -11 -17   9 3343.65 309.617   3
 -11 -17   8 281.273 116.624   3
 -11 -17   7 3833.61 322.191   3
 -11 -17   6 301.892 123.770   3
 -11 -17   5-2.06866 106.622   3
 -11 -17   4 9518.92 504.204   3
 -11 -17   3 1240.15 203.867   3
 -11 -17   2 82.3928 109.825   3
 -11 -17   1 5505.42 403.372   3
 -11 -17   0 1020.97 196.790   3
 -11 -17  -1 117.214 103.152   3
 -11 -17  -2 2228.64 279.651   3
 -11 -17  -3 518.044 162.277   3
 -11 -17  -4 763.328 192.856   3
 -11 -19  14 49.1589 112.856   1
 -11 -19  13 366.397 124.690   3
 -11 -19  12 834.813 176.249   3
 -11 -19  11 413.250 137.555   3
 -11 -19  10 1217.98 201.049   3
 -11 -19   9 1971.38 248.462   3
 -11 -19   8 517.741 143.963   3
 -11 -19   7 1022.52 198.098   3
 -11 -19   6 1762.22 236.546   3
 -11 -19   5 3040.62 306.886   3
 -11 -19   4 267.006 136.378   3
 -11 -19   3 3921.20 347.959   3
 -11 -19   2 975.448 201.770   3
 -11 -19   1 1677.45 258.007   3
 -11 -19   0 100.740 100.941   3
 -11 -19  -1 1887.36 269.629   3
 -11 -21  11 262.489 119.527   3
 -11 -21  10 903.052 191.460   3
 -11 -21   9 839.926 183.545   3
 -11 -21   8 150.389 114.517   3
 -11 -21   7 1144.70 205.328   3
 -11 -21   6 27.3293 101.738   3
 -11 -21   5 655.238 176.698   3
 -11 -21   4 348.499 148.908   3
 -11 -21   3 1776.13 259.778   3
 -12   0  22 203.000 132.010   1
 -12   0  21 28.0832 115.504   1
 -12   0  20 15708.2 679.971   1
 -12   0  19 84.2562 102.482   1
 -12   0  18 2844.28 286.710   1
 -12   0  17 20.8034 92.1885   1
 -12   0  16 1842.77 226.168   1
 -12   0  15 165.886 106.882   1
 -12   0  14 27360.4 764.334   1
 -12   0  13 140.127 101.083   1
 -12   0  12 7038.22 371.091   1
 -12   0  11 113.213 90.4049   1
 -12   0  10 122.181 75.0090   1
 -12   0   9 49.1763 68.1985   1
 -12   0   8 17933.2 519.643   1
 -12   0   7-26.2064 59.4235   1
 -12   0   6 8753.57 346.356   1
  12   0  -6 7482.75 162.362   2
  12   0  -6 8695.19 354.984   1
  12   0  -5 33.7325 29.4669   2
 -12   0   5 68.4204 60.8031   1
  12   0  -5 0.74424 54.5348   1
  12   0  -4 3801.62 159.856   2
 -12   0   4 4219.95 231.696   1
  12   0  -4 3945.01 233.358   1
 -12   0   3-35.2071 56.6736   1
  12   0  -3-24.9767 39.1043   2
  12   0  -3-1.38582 54.8949   1
 -12   0   2 77082.3 947.989   1
  12   0  -2 75703.5 848.905   2
  12   0  -2 76336.4 953.697   1
  12   0  -1 22.8960 48.8542   1
  12   0  -1-16.2978 50.4905   2
 -12   0   1 11.8736 51.0736   1
 -12   0   0 17274.5 448.407   1
  12   0   0 17517.2 469.081   2
  12   0   0 17767.3 452.861   1
  12   0   1-17.2777 62.7043   1
  12   0   1-65.0244 72.8141   2
 -12   0  -1-58.1104 61.3753   1
  12   0   2 2005.72 158.201   1
  12   0   2 2309.74 197.832   2
 -12   0  -2 2374.82 192.118   3
  12   0   3-85.4689 88.3084   2
 -12   0  -3-55.4592 84.4311   3
  12   0   3 2.60115 48.9011   1
  12   0   4 24167.2 522.313   1
  12   0   4 23143.8 665.839   2
 -12   0  -4 22775.2 600.075   3
  12   0   5 57.7360 86.7159   2
 -12   0  -5 69.7938 83.6229   3
  12   0   5 48.8400 62.1581   1
  12   0   6 31645.4 604.636   1
  12   0   6 31173.8 835.693   2
 -12   0  -6 32891.9 745.457   3
  12   0   7 50.4141 97.5566   2
 -12   0  -7 341.653 130.201   3
  12   0   8 40.4422 95.6097   2
 -12   0  -8 9.78668 80.0906   3
  12   0   9-166.297 113.038   2
 -12   0  -9 123.822 103.083   3
  12   0  10 5562.35 422.984   2
 -12   0 -10 5667.41 350.771   3
  12   0  11 258.925 141.412   2
 -12  -2  22 647.711 183.051   1
 -12   2  21 636.407 165.331   1
 -12  -2  21 945.246 198.201   1
 -12  -2  20 250.667 131.376   1
 -12   2  20 176.705 110.799   1
 -12   2  19 2419.10 278.901   1
 -12  -2  19 3040.29 299.376   1
 -12  -2  18 188.591 115.364   1
 -12   2  18 124.632 111.948   1
 -12   2  17 15477.0 623.016   1
 -12  -2  17 15532.2 626.801   1
 -12  -2  16 312.176 119.204   1
 -12   2  16 432.941 132.098   1
 -12   2  15 3377.75 280.692   1
 -12  -2  15 3233.64 276.992   1
 -12  -2  14 388.623 107.331   1
 -12   2  14 533.542 127.476   1
 -12   2  13 9593.00 446.254   1
 -12  -2  13 9853.20 448.651   1
 -12  -2  12 5340.38 330.436   1
  12  -2 -12 4182.19 147.330   2
 -12   2  12 5279.24 322.203   1
 -12  -2  11 23025.5 647.292   1
 -12   2  11 23032.7 641.856   1
 -12   2  10 6.79052 67.9524   1
  12  -2 -10 31.6190 22.4802   2
 -12  -2  10 67.6102 78.9604   1
 -12  -2   9 14127.2 481.789   1
 -12   2   9 14265.6 473.051   1
 -12   2   8 584.153 106.315   1
 -12  -2   8 786.233 125.341   1
 -12  -2   7 1717.77 170.182   1
 -12   2   7 1481.61 150.274   1
 -12   2   6 80.6859 67.2506   1
  12   2  -6 15.5164 73.8611   1
 -12  -2   6 144.030 63.1937   1
 -12   2   5 43895.3 730.840   1
 -12  -2   5 44241.5 778.317   1
  12   2  -5 44039.0 803.807   1
 -12   2   4 1273.31 128.862   1
 -12  -2   4 1196.10 137.977   1
  12   2  -4 1149.45 135.534   1
 -12  -2   3 18625.9 501.375   1
  12   2  -3 19397.2 389.826   2
 -12   2   3 19124.3 461.052   1
  12  -2  -3 18796.9 460.968   1
  12   2  -3 19509.5 522.218   1
  12   2  -2 808.194 117.911   1
 -12   2   2 705.136 95.5040   1
 -12  -2   2 655.633 105.146   1
  12   2  -2 732.222 90.5428   2
  12  -2  -2 737.238 101.764   1
  12  -2  -1 332.950 79.8883   2
  12   2  -1 378.370 84.3109   1
  12   2  -1 380.399 78.6291   2
 -12  -2   1 746.687 112.692   1
  12  -2  -1 411.933 78.3888   1
 -12   2   1 746.146 101.570   1
  12  -2   0 1567.36 154.401   2
  12   2   0 1473.22 143.718   1
  12   2   0 1630.88 149.686   2
 -12  -2   0 1788.55 159.092   1
 -12   2   0 1788.40 138.107   1
  12  -2   0 1649.11 131.739   1
  12  -2   1 25947.9 616.877   2
  12   2   1 27451.3 605.677   1
 -12  -2  -1 27219.6 662.892   3
  12   2   1 27302.6 622.180   2
 -12   2  -1 28393.3 515.420   1
  12  -2   1 26614.6 500.021   1
  12  -2   2 1817.30 179.983   2
  12   2   2 1977.61 171.492   1
 -12   2  -2 1768.64 155.933   3
 -12  -2  -2 1758.70 179.286   3
  12   2   2 2004.29 185.530   2
  12  -2   2 1906.03 135.530   1
  12  -2   3 30980.5 746.089   2
  12   2   3 31456.2 736.428   2
 -12   2  -3 30963.0 644.234   3
 -12  -2  -3 31663.3 732.280   3
  12   2   3 30718.5 649.026   1
  12  -2   3 31177.2 512.498   1
  12  -2   4 872.375 139.257   2
  12   2   4 1158.57 138.509   1
 -12   2  -4 1039.98 129.206   3
 -12  -2  -4 1194.91 160.498   3
  12   2   4 1099.75 156.438   2
  12  -2   4 1230.97 105.124   1
  12  -2   5 1752.04 208.856   2
  12   2   5 1997.01 216.980   2
 -12  -2  -5 2460.12 230.825   3
 -12   2  -5 2150.11 188.409   3
  12   2   5 1620.15 166.806   1
  12  -2   5 1871.64 126.975   1
  12  -2   6 2892.51 270.705   2
  12   2   6 2992.74 271.217   2
 -12  -2  -6 2769.81 246.266   3
 -12   2  -6 3245.79 236.122   3
  12   2   6 2953.50 225.045   1
  12  -2   7 33194.6 905.461   2
  12   2   7 33336.0 898.559   2
 -12  -2  -7 34376.3 832.997   3
 -12   2  -7 35108.1 731.767   3
  12  -2   8 165.107 99.9814   2
  12   2   8 190.984 110.669   2
 -12  -2  -8-31.7536 87.9587   3
 -12   2  -8 74.8580 79.2496   3
  12  -2   9 18144.6 727.720   2
  12   2   9 17938.7 708.625   2
 -12  -2  -9 19453.3 663.362   3
  12  -2  10 306.462 134.447   2
  12   2  10 265.595 135.994   2
 -12  -2 -10 322.125 113.354   3
  12  -2  11 407.931 158.351   2
  12   2  11 293.853 138.814   2
 -12  -2 -11 219.134 111.726   3
 -12  -4  22 936.449 205.901   1
 -12  -4  21 9.71261 110.067   1
 -12   4  21-89.7706 116.673   1
 -12  -4  20 4091.86 354.655   1
 -12   4  20 4017.63 357.698   1
 -12  -4  19 546.923 154.409   1
 -12   4  19 481.143 141.258   1
 -12  -4  18 5390.00 388.945   1
 -12   4  18 5547.82 399.426   1
 -12  -4  17 93.8623 89.0365   1
 -12   4  17 56.0629 96.9766   1
 -12  -4  16 3874.91 311.551   1
 -12   4  16 3722.72 314.199   1
  12  -4 -15 184.579 63.5924   2
 -12  -4  15 210.651 101.952   1
 -12   4  15 78.2482 83.7465   1
 -12  -4  14 2152.04 228.477   1
  12  -4 -14 1901.44 147.544   2
 -12   4  14 1979.74 217.083   1
  12  -4 -13 103.309 48.0873   2
 -12  -4  13 20.5511 78.3426   1
 -12   4  13 9.67913 85.8684   1
 -12  -4  12 9656.25 438.818   1
  12  -4 -12 8905.11 280.014   2
 -12   4  12 9047.97 426.910   1
 -12  -4  11 3763.77 272.564   1
 -12   4  11 3477.86 259.769   1
 -12  -4  10 2714.08 233.387   1
 -12   4  10 2247.86 206.755   1
 -12  -4   9 287.873 90.7361   1
 -12   4   9 209.457 74.8971   1
 -12  -4   8 39793.4 815.193   1
 -12   4   8 39545.9 762.916   1
 -12  -4   7 1913.04 184.046   1
 -12   4   7 2042.83 175.084   1
 -12  -4   6 29804.6 682.405   1
 -12   4   6 29498.3 616.197   1
 -12  -4   5 2903.16 223.769   1
 -12   4   5 2586.36 182.330   1
 -12   4   4 37972.0 651.291   1
 -12  -4   4 40228.4 776.882   1
  12   4  -4 36899.1 754.758   1
  12   4  -3 1401.88 156.957   1
 -12   4   3 1604.46 137.486   1
 -12  -4   3 1553.27 160.580   1
  12   4  -2 40337.6 782.613   1
 -12   4   2 40895.1 629.413   1
 -12  -4   2 42215.6 795.550   1
 -12   4   1 26.5328 51.5614   1
 -12  -4   1 121.425 64.5785   1
  12   4  -1 139.832 74.2639   1
 -12   4   0 37581.9 557.018   1
 -12  -4   0 38112.5 752.419   1
  12   4   0 38293.7 767.429   1
 -12   4  -1 1712.98 119.119   1
 -12  -4  -1 2036.45 207.971   3
  12   4   1 1708.50 176.567   1
 -12   4  -2 202.155 66.4264   3
 -12  -4  -2 156.841 104.579   3
  12   4   2 152.104 77.2419   1
  12  -4   3 1249.64 164.099   2
 -12   4  -3 1329.48 130.439   3
 -12  -4  -3 1556.76 193.612   3
  12   4   3 1385.91 162.206   1
  12  -4   4 22732.3 685.424   2
 -12  -4  -4 23210.4 675.039   3
 -12   4  -4 23426.6 518.482   3
  12  -4   5 4830.33 335.219   2
 -12  -4  -5 5055.73 327.625   3
 -12   4  -5 5221.46 248.982   3
  12  -4   6 24117.8 765.263   2
 -12  -4  -6 23956.3 715.885   3
 -12   4  -6 24966.1 543.389   3
  12  -4   7 634.850 161.822   2
 -12  -4  -7 541.862 138.342   3
 -12   4  -7 576.084 103.895   3
  12  -4   8 1809.81 237.077   2
 -12  -4  -8 1664.86 204.338   3
  12  -4   9 227.589 145.962   2
 -12  -4  -9 177.224 123.959   3
  12  -4  10 2020.49 274.435   2
 -12  -4 -10 2246.72 252.151   3
  12  -4  11 277.098 140.269   2
 -12  -4 -11 70.9482 97.0789   3
 -12  -4 -12 5738.62 416.476   3
 -12  -6  22 132.741 113.695   1
 -12  -6  21 399.095 142.973   1
 -12  -6  20 230.444 130.717   1
 -12   6  20 120.025 111.982   1
 -12  -6  19 581.099 147.125   1
 -12   6  19 493.115 153.068   1
 -12  -6  18 323.540 127.038   1
 -12   6  18 113.134 102.558   1
 -12  -6  17 11081.3 540.814   1
 -12   6  17 10480.7 541.799   1
 -12  -6  16 589.448 140.486   1
 -12   6  16 516.238 142.446   1
 -12  -6  15 1819.14 221.468   1
 -12   6  15 1695.03 212.139   1
  12  -6 -14 581.435 98.7049   2
 -12  -6  14 697.112 146.215   1
 -12   6  14 638.213 145.239   1
  12  -6 -13 634.391 98.3616   2
 -12   6  13 728.929 150.986   1
 -12  -6  13 890.505 153.600   1
 -12  -6  12 3209.50 264.707   1
 -12   6  12 3068.63 259.832   1
 -12  -6  11 11609.4 479.803   1
 -12   6  11 10647.9 458.073   1
 -12  -6  10 837.809 141.092   1
 -12   6  10 498.246 113.917   1
 -12   6   9 20980.5 588.642   1
 -12  -6   9 20327.1 606.734   1
 -12  -6   8 81.3262 83.0746   1
 -12   6   8-14.8360 63.3507   1
 -12  -6   7 655.877 130.823   1
 -12   6   7 197.855 74.7428   1
 -12  -6   6 1547.64 169.860   1
 -12   6   6 1459.43 145.671   1
 -12  -6   5 51376.8 574.294   2
 -12  -6   5 55074.0 960.641   1
 -12   6   5 54024.4 803.728   1
 -12  -6   4 1323.00 105.001   2
 -12  -6   4 1936.18 192.604   1
 -12   6   4 1647.03 140.510   1
 -12   6   3 9752.03 314.413   1
 -12  -6   3 9849.40 308.389   2
 -12  -6   3 8911.35 397.569   1
 -12  -6   2 1012.36 114.752   2
 -12   6   2 1392.39 120.655   1
 -12  -6   2 1316.70 161.909   1
 -12  -6   1 3304.58 208.714   2
 -12   6   1 3877.25 183.750   1
 -12  -6   0 2012.90 174.181   2
 -12  -6   0 1786.01 195.424   3
 -12   6   0 2064.31 125.523   1
 -12  -6  -1 31043.7 777.333   3
 -12   6  -1 31030.3 425.696   1
 -12   6  -2 166.448 54.6696   3
 -12  -6  -2 320.615 108.558   3
 -12   6  -3 4952.69 215.581   3
 -12  -6  -3 5559.84 346.478   3
 -12  -6  -4 2279.83 240.735   3
 -12   6  -4 2486.42 152.968   3
 -12  -6  -5 3943.76 307.324   3
 -12   6  -5 3785.26 178.521   3
  12  -6   6 466.937 144.967   2
 -12  -6  -6 553.917 148.757   3
  12  -6   7 9008.21 503.082   2
 -12  -6  -7 8579.38 463.191   3
  12  -6   8-76.9577 123.146   2
 -12  -6  -8-298.048 148.800   3
  12  -6   9 11537.8 605.131   2
 -12  -6  -9 10780.9 546.094   3
  12  -6  10 200.508 126.099   2
 -12  -6 -10 2.57428 114.352   3
 -12  -6 -11 129.651 126.538   3
 -12  -6 -12 53.6705 114.886   3
 -12  -6 -13 1217.26 223.501   3
 -12  -8  21 657.437 180.647   1
 -12  -8  20 5341.58 410.593   1
 -12   8  19 461.889 153.191   1
 -12  -8  19 545.433 155.250   1
 -12  -8  18 819.186 179.192   1
 -12  -8  17 65.6308 105.247   1
 -12  -8  16 2394.60 258.753   1
 -12  -8  15-43.7645 89.2588   1
 -12  -8  14 1431.79 100.957   2
 -12  -8  14 1830.94 222.431   1
 -12  -8  13 135.342 92.6605   1
 -12  -8  12 4844.03 330.392   1
 -12  -8  11 568.956 135.823   1
 -12  -8  10 12805.4 511.821   1
 -12  -8   9 197.217 36.3107   2
 -12  -8   9 65.3610 81.9560   1
 -12   8   9 237.404 89.9135   1
 -12  -8   8 7849.40 394.766   1
 -12  -8   8 6113.60 179.391   2
 -12   8   8 7176.96 352.656   1
 -12  -8   7 908.979 146.777   1
 -12  -8   7 695.265 67.0806   2
 -12   8   7 806.565 120.613   1
 -12  -8   6 25513.8 432.713   2
 -12  -8   6 25261.9 694.365   1
 -12   8   6 26858.8 614.523   1
 -12   8   6 26555.3 605.293   3
 -12  -8   5 2946.29 162.606   2
 -12   8   5 3460.07 219.448   1
 -12  -8   5 3909.85 279.629   1
 -12   8   5 2962.08 199.404   3
 -12  -8   4 15383.5 393.433   2
 -12   8   4 16412.8 435.103   1
 -12   8   4 14192.0 407.470   3
 -12   8   3 30.5122 50.9703   3
 -12   8   3 8.85065 50.3613   1
 -12  -8   3-39.1582 56.0066   2
 -12  -8   3 1.60616 82.8098   1
 -12  -8   2 31637.8 773.076   1
 -12  -8   2 30950.9 629.898   2
 -12   8   2 30817.4 526.919   1
 -12  -8   1 195.501 60.6588   2
 -12  -8   1 271.295 97.2584   3
 -12   8   1 261.290 56.3776   1
 -12  -8   0 20903.3 573.346   2
 -12  -8   0 21301.2 663.031   3
 -12   8   0 20156.1 354.194   1
 -12  -8  -1 340.598 126.754   3
 -12   8  -1 469.404 52.6910   1
 -12   8  -2 3661.50 166.142   3
 -12  -8  -2 3927.27 308.598   3
 -12   8  -3 8834.85 233.761   3
 -12  -8  -3 10383.8 490.167   3
 -12  -8  -4 15932.1 612.338   3
 -12  -8  -5 26.9654 90.7113   3
 -12  -8  -6 23618.6 783.409   3
 -12  -8  -7 272.514 135.456   3
  12  -8   8 119.788 96.2514   2
 -12  -8  -8 186.373 108.282   3
  12  -8   9-3.99468 121.095   2
 -12  -8  -9-42.2098 114.323   3
  12  -8  10 471.729 171.058   2
 -12  -8 -10 312.701 141.824   3
 -12  -8 -11-2.21250 119.635   3
 -12  -8 -12 5806.81 455.279   3
 -12 -10  21 90.0553 106.999   1
 -12 -10  20 83.3320 103.211   1
 -12 -10  19 2775.95 294.916   1
 -12 -10  18 395.961 139.084   1
 -12 -10  17 8809.54 499.048   1
 -12 -10  16 415.669 133.631   1
 -12 -10  15 1112.40 191.457   1
 -12 -10  14 88.7357 104.053   1
 -12 -10  13 2230.42 242.159   1
 -12 -10  12 1271.89 182.631   1
 -12 -10  11 8810.61 449.440   1
 -12 -10  10 233.450 101.846   1
 -12 -10   9 5957.04 364.224   1
 -12 -10   8 355.612 120.227   1
 -12 -10   7 1716.55 207.834   1
 -12 -10   6 276.105 68.5879   2
 -12 -10   6 353.613 117.514   1
 -12  10   6 287.013 89.3038   1
 -12  10   6 239.786 73.8126   3
 -12 -10   5 6375.58 370.562   1
 -12 -10   5 5613.68 254.803   2
 -12  10   5 5765.35 284.176   1
 -12  10   5 5426.43 272.917   3
 -12 -10   4 452.358 82.9850   2
 -12 -10   4 395.205 117.074   1
 -12  10   4 398.502 80.8427   1
 -12  10   4 456.933 82.7707   3
 -12 -10   3 8747.49 429.580   1
 -12 -10   3 10156.0 370.880   2
 -12  10   3 10341.5 337.527   1
 -12  10   3 9642.21 329.992   3
 -12 -10   2 7040.10 327.595   2
 -12 -10   2 6508.60 388.119   3
 -12  10   2 7713.12 272.716   1
 -12  10   2 6277.32 255.010   3
 -12  10   1 521.499 58.8357   1
 -12 -10   1 889.979 167.471   3
 -12 -10   1 634.915 110.593   2
 -12  10   1 695.501 88.1083   3
 -12 -10   0 324.163 127.674   3
 -12  10   0 101.942 37.2474   1
 -12  10   0 137.403 51.0440   3
 -12 -10  -1 13652.5 566.211   3
 -12  10  -2 633.746 61.3550   3
 -12 -10  -2 857.066 162.392   3
 -12 -10  -3 6112.96 396.131   3
 -12 -10  -4 784.812 169.893   3
 -12 -10  -5 173.141 117.904   3
 -12 -10  -6 1777.95 238.867   3
 -12 -10  -7 11659.6 586.115   3
 -12 -10  -8-12.0690 120.897   3
  12 -10   9 6002.12 474.824   2
 -12 -10  -9 5979.58 445.352   3
 -12 -10 -10 93.8600 120.781   3
 -12 -12  20 4496.10 389.211   1
 -12 -12  19 93.1174 111.379   1
 -12 -12  18 200.342 112.973   1
 -12 -12  17 479.523 150.040   1
 -12 -12  16 1299.85 214.879   1
 -12 -12  15-58.8512 110.602   1
 -12 -12  14 10562.1 535.257   1
 -12 -12  13-68.4122 115.586   1
 -12 -12  12 128.647 96.9594   1
 -12 -12  11 106.328 85.5665   1
 -12 -12  10 601.502 151.239   1
 -12 -12   9 767.444 164.011   1
 -12 -12   8 8900.66 466.806   1
 -12 -12   7 4855.74 341.280   1
 -12 -12   6 2096.76 234.493   1
 -12 -12   5 414.640 113.867   1
 -12  12   5 198.358 60.4378   3
 -12 -12   4 626.309 140.532   3
 -12 -12   4 801.929 119.965   2
 -12 -12   4 1072.35 167.402   1
 -12  12   4 894.106 121.166   1
 -12  12   4 565.356 94.2821   3
 -12 -12   3 935.330 166.109   3
 -12 -12   3 889.354 129.980   2
 -12  12   3 964.441 121.388   1
 -12  12   3 803.526 102.948   3
 -12 -12   2 4915.44 353.354   3
 -12  12   2 5792.20 247.961   1
 -12  12   2 4932.96 228.216   3
 -12  12   1 178.689 57.0699   1
 -12 -12   1 378.669 122.535   3
 -12  12   0 4955.45 172.324   1
 -12 -12   0 5409.80 370.125   3
 -12 -12  -1 1079.73 186.634   3
 -12 -12  -2 434.855 141.497   3
 -12 -12  -3 1551.22 220.345   3
 -12 -12  -4 4996.57 384.525   3
 -12 -12  -5 562.246 157.558   3
 -12 -12  -6 8339.15 507.325   3
 -12 -12  -7 181.047 127.597   3
 -12 -12  -8 73.4976 113.775   3
 -12 -14  19 965.609 205.755   1
 -12 -14  18 213.079 133.242   1
 -12 -14  17 7036.07 471.517   1
 -12 -14  16-116.629 115.195   1
 -12 -14  15 440.652 137.169   1
 -12 -14  14 218.778 123.729   1
 -12 -14  13 1704.57 230.620   1
 -12 -14  12 18.1405 95.7171   1
 -12 -14  11 10106.3 523.047   1
 -12 -14  10 1239.53 201.157   1
 -12 -14   9 6879.57 434.943   1
 -12 -14   8 64.8512 89.3313   1
 -12 -14   7 2261.06 252.152   1
 -12 -14   6 273.189 113.961   1
 -12 -14   6 284.026 119.715   3
 -12 -14   5 7284.47 428.800   3
 -12 -14   4-121.173 123.592   3
 -12 -14   3 2563.93 265.203   3
 -12  14   3 2627.54 192.665   1
 -12 -14   2 1265.54 205.522   3
 -12  14   2 1151.32 126.469   1
 -12 -14   1 144.879 100.473   3
 -12 -14   0 189.938 108.347   3
 -12 -14  -1 6621.58 439.218   3
 -12 -14  -2-83.3568 123.803   3
 -12 -14  -3 5156.24 394.886   3
 -12 -14  -4 2586.61 306.485   3
 -12 -14  -5 82.4051 102.625   3
 -12 -14  -6 1150.75 213.543   3
 -12 -16  17 165.838 127.583   1
 -12 -16  16 96.2501 116.821   1
 -12 -16  15-88.8841 118.248   1
 -12 -16  14 1832.52 251.817   1
 -12 -16  13 476.131 154.241   1
 -12 -16  12 1954.20 258.063   1
 -12 -16  11 163.722 113.235   1
 -12 -16  10 1237.81 208.638   1
 -12 -16   9 16.3180 105.079   1
 -12 -16   8 4732.40 358.231   3
 -12 -16   8 5541.61 399.809   1
 -12 -16   7 375.782 131.403   3
 -12 -16   6 4070.42 335.884   3
 -12 -16   5 1367.01 210.718   3
 -12 -16   4 730.085 169.656   3
 -12 -16   3 495.471 153.917   3
 -12 -16   2 7889.89 481.810   3
 -12 -16   1 61.6490 107.449   3
 -12 -16   0 1841.22 253.228   3
 -12 -16  -1 95.4198 116.602   3
 -12 -16  -2 138.966 113.540   3
 -12 -16  -3-90.0931 127.825   3
 -12 -16  -4 1734.79 259.486   3
 -12 -18  14 37.2404 107.144   1
 -12 -18  13 774.936 182.765   1
 -12 -18  12-37.1375 110.632   1
 -12 -18  11 1940.87 247.215   3
 -12 -18  11 2250.94 281.263   1
 -12 -18  10 4.01869 109.031   3
 -12 -18   9 1358.00 222.664   3
 -12 -18   8 89.1207 100.691   3
 -12 -18   7 55.2233 108.289   3
 -12 -18   6 583.439 152.212   3
 -12 -18   5 5777.23 415.032   3
 -12 -18   4 361.094 136.587   3
 -12 -18   3 2953.06 312.117   3
 -12 -18   2 1005.99 208.781   3
 -12 -18   1 159.243 123.656   3
 -12 -18   0-53.6355 106.945   3
 -12 -18  -1 1745.52 262.825   3
 -12 -20  12 3869.05 351.428   3
 -12 -20  11 140.375 121.410   3
 -12 -20  10 795.714 186.295   3
 -12 -20   9 480.626 156.947   3
 -12 -20   8 3080.82 323.019   3
 -12 -20   7 546.795 160.925   3
 -12 -20   6 921.984 204.817   3
 -12 -20   5 92.9907 122.397   3
 -12 -20   4 128.216 121.847   3
 -12 -20   3 415.433 157.724   3
 -13   1  21 3276.44 335.419   1
 -13  -1  21 3505.81 346.499   1
 -13   1  20 1050.62 203.949   1
 -13  -1  20 898.814 184.661   1
 -13   1  19 5229.79 399.238   1
 -13  -1  19 5339.42 398.160   1
 -13   1  18 3232.00 311.343   1
 -13  -1  18 3175.96 308.675   1
 -13   1  17 279.536 121.824   1
 -13  -1  17 342.584 123.389   1
 -13   1  16 2938.51 275.931   1
 -13  -1  16 2954.27 277.358   1
 -13   1  15 1812.16 218.473   1
 -13  -1  15 2194.80 239.299   1
 -13   1  14 1086.46 175.650   1
 -13  -1  14 1025.93 171.914   1
 -13   1  13 4278.92 309.229   1
 -13  -1  13 3926.00 295.630   1
 -13  -1  12 15028.1 545.015   1
 -13   1  12 14629.1 544.654   1
 -13   1  11 868.326 152.978   1
 -13  -1  11 1057.25 159.110   1
 -13  -1  10 21544.5 615.754   1
 -13   1  10 21519.1 610.646   1
 -13  -1   9 5805.43 320.304   1
 -13   1   9 5543.12 307.779   1
 -13   1   8 131.898 61.8377   1
 -13  -1   8 115.336 66.8461   1
 -13   1   7 14123.1 457.781   1
 -13  -1   7 13982.6 467.861   1
  13  -1  -6 11022.2 242.620   2
 -13   1   6 12620.6 423.108   1
 -13  -1   6 12879.4 445.456   1
 -13  -1   5 578.158 104.308   1
  13  -1  -5 496.553 65.4790   2
  13   1  -5 553.920 61.6216   2
  13  -1  -5 511.871 94.2990   1
 -13   1   5 651.171 108.715   1
  13   1  -5 494.772 101.912   1
  13  -1  -4 3454.30 172.967   2
  13   1  -4 3716.47 171.085   2
 -13   1   4 3741.28 226.049   1
  13  -1  -4 3407.79 220.063   1
  13   1  -4 3463.49 232.054   1
 -13  -1   4 3695.23 230.950   1
 -13  -1   3 12047.0 406.946   1
  13  -1  -3 10692.8 323.676   2
  13   1  -3 10848.0 316.180   2
  13  -1  -3 11006.3 380.321   1
 -13   1   3 11919.3 387.346   1
  13   1  -3 11247.6 401.190   1
 -13   1   2 7476.40 304.776   1
  13  -1  -2 7986.70 304.087   2
  13   1  -2 8198.70 298.296   2
 -13  -1   2 7434.93 319.642   1
  13  -1  -2 8022.31 321.239   1
  13   1  -2 7962.72 336.068   1
  13  -1  -1 10059.3 361.063   2
  13   1  -1 10061.7 351.202   2
 -13   1   1 9814.61 344.368   1
  13  -1  -1 10018.4 349.379   1
 -13  -1   1 9963.41 372.029   1
  13   1  -1 9965.98 373.181   1
 -13   1   0 9322.81 329.596   1
  13  -1   0 8203.45 343.497   2
  13   1   0 8378.34 341.292   2
 -13  -1   0 9189.66 349.836   1
  13  -1   0 8308.01 315.178   1
  13   1   0 8359.68 337.638   1
  13   1   1 6493.13 299.233   1
  13  -1   1 6517.68 327.139   2
 -13   1  -1 6084.35 265.535   1
 -13  -1  -1 6566.53 335.133   3
  13   1   1 6469.54 319.377   2
  13  -1   1 6526.08 274.283   1
  13   1   2 6155.07 293.221   1
  13  -1   2 5707.13 319.281   2
 -13   1  -2 5650.39 298.814   3
  13   1   2 6018.76 323.702   2
 -13  -1  -2 5841.99 320.446   3
  13  -1   2 5767.37 259.627   1
  13   1   3 3692.52 225.764   1
  13  -1   3 3295.28 257.625   2
  13   1   3 3239.58 251.133   2
 -13   1  -3 3040.78 228.333   3
 -13  -1  -3 3076.93 242.274   3
  13  -1   3 3443.09 198.762   1
  13   1   4 9760.22 368.153   1
  13  -1   4 9435.58 446.062   2
  13   1   4 9445.45 444.648   2
 -13   1  -4 9810.15 397.479   3
 -13  -1  -4 9931.35 428.333   3
  13  -1   4 9598.14 319.815   1
  13  -1   5 24060.5 735.347   2
  13   1   5 23255.8 571.132   1
  13   1   5 24204.7 733.034   2
 -13  -1  -5 25516.0 693.008   3
 -13   1  -5 25816.3 653.140   3
  13  -1   6 7560.52 432.599   2
  13   1   6 7762.50 439.557   2
 -13  -1  -6 8239.42 411.627   3
 -13   1  -6 7832.95 375.668   3
  13  -1   7 29.5908 86.8144   2
  13   1   7 186.332 109.473   2
 -13  -1  -7 200.961 99.8045   3
 -13   1  -7 179.006 75.5709   3
  13  -1   8 8193.85 485.232   2
  13   1   8 8589.27 499.264   2
 -13  -1  -8 9096.94 446.258   3
 -13   1  -8 9021.53 415.675   3
  13  -1   9 58.2812 100.329   2
  13   1   9 205.639 123.596   2
 -13  -1  -9 21.6338 85.7811   3
  13  -1  10 595.063 166.685   2
  13   1  10 566.292 172.959   2
 -13  -3  21 2655.03 304.078   1
 -13   3  21 2807.55 321.994   1
 -13  -3  20 226.977 137.311   1
 -13   3  20 96.8284 116.467   1
 -13  -3  19 3408.66 323.162   1
 -13   3  19 3010.85 311.664   1
 -13  -3  18 5107.85 383.074   1
 -13   3  18 5036.08 381.856   1
 -13  -3  17 88.3567 103.386   1
 -13   3  17 128.495 107.604   1
 -13  -3  16 1630.58 214.725   1
 -13   3  16 1512.12 211.634   1
 -13  -3  15 1207.25 181.627   1
 -13   3  15 1007.44 176.564   1
  13  -3 -14 793.801 82.7147   2
 -13  -3  14 960.805 167.118   1
 -13   3  14 990.613 167.368   1
  13  -3 -13 3100.88 146.516   2
 -13  -3  13 3956.26 297.406   1
 -13   3  13 3912.19 294.460   1
 -13  -3  12 6135.69 359.687   1
  13  -3 -12 4696.37 169.175   2
 -13   3  12 6195.88 359.630   1
 -13   3  11 142.808 84.1048   1
  13  -3 -11 74.0066 29.3789   2
 -13  -3  11 64.5847 72.4746   1
 -13  -3  10 9723.76 427.244   1
 -13   3  10 9364.91 409.885   1
 -13  -3   9 21737.3 617.793   1
 -13   3   9 21348.5 600.934   1
 -13   3   8 1140.38 144.898   1
 -13  -3   8 1240.67 161.337   1
 -13  -3   7 15737.6 515.093   1
 -13   3   7 15636.2 476.334   1
 -13   3   6 4739.13 257.010   1
 -13  -3   6 5302.19 300.714   1
 -13   3   5 3614.54 224.626   1
 -13  -3   5 3646.56 251.611   1
 -13  -3   4 8586.25 366.889   1
 -13   3   4 8748.11 328.864   1
 -13  -3   3 20295.3 553.601   1
 -13   3   3 20094.4 481.156   1
  13   3  -3 19354.5 551.482   1
  13   3  -2 1514.01 167.271   1
 -13   3   2 1285.95 124.008   1
 -13  -3   2 1172.93 148.143   1
 -13   3   1 17221.9 431.287   1
  13   3  -1 16186.1 504.058   1
 -13  -3   1 17189.9 512.031   1
  13  -3   0 9578.68 387.975   2
 -13  -3   0 11816.7 423.996   1
  13   3   0 10675.3 409.881   1
  13   3   0 10908.7 392.123   2
 -13   3   0 11098.6 335.137   1
  13  -3   1 2077.77 192.875   2
  13   3   1 2128.23 190.790   1
 -13  -3  -1 2264.87 215.767   3
  13   3   1 2217.42 193.454   2
  13  -3   1 2016.35 138.447   1
 -13   3  -1 1901.55 137.715   1
  13  -3   2 17989.0 570.127   2
  13   3   2 18620.8 552.792   1
 -13   3  -2 18024.3 494.348   3
 -13  -3  -2 18820.4 593.933   3
  13   3   2 18488.3 559.718   2
  13  -3   2 18080.7 392.249   1
  13  -3   3 6646.03 370.281   2
 -13   3  -3 6501.03 303.797   3
 -13  -3  -3 6726.21 368.494   3
  13   3   3 7062.23 343.465   1
  13   3   3 6713.25 359.794   2
  13  -3   3 6748.71 230.715   1
  13  -3   4 104.416 82.7545   2
 -13   3  -4 41.7863 57.5805   3
 -13  -3  -4 156.200 92.0400   3
  13   3   4-87.5590 95.8351   2
  13   3   4 97.3718 64.9908   1
  13  -3   5 12037.6 531.940   2
 -13  -3  -5 12199.8 506.758   3
 -13   3  -5 12487.1 423.752   3
  13   3   5 11725.0 511.768   2
  13  -3   6 6343.44 406.297   2
 -13  -3  -6 6613.93 385.799   3
  13   3   6 6360.94 395.817   2
 -13   3  -6 6341.85 308.314   3
  13  -3   7 1098.27 188.646   2
  13   3   7 898.665 170.879   2
 -13  -3  -7 822.564 157.941   3
 -13   3  -7 989.801 134.430   3
  13  -3   8 8203.66 494.720   2
  13   3   8 8343.66 489.606   2
 -13  -3  -8 8806.11 465.410   3
  13  -3   9 209.899 127.787   2
 -13  -3  -9 15.4658 107.909   3
  13  -3  10 1539.20 248.292   2
 -13  -3 -10 1459.77 207.727   3
 -13  -5  21 635.094 168.905   1
 -13  -5  20-59.8835 113.726   1
 -13   5  20 13.3698 103.473   1
 -13  -5  19 1353.01 205.836   1
 -13   5  19 1491.33 239.904   1
 -13  -5  18 4766.21 374.532   1
 -13   5  18 4480.40 373.754   1
 -13  -5  17 185.258 113.354   1
 -13   5  17 97.4629 100.064   1
 -13  -5  16 1279.45 192.031   1
 -13   5  16 861.274 160.401   1
 -13  -5  15 3674.16 306.782   1
 -13   5  15 2914.38 275.146   1
  13  -5 -14 493.245 86.5519   2
 -13  -5  14 341.412 103.612   1
 -13   5  14 444.525 126.998   1
  13  -5 -13 949.633 108.160   2
 -13  -5  13 1015.99 164.766   1
 -13   5  13 1094.96 170.948   1
 -13  -5  12 147.699 84.1492   1
 -13   5  12 47.4913 79.1062   1
 -13  -5  11 601.633 128.749   1
 -13   5  11 538.846 121.899   1
 -13  -5  10 17549.2 585.410   1
 -13   5  10 17280.2 566.255   1
 -13  -5   9 1372.14 172.950   1
 -13   5   9 1211.82 161.981   1
 -13  -5   8 5610.24 327.375   1
 -13   5   8 5929.83 309.855   1
 -13  -5   7 17252.5 557.307   1
 -13   5   7 17451.0 509.543   1
 -13   5   6 27301.9 613.511   1
 -13  -5   6 28922.2 709.201   1
 -13  -5   5 1835.96 188.937   1
 -13   5   5 1484.36 147.729   1
 -13   5   4 1657.06 145.713   1
 -13  -5   4 1519.02 172.533   1
 -13   5   3 12534.7 370.002   1
 -13  -5   3 13227.7 475.954   1
 -13  -5   2 1616.80 177.792   1
 -13   5   2 1816.85 144.257   1
 -13   5   1 8374.05 280.229   1
 -13  -5   1 8633.49 390.520   1
 -13  -5   0 4628.27 308.736   3
 -13   5   0 5729.71 222.770   1
 -13   5  -1 5050.27 193.724   1
 -13  -5  -1 6386.27 364.031   3
 -13   5  -2 6548.05 278.516   3
 -13  -5  -2 6840.26 389.927   3
 -13   5  -3 8880.55 325.357   3
 -13  -5  -3 9820.74 466.295   3
  13  -5   4 4535.70 327.070   2
 -13  -5  -4 5017.32 343.984   3
 -13   5  -4 4908.58 238.865   3
  13  -5   5 11914.2 544.950   2
 -13  -5  -5 12663.9 546.146   3
 -13   5  -5 12654.7 378.331   3
  13  -5   6 2664.14 275.949   2
 -13  -5  -6 2311.51 254.447   3
  13  -5   7 4663.09 369.242   2
 -13  -5  -7 4780.12 354.605   3
  13  -5   8 6588.83 453.240   2
 -13  -5  -8 6208.72 412.064   3
  13  -5   9 93.6289 103.257   2
 -13  -5  -9-140.178 119.540   3
  13  -5  10 1294.88 236.184   2
 -13  -5 -10 1302.06 209.459   3
 -13  -5 -11 1426.63 232.977   3
 -13  -7  21 2364.54 292.692   1
 -13  -7  20 1542.86 236.673   1
 -13  -7  19 3293.74 325.804   1
 -13   7  19 3036.46 321.996   1
 -13  -7  18 3565.41 325.733   1
 -13   7  18 3150.71 322.055   1
 -13   7  17 243.363 128.408   1
 -13  -7  17 266.877 106.859   1
 -13   7  16 707.735 161.301   1
 -13  -7  16 525.477 137.900   1
 -13   7  15 520.588 140.750   1
 -13  -7  15 717.079 147.838   1
 -13   7  14 794.091 159.826   1
 -13  -7  14 785.344 159.440   1
 -13  -7  13 7618.66 423.570   1
 -13   7  13 6741.46 403.407   1
 -13  -7  12 4307.91 319.379   1
 -13   7  12 3583.45 293.419   1
 -13  -7  11 209.197 107.734   1
 -13   7  11 224.542 99.0127   1
 -13   7  10 12150.5 488.838   1
 -13  -7  10 11645.6 500.701   1
 -13   7   9 5306.73 312.293   1
 -13  -7   9 5808.54 352.013   1
 -13  -7   8 67.4678 79.3928   1
 -13   7   8 273.189 86.4854   1
 -13  -7   7 5479.42 337.047   1
 -13   7   7 5522.18 296.132   1
 -13  -7   6 3247.11 146.777   2
 -13  -7   6 3930.41 277.440   1
 -13   7   6 3708.94 232.614   1
 -13   7   5 646.197 109.613   1
 -13  -7   5 536.413 75.7280   2
 -13  -7   5 922.630 155.691   1
 -13  -7   4 7521.47 272.219   2
 -13  -7   4 7316.56 378.631   1
 -13   7   4 7356.08 295.941   1
 -13   7   3 21565.8 484.202   1
 -13  -7   3 20465.0 476.822   2
 -13  -7   3 24101.3 676.376   1
 -13  -7   2 347.772 112.127   1
 -13  -7   2 398.650 78.9246   2
 -13   7   2 410.402 74.2488   1
 -13  -7   1 12258.2 423.836   2
 -13  -7   1 11699.8 498.832   3
 -13   7   1 12443.9 326.285   1
 -13  -7   0 10164.7 464.944   3
 -13   7   0 10153.8 269.829   1
 -13   7  -1 4652.80 160.189   1
 -13  -7  -1 5769.67 365.168   3
 -13  -7  -2 278.412 118.378   3
 -13   7  -2 125.820 58.3208   3
 -13   7  -3 16842.0 386.239   3
 -13  -7  -3 18405.4 653.869   3
 -13  -7  -4 2151.85 245.849   3
 -13  -7  -5 15392.8 627.003   3
  13  -7   6 1024.18 188.179   2
 -13  -7  -6 1016.42 184.558   3
  13  -7   7 1817.74 244.190   2
 -13  -7  -7 2203.40 255.616   3
  13  -7   8 5197.55 422.481   2
 -13  -7  -8 5222.64 399.513   3
  13  -7   9-132.455 131.441   2
 -13  -7  -9-17.5565 114.763   3
 -13  -7 -10 646.262 180.358   3
 -13  -7 -11 2822.98 318.846   3
 -13  -9  20 158.510 116.289   1
 -13  -9  19-9.46611 101.331   1
 -13   9  19 100.520 122.396   1
 -13  -9  18 5048.92 396.224   1
 -13   9  18 4643.60 391.496   1
 -13  -9  17-25.9660 104.805   1
 -13   9  17 98.5328 145.782   1
 -13  -9  16 1693.71 229.385   1
 -13  -9  15 4159.32 338.656   1
 -13  -9  14 591.325 147.640   1
 -13  -9  13 1795.04 220.029   1
 -13  -9  12 3329.08 293.137   1
 -13  -9  11 514.102 136.363   1
 -13   9  11 315.194 116.659   1
 -13  -9  10 2485.30 248.307   1
 -13   9  10 2316.72 229.603   1
 -13  -9  10 1467.82 80.8713   2
 -13  -9   9 3063.44 275.453   1
 -13  -9   9 1940.32 105.095   2
 -13   9   9 2406.46 222.778   1
 -13  -9   8 58.0259 78.1594   1
 -13  -9   8-66.9471 41.4804   2
 -13   9   8 18.7815 71.1032   1
 -13  -9   7 4077.90 180.895   2
 -13  -9   7 3984.52 304.729   1
 -13   9   7 4206.65 267.927   1
 -13  -9   6 2015.14 142.269   2
 -13   9   6 2130.59 187.650   1
 -13  -9   6 2757.71 254.699   1
 -13   9   5 441.997 91.1911   3
 -13  -9   5 341.375 73.4415   2
 -13  -9   5 202.435 102.080   1
 -13   9   5 329.985 81.2582   1
 -13  -9   4 9472.96 335.945   2
 -13  -9   4 10153.6 462.673   1
 -13   9   4 9722.08 345.108   1
 -13   9   4 9006.06 338.034   3
 -13  -9   3 2756.44 195.727   2
 -13   9   3 2628.26 172.894   1
 -13  -9   3 2455.57 232.259   1
 -13   9   3 2516.98 175.905   3
 -13   9   2 99.3595 58.2759   3
 -13  -9   2 160.991 75.1396   2
 -13  -9   2 133.729 108.981   3
 -13   9   2 118.489 51.9457   1
 -13  -9   2 215.048 100.366   1
 -13  -9   1 5163.82 293.566   2
 -13   9   1 5208.76 207.995   1
 -13  -9   1 4871.05 346.545   3
 -13   9   1 4394.61 207.251   3
 -13  -9   0 3093.23 289.335   3
 -13   9   0 3356.50 146.601   1
 -13   9   0 2734.09 153.687   3
 -13  -9  -1 2224.19 244.049   3
 -13   9  -2 9657.22 260.559   3
 -13  -9  -2 12264.3 550.976   3
 -13  -9  -3 2745.67 278.740   3
 -13  -9  -4 3969.23 334.874   3
 -13  -9  -5 4684.32 371.210   3
 -13  -9  -6 4741.09 374.067   3
 -13  -9  -7 2050.86 257.843   3
  13  -9   8 2603.79 311.548   2
 -13  -9  -8 2719.57 306.687   3
 -13  -9  -9 7.66968 110.596   3
 -13  -9 -10 924.901 197.273   3
 -13 -11  19 1337.90 237.195   1
 -13 -11  18 2520.83 293.756   1
 -13 -11  17 98.8676 97.8273   1
 -13 -11  16 970.659 188.212   1
 -13 -11  15 2532.91 277.120   1
 -13 -11  14 181.158 104.753   1
 -13 -11  13 1798.21 233.375   1
 -13 -11  12 4925.28 363.263   1
 -13 -11  11 1320.15 202.098   1
 -13 -11  10 9460.13 484.644   1
 -13 -11   9 1220.21 184.247   1
 -13 -11   8 320.670 117.297   1
 -13 -11   7 3869.10 207.282   2
 -13  11   7 4633.00 292.135   1
 -13 -11   7 4443.87 330.212   1
 -13 -11   6 1086.48 178.922   1
 -13 -11   6 999.950 114.736   2
 -13  11   6 1123.32 148.645   1
 -13 -11   5 260.357 75.6794   2
 -13 -11   5 465.905 131.373   1
 -13  11   5 331.308 90.3772   1
 -13  11   5 177.395 63.3013   3
 -13 -11   4 6067.59 382.048   1
 -13 -11   4 5871.39 293.774   2
 -13  11   4 6281.04 289.972   1
 -13  11   4 5428.35 270.418   3
 -13  11   3 410.137 85.6895   1
 -13 -11   3 603.768 153.311   3
 -13 -11   3 552.976 112.900   2
 -13  11   3 465.374 86.2431   3
 -13 -11   2 2695.80 224.250   2
 -13 -11   2 2899.09 274.361   3
 -13  11   2 2710.66 164.079   1
 -13  11   1 7592.32 243.804   1
 -13 -11   1 7501.49 438.778   3
 -13 -11   0 90.7857 96.1485   3
 -13 -11  -1 2271.79 259.154   3
 -13 -11  -2 279.556 115.900   3
 -13 -11  -3 59.6046 103.214   3
 -13 -11  -4 1361.24 219.522   3
 -13 -11  -5 13530.1 640.685   3
 -13 -11  -6 2045.71 272.474   3
 -13 -11  -7 1668.98 249.065   3
 -13 -11  -8 2013.28 285.790   3
 -13 -13  18 2388.06 294.130   1
 -13 -13  17 295.274 142.557   1
 -13 -13  16 1360.88 226.431   1
 -13 -13  15 1946.57 257.474   1
 -13 -13  14 107.671 110.064   1
 -13 -13  13 1630.82 228.913   1
 -13 -13  12 3007.21 299.412   1
 -13 -13  11 1504.94 218.708   1
 -13 -13  10 5133.86 382.905   1
 -13 -13   9 1812.64 237.969   1
 -13 -13   8 277.750 122.320   1
 -13 -13   7 2886.86 280.681   1
 -13 -13   6 6708.57 419.795   1
 -13 -13   5 494.528 135.806   3
 -13 -13   5 280.088 100.989   1
 -13  13   5 493.896 103.665   1
 -13 -13   4 1248.92 196.438   3
 -13  13   4 1415.23 151.096   1
 -13 -13   3 1485.79 214.808   3
 -13  13   3 1762.84 155.829   1
 -13 -13   2 2547.70 271.785   3
 -13  13   2 2386.00 160.573   1
 -13 -13   1 4767.51 366.882   3
 -13 -13   0 1513.76 225.534   3
 -13 -13  -1 1957.21 251.240   3
 -13 -13  -2 3350.66 325.140   3
 -13 -13  -3 3012.01 315.596   3
 -13 -13  -4 1001.04 192.347   3
 -13 -13  -5 1510.52 253.726   3
 -13 -13  -6 1020.70 206.457   3
 -13 -15  17 134.346 122.619   1
 -13 -15  16 1133.71 212.210   1
 -13 -15  15 729.988 183.044   1
 -13 -15  14 281.564 126.711   1
 -13 -15  13 2443.38 287.371   1
 -13 -15  12 2002.64 261.255   1
 -13 -15  11 841.724 186.194   1
 -13 -15  10 3440.69 320.485   1
 -13 -15   9 1274.44 211.108   1
 -13 -15   8-174.529 122.866   1
 -13 -15   7 7793.60 460.841   3
 -13 -15   7 8618.93 495.630   1
 -13 -15   6 249.415 117.700   3
 -13 -15   5 77.1187 105.500   3
 -13 -15   4 4155.77 350.908   3
 -13  15   4 4626.53 274.833   1
 -13 -15   3 496.426 165.573   3
 -13 -15   2 1045.11 193.347   3
 -13 -15   1 1783.25 249.113   3
 -13 -15   0 877.012 192.451   3
 -13 -15  -1 1197.61 216.029   3
 -13 -15  -2 1764.77 254.773   3
 -13 -15  -3 8.33400 110.591   3
 -13 -15  -4 144.375 118.971   3
 -13 -17  14 525.020 164.300   1
 -13 -17  13 963.524 203.269   1
 -13 -17  12 1067.53 208.983   1
 -13 -17  11-249.740 145.023   1
 -13 -17  10 1095.70 211.357   1
 -13 -17   9 1235.78 213.228   1
 -13 -17   9 850.020 181.348   3
 -13 -17   8 1287.30 207.735   3
 -13 -17   7 2305.02 275.039   3
 -13 -17   6 2148.79 266.775   3
 -13 -17   5-71.1030 118.660   3
 -13 -17   4 2507.62 296.309   3
 -13 -17   3 3113.36 321.822   3
 -13 -17   2 166.257 118.261   3
 -13 -17   1 2507.00 300.398   3
 -13 -17   0 184.362 125.671   3
 -13 -17  -1 95.6286 120.669   3
 -13 -19  13 1936.56 261.909   3
 -13 -19  12 1581.54 249.579   3
 -13 -19  11-35.3742 115.599   3
 -13 -19  10 2062.74 267.968   3
 -13 -19   9 831.494 187.033   3
 -13 -19   8 92.0083 113.402   3
 -13 -19   7 144.053 112.798   3
 -13 -19   6 493.815 156.972   3
 -13 -19   5 1809.64 256.652   3
 -13 -19   4 1133.89 220.266   3
 -13 -19   3 507.179 165.831   3
 -14   0  21 137.748 132.760   1
 -14   0  20 6405.12 453.452   1
 -14   0  19-19.9257 96.8010   1
 -14   0  18 389.778 135.654   1
 -14   0  17-205.103 124.276   1
 -14   0  16 113.720 107.287   1
 -14   0  15 108.066 97.7714   1
 -14   0  14 24426.2 742.872   1
 -14   0  13 270.796 121.755   1
 -14   0  12 41.4279 74.5741   1
 -14   0  11 2.92027 79.9045   1
 -14   0  10 6785.07 361.422   1
 -14   0   9 89.2797 91.6513   1
 -14   0   8 29590.1 706.017   1
 -14   0   7 16.9306 63.9940   1
  14   0  -6 1753.94 98.7265   2
 -14   0   6 2049.80 187.058   1
 -14   0   5-77.7007 69.5468   1
  14   0  -5 2.68784 36.9870   2
 -14   0   4 315.711 95.8313   1
  14   0  -4 171.427 55.0172   2
  14   0  -4 231.133 82.7064   1
  14   0  -3 34.6118 49.3163   2
 -14   0   3 22.3791 55.6897   1
  14   0  -3-43.6320 66.0534   1
  14   0  -2 34181.3 639.326   2
 -14   0   2 35065.4 692.794   1
  14   0  -2 34095.9 698.348   1
  14   0  -1 6.88335 56.3752   1
  14   0  -1-125.088 69.9870   2
 -14   0   1-53.1414 64.8310   1
  14   0   0 6848.43 327.073   2
 -14   0   0 6619.29 300.916   1
  14   0   0 6933.07 311.147   1
  14   0   1 52.3493 60.5320   1
 -14   0  -1 76.0619 71.4787   3
  14   0   1-28.3089 80.9085   2
  14   0   2 11.4683 54.1243   1
 -14   0  -2 58.5562 69.9524   3
  14   0   2 74.7612 65.8876   2
  14   0   3 123.616 71.3095   1
 -14   0  -3 42.2219 71.5882   3
  14   0   3-90.0280 86.6100   2
  14   0   4 31305.9 827.585   2
 -14   0  -4 32265.4 770.642   3
  14   0   5 187.121 114.188   2
 -14   0  -5 99.8023 101.574   3
  14   0   6 7180.53 437.586   2
 -14   0  -6 7706.85 397.468   3
  14   0   7 14.5134 95.4443   2
 -14   0  -7 11.8765 83.0886   3
  14   0   8 553.533 163.036   2
 -14   0  -8 828.494 149.360   3
  14   0   9 133.739 133.499   2
  14   0  10 2244.58 295.551   2
 -14  -2  21 6.79316 111.633   1
 -14   2  20 508.406 161.358   1
 -14  -2  20 556.492 162.785   1
 -14  -2  19 5342.21 404.119   1
 -14   2  19 5292.90 406.117   1
 -14   2  18 72.3726 103.197   1
 -14  -2  18 266.200 119.929   1
 -14  -2  17 3933.57 335.624   1
 -14   2  17 4165.58 340.035   1
 -14   2  16-11.5117 87.7884   1
 -14  -2  16 175.449 103.652   1
 -14  -2  15 3054.84 287.843   1
 -14   2  15 2982.81 275.794   1
 -14   2  14 1158.81 179.675   1
 -14  -2  14 1212.29 191.075   1
 -14  -2  13 3306.48 278.469   1
 -14   2  13 3491.66 288.688   1
 -14   2  12 323.211 112.704   1
 -14  -2  12 275.236 106.293   1
 -14  -2  11 16724.0 581.202   1
 -14   2  11 16249.8 570.039   1
 -14  -2  10 3545.15 270.354   1
 -14   2  10 3560.74 263.592   1
 -14  -2   9 1763.78 189.815   1
 -14   2   9 1943.81 194.595   1
 -14   2   8 129.084 65.5062   1
 -14  -2   8 77.3389 65.6832   1
 -14   2   7 6471.30 321.569   1
 -14  -2   7 6881.72 346.626   1
 -14  -2   6 799.809 125.160   1
 -14   2   6 634.105 112.493   1
  14  -2  -5 8587.70 272.062   2
 -14   2   5 8975.02 357.482   1
 -14  -2   5 9020.64 383.662   1
 -14   2   4 281.453 77.9340   1
  14  -2  -4 290.168 66.0410   2
 -14  -2   4 308.281 93.2996   1
  14  -2  -3 12469.0 377.210   2
 -14  -2   3 12275.2 436.604   1
  14   2  -3 13018.2 366.694   2
 -14   2   3 12254.9 402.034   1
 -14   2   2 1777.19 159.254   1
  14  -2  -2 1490.06 149.208   2
  14   2  -2 1523.88 140.930   2
  14  -2  -2 1498.23 151.218   1
 -14  -2   2 1548.69 168.633   1
  14  -2  -1 2508.05 198.673   2
 -14  -2   1 3459.32 236.156   1
  14   2  -1 2708.28 195.032   2
 -14   2   1 3210.78 205.772   1
  14  -2  -1 2527.59 181.093   1
  14   2  -1 2560.15 206.721   1
  14   2   0 2325.05 199.083   1
 -14   2   0 2206.90 165.592   1
 -14  -2   0 2306.20 195.503   1
  14  -2   0 2114.30 189.051   2
  14   2   0 2411.26 201.235   2
  14  -2   0 2261.37 167.738   1
  14   2   1 16035.6 507.890   1
  14  -2   1 15146.4 516.628   2
 -14  -2  -1 15011.5 534.789   3
  14   2   1 15574.0 512.701   2
  14  -2   1 15320.5 416.484   1
  14  -2   2 786.088 137.983   2
 -14   2  -2 765.285 116.755   3
 -14  -2  -2 968.173 153.492   3
  14   2   2 805.400 126.592   1
  14   2   2 924.910 144.238   2
  14  -2   2 754.235 95.6030   1
  14   2   3 16147.8 512.073   1
  14  -2   3 16353.2 587.530   2
 -14   2  -3 16480.4 514.575   3
 -14  -2  -3 17229.2 590.354   3
  14   2   3 16381.3 576.706   2
  14  -2   4 2357.29 235.767   2
 -14   2  -4 2765.50 219.336   3
 -14  -2  -4 2775.99 251.858   3
  14   2   4 2551.22 242.735   2
  14  -2   5 2918.27 279.333   2
  14   2   5 3183.15 286.398   2
 -14  -2  -5 3060.58 267.535   3
 -14   2  -5 2772.72 223.041   3
  14  -2   6 483.087 150.831   2
  14   2   6 230.650 116.224   2
 -14  -2  -6 367.970 120.988   3
 -14   2  -6 503.958 122.017   3
  14  -2   7 4535.88 366.597   2
  14   2   7 4738.31 370.136   2
 -14  -2  -7 4820.49 341.378   3
  14  -2   8 59.2686 104.805   2
  14   2   8 107.062 99.9436   2
 -14  -2  -8-121.778 102.077   3
  14  -2   9 5939.99 448.475   2
  14   2   9 6264.08 452.702   2
 -14  -2  -9 6874.38 426.632   3
  14   2  10 178.382 127.305   2
 -14  -4  21 30.8971 109.428   1
 -14  -4  20 4024.77 368.253   1
 -14   4  20 3787.08 365.167   1
 -14  -4  19 210.009 131.499   1
 -14   4  19 81.8617 135.100   1
 -14  -4  18 1793.00 252.831   1
 -14   4  18 1819.13 249.953   1
 -14  -4  17 81.8446 99.1152   1
 -14   4  17-15.7579 102.501   1
 -14  -4  16 1996.76 240.780   1
 -14   4  16 1793.06 226.031   1
 -14  -4  15 603.278 148.544   1
 -14   4  15 525.058 133.749   1
 -14  -4  14 10711.2 506.542   1
 -14   4  14 10101.3 494.993   1
 -14   4  13 209.563 92.5173   1
  14  -4 -13 118.188 43.4085   2
 -14  -4  13 228.830 102.831   1
 -14  -4  12 7557.47 408.832   1
  14  -4 -12 6632.34 222.529   2
 -14   4  12 7830.61 412.060   1
 -14   4  11 49.0735 82.8829   1
 -14  -4  11 98.7461 77.7176   1
 -14   4  10 232.929 93.3811   1
 -14  -4  10 255.145 105.920   1
 -14  -4   9 893.154 144.689   1
 -14   4   9 1076.51 150.044   1
 -14  -4   8 20551.6 618.022   1
 -14   4   8 18851.3 554.872   1
 -14  -4   7 2294.57 215.798   1
 -14   4   7 1995.98 180.760   1
 -14   4   6 172.904 77.1658   1
 -14  -4   6 237.906 100.934   1
 -14   4   5 527.100 99.9630   1
 -14  -4   5 455.668 113.086   1
 -14   4   4 8796.88 338.925   1
 -14  -4   4 9612.31 411.364   1
 -14  -4   3 1076.38 143.137   1
 -14   4   3 1128.30 124.748   1
 -14  -4   2 15157.7 513.831   1
 -14   4   2 14634.5 407.861   1
 -14   4   1 1639.76 142.342   1
 -14  -4   1 1604.34 173.140   1
 -14  -4   0 15818.1 567.732   3
 -14   4   0 14369.1 382.556   1
  14  -4   1 158.956 91.2276   2
 -14  -4  -1 137.196 92.4159   3
 -14   4  -1 84.6949 51.5115   1
  14  -4   2 7212.65 388.077   2
 -14   4  -2 7175.96 319.588   3
 -14  -4  -2 7365.99 398.075   3
  14  -4   3 1686.90 201.091   2
 -14   4  -3 1572.35 154.858   3
 -14  -4  -3 1771.00 208.141   3
  14  -4   4 15977.7 618.824   2
 -14  -4  -4 15751.4 603.532   3
 -14   4  -4 16386.3 478.340   3
  14  -4   5 267.162 117.284   2
 -14  -4  -5 559.942 151.051   3
 -14   4  -5 371.524 93.0050   3
  14  -4   6 7076.47 452.318   2
 -14  -4  -6 7422.27 437.276   3
  14  -4   7 342.635 133.600   2
 -14  -4  -7 238.294 127.920   3
  14  -4   8 497.393 160.973   2
 -14  -4  -8 581.141 149.504   3
  14  -4   9 54.0034 121.740   2
 -14  -4  -9-25.8641 101.421   3
 -14  -4 -10 3553.92 335.722   3
 -14  -6  20 324.702 129.171   1
 -14  -6  19 4173.39 367.705   1
 -14   6  19 3761.62 356.131   1
 -14  -6  18 195.513 129.307   1
 -14   6  18-198.787 128.611   1
 -14  -6  17 3752.46 334.073   1
 -14   6  17 3814.25 339.519   1
 -14  -6  16 100.694 97.0523   1
 -14   6  16-121.798 124.001   1
 -14  -6  15 2038.32 243.277   1
 -14   6  15 1849.64 230.638   1
 -14   6  14 372.125 128.439   1
 -14  -6  14 449.960 138.569   1
 -14   6  13 1407.84 192.983   1
 -14  -6  13 1574.41 204.002   1
 -14  -6  12 145.354 91.8168   1
 -14   6  12 74.4544 91.2294   1
 -14  -6  11 24524.1 728.491   1
 -14   6  11 23460.6 697.219   1
 -14  -6  10 1671.59 207.620   1
 -14   6  10 1548.56 186.619   1
 -14   6   9 10404.3 438.903   1
 -14  -6   9 10013.9 461.737   1
 -14   6   8 960.203 145.076   1
 -14  -6   8 1052.67 161.808   1
 -14  -6   7 2037.96 215.531   1
 -14   6   7 1646.64 173.808   1
 -14  -6   6 1271.90 169.053   1
 -14   6   6 1116.75 138.536   1
 -14   6   5 12576.6 412.852   1
 -14  -6   5 12614.9 493.897   1
 -14  -6   4-86.4540 86.2892   1
 -14   6   4 40.0400 51.2726   1
 -14  -6   3 7130.99 371.251   1
 -14   6   3 7320.47 294.050   1
 -14   6   2 605.823 93.9951   1
 -14  -6   2 678.459 135.204   1
 -14  -6   1 447.064 134.347   3
 -14   6   1 661.499 90.2047   1
 -14  -6   0 215.723 101.438   3
 -14   6   0 148.720 57.6636   1
 -14  -6  -1 17202.7 618.561   3
 -14   6  -1 15483.3 329.129   1
 -14   6  -2 2270.01 169.782   3
 -14  -6  -2 2519.18 253.326   3
 -14   6  -3 3786.77 213.321   3
 -14  -6  -3 3884.17 313.421   3
  14  -6   4 339.669 138.824   2
 -14  -6  -4 323.456 134.867   3
  14  -6   5 451.771 140.079   2
 -14  -6  -5 474.495 141.262   3
  14  -6   6 393.658 139.515   2
 -14  -6  -6 458.808 149.769   3
  14  -6   7 8064.04 512.293   2
 -14  -6  -7 7927.35 477.656   3
  14  -6   8-141.419 118.443   2
 -14  -6  -8-116.829 121.618   3
  14  -6   9 3415.05 363.090   2
 -14  -6  -9 3690.50 350.004   3
 -14  -6 -10 329.104 162.254   3
 -14  -6 -11 490.121 161.224   3
 -14  -8  20 1450.72 234.503   1
 -14   8  19 202.263 133.458   1
 -14  -8  19 405.395 155.341   1
 -14   8  18 222.457 132.037   1
 -14  -8  18 40.4626 107.782   1
 -14  -8  17-71.4286 106.564   1
 -14   8  17 35.2625 108.161   1
 -14  -8  16 1254.50 203.188   1
 -14   8  16 948.224 184.889   1
 -14  -8  15 318.048 128.077   1
 -14   8  15 173.766 101.577   1
 -14   8  14 6096.19 404.019   1
 -14  -8  14 6584.46 422.567   1
 -14  -8  13 271.434 120.867   1
 -14   8  13 61.1085 95.3509   1
 -14   8  12 3583.77 298.135   1
 -14  -8  12 3240.54 295.372   1
 -14  -8  11 578.333 139.302   1
 -14   8  11 634.548 135.091   1
 -14  -8  10 813.025 155.686   1
 -14   8  10 896.703 152.326   1
 -14  -8   9 381.061 121.210   1
 -14   8   9 213.331 86.3040   1
 -14  -8   8 4639.86 334.463   1
 -14   8   8 4088.47 278.631   1
 -14  -8   7 296.742 108.420   1
 -14   8   7 45.6956 78.1358   1
 -14  -8   6 7851.34 252.720   2
 -14  -8   6 7425.32 406.028   1
 -14   8   6 7809.18 344.769   1
 -14   8   5 104.580 74.0103   1
 -14  -8   5 102.715 53.6187   2
 -14  -8   5 177.226 102.421   1
 -14  -8   4 3379.90 203.907   2
 -14  -8   4 4565.21 318.907   1
 -14   8   4 3919.84 225.342   1
 -14  -8   3 3940.82 235.500   2
 -14   8   3 3972.55 212.904   1
 -14  -8   3 3952.77 299.513   1
 -14  -8   2 8237.73 354.237   2
 -14  -8   2 8306.63 439.865   3
 -14   8   2 8446.85 292.151   1
 -14  -8   2 9351.88 444.276   1
 -14  -8   1 450.640 96.2686   2
 -14   8   1 397.295 69.1526   1
 -14  -8   1 542.146 137.343   3
 -14   8   0 9049.64 251.356   1
 -14  -8   0 10908.7 514.384   3
 -14  -8  -1 2921.80 279.965   3
 -14  -8  -2 3572.30 317.217   3
 -14  -8  -3 1247.62 210.468   3
 -14  -8  -4 16780.4 670.511   3
 -14  -8  -5 1726.35 236.747   3
  14  -8   6 6744.81 463.517   2
 -14  -8  -6 7037.17 456.969   3
  14  -8   7 124.544 114.347   2
 -14  -8  -7 300.572 160.918   3
 -14  -8  -8 123.711 112.520   3
 -14  -8  -9 277.545 138.941   3
 -14 -10  19 1920.75 271.828   1
 -14 -10  18 153.149 112.713   1
 -14  10  18 379.011 159.552   1
 -14  10  17 4266.22 383.112   1
 -14 -10  17 4639.67 383.848   1
 -14 -10  16 358.176 140.462   1
 -14  10  16 183.344 118.785   1
 -14 -10  15 685.260 164.908   1
 -14  10  15 657.033 169.144   1
 -14 -10  14 688.418 160.839   1
 -14  10  14 671.686 165.295   1
 -14  10  13 2905.02 289.221   1
 -14 -10  13 3765.85 327.532   1
 -14  10  12 1157.86 190.874   1
 -14 -10  12 1151.47 190.572   1
 -14 -10  11 22863.6 761.340   1
 -14  10  11 23166.0 729.778   1
 -14 -10  10-85.1637 97.6282   1
 -14  10  10 8.67107 82.0468   1
 -14 -10   9 1178.49 192.652   1
 -14  10   9 1370.52 172.470   1
 -14  10   8 282.921 110.648   1
 -14 -10   8 190.042 120.688   1
 -14 -10   7 975.160 172.267   1
 -14  10   7 617.173 116.341   1
 -14 -10   6 1265.03 122.331   2
 -14  10   6 1267.42 153.624   1
 -14 -10   6 1184.04 185.712   1
 -14 -10   5 3740.56 218.383   2
 -14 -10   5 4982.09 348.651   1
 -14  10   5 4061.43 248.066   1
 -14  10   5 3420.20 231.271   3
 -14 -10   4 5307.75 275.720   2
 -14  10   4 5305.14 261.540   1
 -14 -10   4 4969.79 349.529   1
 -14  10   4 4714.05 257.505   3
 -14 -10   3 17040.1 514.737   2
 -14 -10   3 18783.5 677.817   3
 -14 -10   3 16759.6 622.285   1
 -14  10   3 15862.0 448.075   3
 -14  10   3 17829.8 447.792   1
 -14 -10   2 207.539 88.4958   2
 -14 -10   2 153.612 108.093   3
 -14  10   2 273.146 71.1013   1
 -14 -10   1 233.866 105.455   3
 -14  10   1 115.605 44.4437   1
 -14 -10   0 1120.24 200.274   3
 -14 -10  -1 2708.11 284.805   3
 -14 -10  -2 112.819 95.3059   3
 -14 -10  -3 9330.19 521.473   3
 -14 -10  -4 1727.33 255.759   3
 -14 -10  -5 260.297 147.113   3
 -14 -10  -6-144.397 128.245   3
 -14 -10  -7 3647.34 361.125   3
 -14 -10  -8-91.3291 138.456   3
 -14 -12  18 142.190 128.855   1
 -14 -12  17 67.1307 102.959   1
 -14 -12  16 282.445 136.358   1
 -14 -12  15 270.196 124.641   1
 -14 -12  14 8791.66 514.583   1
 -14 -12  13-57.3473 104.489   1
 -14 -12  12 526.456 156.150   1
 -14 -12  11 325.167 128.865   1
 -14 -12  10 192.071 113.953   1
 -14 -12   9 79.4341 100.050   1
 -14  12   9 79.6732 84.9130   1
 -14 -12   8 14948.4 631.862   1
 -14  12   8 15614.5 560.198   1
 -14 -12   7 1574.77 217.041   1
 -14  12   7 1226.45 167.983   1
 -14  12   6 424.017 102.475   1
 -14 -12   6 406.436 135.980   1
 -14 -12   5 1565.78 217.822   1
 -14  12   5 1819.44 178.756   1
 -14  12   4 46.4200 60.3295   1
 -14 -12   4 183.085 117.331   3
 -14  12   3 79.2309 58.6583   1
 -14 -12   3 144.309 107.997   3
 -14 -12   2 7889.59 462.905   3
 -14 -12   1 419.220 143.299   3
 -14 -12   0 12090.6 587.656   3
 -14 -12  -1 191.913 120.392   3
 -14 -12  -2 733.880 182.542   3
 -14 -12  -3 283.619 141.817   3
 -14 -12  -4 9837.26 565.047   3
 -14 -12  -5 28.9518 112.630   3
 -14 -12  -6 5706.76 448.133   3
 -14 -14  16-93.8480 112.964   1
 -14 -14  15-37.3647 100.405   1
 -14 -14  14-32.0187 102.741   1
 -14 -14  13 1962.29 260.466   1
 -14 -14  12 785.852 180.287   1
 -14 -14  11 8980.44 516.032   1
 -14 -14  10 61.6966 92.8204   1
 -14 -14   9 2365.17 274.727   1
 -14 -14   8 854.205 180.715   1
 -14 -14   7 2070.76 250.797   1
 -14  14   7 1959.22 210.824   1
 -14 -14   6 300.365 124.326   3
 -14  14   6 417.350 112.560   1
 -14 -14   6 335.691 125.904   1
 -14 -14   5 6025.35 413.232   3
 -14  14   5 6810.12 342.305   1
 -14 -14   4 848.065 183.214   3
 -14  14   4 832.280 126.160   1
 -14 -14   3 8528.90 498.784   3
 -14 -14   2 90.1317 118.447   3
 -14 -14   1 283.454 130.605   3
 -14 -14   0 271.900 146.490   3
 -14 -14  -1 3700.88 350.195   3
 -14 -14  -2 480.832 161.613   3
 -14 -14  -3 3499.72 349.698   3
 -14 -16  14 4749.83 409.141   1
 -14 -16  13 46.8396 106.092   1
 -14 -16  12 1125.22 214.827   1
 -14 -16  11-19.5306 107.515   1
 -14 -16  10 10.8043 107.769   1
 -14 -16   9 107.678 105.520   1
 -14 -16   8 5302.91 403.444   3
 -14 -16   8 5770.90 426.285   1
 -14 -16   7 1.10274 101.543   3
 -14 -16   6 2109.44 268.752   3
 -14  16   6 2440.10 231.331   1
 -14 -16   5 86.0507 105.897   3
 -14 -16   4 421.218 157.616   3
 -14 -16   3-82.5883 98.3802   3
 -14 -16   2 3950.27 365.878   3
 -14 -16   1 67.2495 117.260   3
 -14 -16   0 3843.01 369.454   3
 -14 -18  11 2540.57 298.824   3
 -14 -18  10 115.214 114.899   3
 -14 -18   9 1800.38 254.308   3
 -14 -18   8 1260.47 220.248   3
 -14 -18   7 401.907 150.823   3
 -14 -18   6 853.188 201.368   3
 -14 -18   5 6344.59 464.032   3
 -14 -18   4-3.49325 109.264   3
 -15   1  20 324.591 140.251   1
 -15  -1  20 384.345 154.564   1
 -15   1  19 530.250 162.823   1
 -15  -1  19 528.179 158.287   1
 -15   1  18 970.566 188.023   1
 -15  -1  18 492.548 134.797   1
 -15   1  17 240.666 116.637   1
 -15  -1  17-106.587 114.923   1
 -15  -1  16 3986.69 339.297   1
 -15   1  16 3521.44 318.833   1
 -15  -1  15 10330.1 518.200   1
 -15   1  15 10004.5 503.966   1
 -15   1  14 80.3653 96.7098   1
 -15  -1  14 74.6919 93.9079   1
 -15  -1  13 5441.71 360.972   1
 -15   1  13 5427.64 353.306   1
 -15  -1  12 3428.29 277.918   1
 -15   1  12 3172.81 272.692   1
 -15   1  11 35.0760 86.1364   1
 -15  -1  11 9.93949 79.8308   1
 -15  -1  10 1716.26 198.857   1
 -15   1  10 1509.54 179.602   1
 -15   1   9 5948.78 335.636   1
 -15  -1   9 5672.38 337.764   1
 -15   1   8 1396.22 177.575   1
 -15  -1   8 1096.88 155.169   1
 -15  -1   7 81.9769 69.3910   1
  15  -1  -7 88.4738 33.4519   2
 -15   1   7 211.616 88.0315   1
 -15  -1   6 488.893 103.191   1
  15  -1  -6 517.641 64.9484   2
 -15   1   6 698.626 123.853   1
 -15   1   5 1163.97 143.401   1
  15  -1  -5 1230.46 109.613   2
 -15  -1   5 1389.42 165.583   1
 -15  -1   4 6414.75 327.513   1
  15  -1  -4 6060.61 253.435   2
  15   1  -4 6594.43 253.993   2
 -15   1   4 6309.14 309.930   1
 -15   1   3 6583.83 310.700   1
  15  -1  -3 6014.87 271.116   2
 -15  -1   3 6624.97 327.124   1
  15   1  -3 6420.97 274.333   2
  15  -1  -3 5899.95 306.341   1
 -15  -1   2 58.2676 67.0436   1
  15  -1  -2-42.0251 51.3231   2
 -15   1   2 75.1162 65.3632   1
  15   1  -2 69.9832 53.8764   2
  15  -1  -2 49.0555 58.0003   1
  15  -1  -1 5458.32 290.301   2
 -15  -1   1 5986.27 311.796   1
  15   1  -1 5731.17 296.480   2
  15  -1  -1 5542.87 287.283   1
 -15   1   1 5925.93 293.957   1
 -15  -1   0 4342.19 263.670   1
  15  -1   0 3700.23 254.405   2
  15   1   0 3895.65 256.999   2
 -15   1   0 4544.51 254.171   1
  15  -1   0 3901.43 238.740   1
  15   1   0 3802.83 252.237   1
 -15   1  -1 1242.89 157.032   3
  15   1   1 1493.72 176.097   2
 -15  -1  -1 1437.69 177.564   3
  15  -1   1 1364.37 171.684   2
  15   1   1 1420.44 164.760   1
  15  -1   1 1099.82 131.577   1
  15  -1   2 8008.74 408.143   2
 -15   1  -2 8086.06 383.034   3
 -15  -1  -2 8540.38 415.875   3
  15   1   2 8448.22 413.815   2
  15  -1   3 7006.69 396.820   2
 -15   1  -3 7026.92 366.217   3
 -15  -1  -3 7467.41 398.102   3
  15   1   3 7517.97 411.216   2
  15  -1   4-23.6359 90.5168   2
 -15  -1  -4 39.9854 86.2246   3
 -15   1  -4-2.57727 74.1116   3
  15   1   4 33.3720 83.0168   2
  15  -1   5 7517.83 445.314   2
  15   1   5 7555.41 446.411   2
 -15  -1  -5 8013.75 421.520   3
 -15   1  -5 7646.12 388.194   3
  15  -1   6 263.551 121.679   2
  15   1   6 346.286 122.682   2
 -15  -1  -6 288.855 104.594   3
 -15   1  -6 307.608 108.156   3
  15  -1   7 1187.64 202.649   2
  15   1   7 1673.76 237.455   2
 -15  -1  -7 1253.27 190.521   3
  15  -1   8 4938.12 408.904   2
  15   1   8 4595.00 390.148   2
  15  -1   9 321.992 147.209   2
  15   1   9 320.598 148.794   2
 -15   3  20 528.066 160.362   1
 -15  -3  20 810.096 181.511   1
 -15   3  19 1063.62 205.059   1
 -15  -3  19 1066.42 203.172   1
 -15  -3  18 2557.37 288.608   1
 -15   3  18 2458.90 284.563   1
 -15   3  17 187.508 117.253   1
 -15  -3  17 213.459 112.782   1
 -15   3  16 630.387 158.646   1
 -15  -3  16 750.007 164.807   1
 -15  -3  15 3657.77 317.873   1
 -15   3  15 3148.70 306.077   1
 -15   3  14 719.634 154.083   1
 -15  -3  14 712.678 159.055   1
 -15  -3  13 4456.26 331.031   1
 -15   3  13 4529.67 327.087   1
 -15  -3  12 9835.01 483.424   1
 -15   3  12 9051.04 451.373   1
 -15   3  11 209.345 92.4146   1
  15  -3 -11 57.3712 20.6548   2
 -15  -3  11 234.236 97.0557   1
 -15  -3  10 4916.42 327.278   1
 -15   3  10 4797.37 305.999   1
 -15   3   9 2115.99 206.150   1
 -15  -3   9 2404.39 231.408   1
 -15  -3   8 218.111 90.8482   1
 -15   3   8 136.713 68.3763   1
 -15  -3   7 96.8851 73.8850   1
 -15   3   7 116.738 84.2411   1
 -15   3   6 1740.10 173.299   1
 -15  -3   6 1669.99 185.027   1
 -15   3   5-3.46025 58.5140   1
 -15  -3   5 87.8439 68.6893   1
 -15  -3   4 11526.7 452.725   1
 -15   3   4 11471.4 403.191   1
  15  -3  -3 6436.37 296.365   2
 -15  -3   3 7777.88 374.859   1
 -15   3   3 7212.87 312.626   1
  15  -3  -2 311.658 81.0409   2
 -15  -3   2 136.181 78.8368   1
 -15   3   2 280.252 85.8235   1
  15  -3  -1 3106.48 230.902   2
 -15   3   1 3207.45 207.234   1
 -15  -3   1 3430.90 254.245   1
 -15   3   0 972.477 114.658   1
  15  -3   0 567.924 120.513   2
 -15  -3   0 726.364 145.768   3
  15  -3   1 2919.82 244.552   2
 -15   3  -1 2799.67 215.995   3
 -15  -3  -1 2972.99 259.436   3
  15  -3   2 6593.37 380.239   2
 -15   3  -2 6833.38 334.436   3
 -15  -3  -2 7140.76 396.777   3
  15  -3   3 718.829 145.243   2
 -15   3  -3 457.426 107.099   3
 -15  -3  -3 714.253 159.461   3
  15   3   3 850.498 159.274   2
  15  -3   4 552.280 142.958   2
 -15  -3  -4 560.090 142.675   3
 -15   3  -4 577.376 115.298   3
  15   3   4 645.973 140.310   2
  15  -3   5 5625.26 393.270   2
 -15  -3  -5 5498.51 373.191   3
 -15   3  -5 5956.24 324.199   3
  15  -3   6 516.184 154.246   2
 -15  -3  -6 343.999 126.836   3
  15  -3   7 2728.01 301.161   2
 -15  -3  -7 2874.29 285.765   3
 -15  -3  -8 3973.91 338.761   3
 -15  -5  20 672.561 179.126   1
 -15  -5  19 1097.65 202.850   1
 -15   5  19 1085.46 210.632   1
 -15  -5  18 2605.93 291.615   1
 -15   5  18 2557.08 297.766   1
 -15  -5  17-8.02881 105.505   1
 -15   5  17-207.391 138.815   1
 -15  -5  16 1955.28 247.712   1
 -15   5  16 2047.53 254.832   1
 -15  -5  15 6020.75 402.698   1
 -15   5  15 5481.90 391.695   1
 -15   5  14 344.708 128.694   1
 -15  -5  14 73.7069 91.8435   1
 -15   5  13 1603.16 213.421   1
 -15  -5  13 1503.17 203.491   1
 -15  -5  12 6430.12 393.854   1
 -15   5  12 5687.75 363.686   1
 -15   5  11 369.120 104.448   1
 -15  -5  11 441.102 122.963   1
 -15  -5  10 5904.80 359.751   1
 -15   5  10 5370.34 326.680   1
 -15  -5   9 7032.49 393.713   1
 -15   5   9 6077.92 338.966   1
 -15   5   8 1080.03 151.129   1
 -15  -5   8 958.389 160.322   1
 -15  -5   7 11822.0 492.790   1
 -15   5   7 11459.8 431.993   1
 -15   5   6 6615.86 322.998   1
 -15  -5   6 7002.86 383.009   1
 -15  -5   5 297.688 99.7129   1
 -15   5   5 580.801 108.081   1
 -15   5   4 1610.16 155.890   1
 -15  -5   4 1710.63 195.689   1
 -15  -5   3 1731.26 192.072   1
 -15   5   3 1468.11 143.580   1
 -15  -5   2 5070.61 316.724   1
 -15   5   2 4856.91 240.322   1
 -15   5   1 14515.2 399.661   1
 -15  -5   1 15425.2 542.079   1
 -15  -5   0 8272.16 437.255   3
 -15   5   0 9165.76 308.772   1
  15  -5   1-76.2385 100.122   2
 -15  -5  -1-6.16224 84.5972   3
  15  -5   2 6373.76 385.209   2
 -15   5  -2 6766.72 312.083   3
 -15  -5  -2 6867.64 411.225   3
  15  -5   3 5281.47 361.470   2
 -15   5  -3 5060.23 274.356   3
 -15  -5  -3 5432.50 372.578   3
  15  -5   4-190.296 121.878   2
 -15  -5  -4-2.86201 91.7966   3
  15  -5   5 3695.25 337.239   2
 -15  -5  -5 4012.29 334.324   3
  15  -5   6 422.982 149.758   2
 -15  -5  -6 478.789 140.154   3
  15  -5   7 1478.12 234.126   2
 -15  -5  -7 1824.33 245.895   3
  15  -5   8 1993.85 283.428   2
 -15  -5  -8 1987.35 263.621   3
 -15  -5  -9 2171.48 283.231   3
 -15   7  19 231.792 134.101   1
 -15  -7  19 304.769 142.781   1
 -15   7  18 1370.88 233.638   1
 -15  -7  18 1335.34 223.672   1
 -15   7  17 346.056 144.081   1
 -15  -7  17 268.000 108.649   1
 -15   7  16 191.752 116.835   1
 -15  -7  16 361.528 130.309   1
 -15  -7  15 1674.09 231.657   1
 -15   7  15 1382.84 212.026   1
 -15  -7  14 6.08314 99.1413   1
 -15   7  14-109.807 112.452   1
 -15  -7  13 4604.53 353.502   1
 -15   7  13 4662.30 351.210   1
 -15  -7  12 13026.6 567.229   1
 -15   7  12 11747.6 525.404   1
 -15  -7  11 370.992 121.631   1
 -15   7  11 315.128 112.145   1
 -15   7  10 4666.15 318.431   1
 -15  -7  10 4709.81 335.780   1
 -15   7   9 160.973 100.947   1
 -15  -7   9 95.4210 95.2251   1
 -15  -7   8 416.901 119.424   1
 -15   7   8 439.035 106.272   1
 -15  -7   7 4698.32 333.001   1
 -15   7   7 4643.55 281.426   1
 -15  -7   6 8713.44 439.655   1
 -15   7   6 8246.17 356.557   1
 -15  -7   5 484.014 128.108   1
 -15   7   5 649.245 113.426   1
 -15  -7   4 13460.9 543.748   1
 -15   7   4 14023.4 428.896   1
 -15   7   3 976.984 122.784   1
 -15  -7   3 1285.72 180.108   1
 -15  -7   2 820.248 153.664   1
 -15   7   2 1099.32 115.550   1
 -15   7   1 4489.76 212.570   1
 -15  -7   1 3801.05 313.647   3
 -15  -7   0 1166.13 182.857   3
 -15   7   0 1165.57 105.201   1
 -15  -7  -1 813.952 164.123   3
 -15  -7  -2 877.987 181.452   3
 -15  -7  -3 3252.12 305.884   3
  15  -7   4 1382.54 214.206   2
 -15  -7  -4 1528.89 225.899   3
  15  -7   5 1392.31 233.734   2
 -15  -7  -5 1580.61 242.421   3
  15  -7   6 1677.29 255.496   2
 -15  -7  -6 1735.54 251.803   3
  15  -7   7 812.498 192.666   2
 -15  -7  -7 942.621 204.716   3
 -15  -7  -8 736.158 178.533   3
 -15  -7  -9 981.942 205.450   3
 -15  -9  19 1844.00 263.982   1
 -15  -9  18 728.249 173.501   1
 -15   9  18 867.312 202.678   1
 -15  -9  17-45.7026 121.073   1
 -15   9  17 284.005 152.341   1
 -15   9  16 2629.69 296.991   1
 -15  -9  16 2386.21 276.761   1
 -15  -9  15 1889.70 254.102   1
 -15   9  15 2006.36 260.891   1
 -15  -9  14 96.4120 105.445   1
 -15   9  14 93.4571 108.046   1
 -15   9  13 1785.20 232.609   1
 -15  -9  13 1777.91 242.224   1
 -15   9  12 8849.12 474.771   1
 -15  -9  12 9598.55 502.792   1
 -15  -9  11 156.477 107.095   1
 -15   9  11 98.0034 95.6715   1
 -15  -9  10 689.191 150.370   1
 -15   9  10 574.948 123.431   1
 -15  -9   9 2421.00 259.534   1
 -15   9   9 2112.58 216.316   1
 -15  -9   8 265.058 118.106   1
 -15   9   8 137.607 74.3555   1
 -15  -9   7 6425.19 398.096   1
 -15   9   7 6601.03 340.646   1
 -15   9   6 475.297 112.118   1
 -15  -9   6 248.944 119.588   1
 -15  -9   5 356.961 114.217   1
 -15   9   5 346.064 92.6841   1
 -15   9   4 13234.8 415.872   1
 -15  -9   4 13750.9 566.708   1
 -15   9   3 5245.07 250.859   1
 -15  -9   3 5747.93 373.224   1
 -15  -9   2 539.182 151.271   3
 -15   9   2 294.625 70.6271   1
 -15  -9   1 10162.5 518.897   3
 -15  -9   0 1.19864 98.1847   3
 -15  -9  -1-149.431 117.442   3
 -15  -9  -2 4478.32 366.521   3
 -15  -9  -3 1821.24 253.475   3
 -15  -9  -4 161.760 131.446   3
 -15  -9  -5 4721.60 392.325   3
  15  -9   6 743.740 197.267   2
 -15  -9  -6 849.322 196.036   3
 -15  -9  -7 1126.23 219.928   3
 -15 -11  18 1258.41 230.058   1
 -15 -11  17 32.0288 103.844   1
 -15  11  17 97.6251 117.949   1
 -15 -11  16 576.580 171.638   1
 -15  11  16 742.981 185.388   1
 -15 -11  15 4527.48 382.617   1
 -15  11  15 4613.88 390.718   1
 -15  11  14 303.207 146.811   1
 -15 -11  14 335.087 134.627   1
 -15 -11  13 2364.94 281.451   1
 -15  11  13 2210.87 264.155   1
 -15 -11  12 7014.25 450.595   1
 -15  11  12 6784.72 425.829   1
 -15 -11  11 156.511 111.168   1
 -15  11  11 266.688 116.966   1
 -15 -11  10 3252.18 308.552   1
 -15  11  10 3616.06 300.909   1
 -15  11   9 7364.83 403.066   1
 -15 -11   9 8224.93 474.633   1
 -15 -11   8 169.684 106.269   1
 -15  11   8 36.1466 78.6534   1
 -15 -11   7 173.795 115.155   1
 -15  11   7 246.833 95.2585   1
 -15 -11   6 5698.76 392.669   1
 -15  11   6 5172.73 298.275   1
 -15 -11   5 1631.06 224.032   1
 -15  11   5 1974.55 179.023   1
 -15 -11   4 8356.82 474.336   3
 -15 -11   4 6710.83 418.903   1
 -15  11   4 7778.25 323.426   1
 -15 -11   3 822.829 178.893   3
 -15  11   3 883.378 115.674   1
 -15 -11   2 403.667 130.323   3
 -15 -11   1 9279.28 517.838   3
 -15 -11   0 1323.96 216.875   3
 -15 -11  -1 1739.28 237.927   3
 -15 -11  -2 6960.19 463.459   3
 -15 -11  -3 3170.07 331.204   3
 -15 -11  -4 900.113 202.991   3
 -15 -11  -5 2970.47 329.898   3
 -15 -13  16 1635.01 258.302   1
 -15  13  16 1829.38 271.299   1
 -15 -13  15 1467.00 237.555   1
 -15 -13  14 886.299 198.914   1
 -15  13  14 59.8107 111.792   1
 -15  13  13 910.137 186.879   1
 -15 -13  13 783.508 181.017   1
 -15 -13  12 804.753 180.117   1
 -15  13  12 767.166 177.960   1
 -15 -13  11-18.9404 98.1736   1
 -15  13  11-3.24566 96.2598   1
 -15  13  10 3552.04 306.329   1
 -15 -13  10 2981.76 306.352   1
 -15 -13   9 1908.47 249.787   1
 -15  13   9 2247.80 241.329   1
 -15 -13   8 440.005 145.245   1
 -15  13   8 34.2162 77.9382   1
 -15  13   7 2331.80 221.665   1
 -15 -13   7 2177.18 259.628   1
 -15 -13   6 585.108 160.845   1
 -15  13   6 350.632 108.716   1
 -15  13   5 185.630 77.9766   1
 -15 -13   5-72.6675 125.152   3
 -15 -13   4 3857.22 343.730   3
 -15 -13   3 1557.78 232.242   3
 -15 -13   2 379.643 143.850   3
 -15 -13   1 4123.10 362.534   3
 -15 -13   0 1069.82 205.356   3
 -15 -13  -1 331.541 141.271   3
 -15 -13  -2 1166.93 230.788   3
 -15 -13  -3 1632.14 255.276   3
 -15 -15  13 2115.09 280.504   1
 -15 -15  12 1302.90 230.088   1
 -15 -15  11 205.305 120.909   1
 -15 -15  10 2575.07 299.957   1
 -15  15  10 3256.89 303.861   1
 -15  15   9 2354.39 255.923   1
 -15 -15   9 2695.47 310.915   1
 -15 -15   8-239.020 134.777   1
 -15  15   8 170.393 102.293   1
 -15 -15   7 3471.88 335.386   3
 -15  15   7 3809.45 295.650   1
 -15 -15   7 3297.77 323.154   1
 -15 -15   6 3029.09 320.073   3
 -15  15   6 3297.54 264.482   1
 -15 -15   5 699.321 169.051   3
 -15 -15   4 5105.46 400.961   3
 -15 -15   3 899.232 201.747   3
 -15 -15   2 211.735 138.534   3
 -15 -15   1 5176.92 424.301   3
 -15 -15   0 363.108 150.846   3
 -15 -17  10 1005.32 202.291   3
 -15 -17   9 2171.32 277.584   3
 -15 -17   8 2037.72 271.929   3
 -15  17   8 2489.49 268.200   1
 -15 -17   7 1405.37 233.204   3
 -15 -17   6 1696.02 253.463   3
 -15 -17   5 79.2789 117.355   3
 -15 -17   4 2508.66 305.061   3
 -16   0  20 1949.35 274.365   1
 -16   0  19-82.2543 115.495   1
 -16   0  18 1086.85 197.612   1
 -16   0  17 71.9230 96.7114   1
 -16   0  16 6550.55 434.313   1
 -16   0  15 138.129 122.403   1
 -16   0  14 14148.0 595.390   1
 -16   0  13 90.9333 107.014   1
 -16   0  12 1675.12 209.133   1
 -16   0  11-28.5793 88.1895   1
 -16   0  10 272.603 99.3898   1
 -16   0   9-39.1240 84.6511   1
 -16   0   8 753.479 142.233   1
 -16   0   7 54.1720 80.3307   1
  16   0  -6 4792.46 188.165   2
 -16   0   6 4823.81 297.472   1
 -16   0   5 3.95557 70.7331   1
  16   0  -5-30.2733 45.4590   2
  16   0  -4 678.485 96.2116   2
 -16   0   4 888.290 132.236   1
 -16   0   3-30.8076 70.0461   1
  16   0  -3-2.11600 55.2726   2
  16   0  -2 8889.09 360.590   2
 -16   0   2 9616.25 399.120   1
 -16   0   1-5.59748 75.2018   1
  16   0  -1-10.9519 70.1053   2
  16   0   0 50.5143 63.8606   2
 -16   0   0 22.2262 63.6135   1
 -16   0  -1 1.29715 80.8785   3
  16   0   1-19.7535 70.7036   2
 -16   0  -2 272.974 113.764   3
  16   0   2 144.532 101.121   2
 -16   0  -3-62.9110 79.0144   3
  16   0   3 179.459 113.928   2
  16   0   4 14516.2 607.718   2
 -16   0  -4 15163.1 571.883   3
  16   0   5 117.494 121.282   2
 -16   0  -5-87.3972 81.1712   3
  16   0   6 8528.20 507.757   2
 -16   0  -6 8585.66 451.415   3
  16   0   7-20.8948 116.949   2
  16   0   8-18.7878 116.823   2
 -16  -2  20-98.6354 117.661   1
 -16   2  19 1037.65 199.501   1
 -16  -2  19 943.482 195.777   1
 -16   2  18 204.414 125.117   1
 -16  -2  18 178.694 123.034   1
 -16  -2  17 3965.60 352.067   1
 -16   2  17 4037.42 354.084   1
 -16   2  16 151.363 118.597   1
 -16  -2  16-37.5233 93.7088   1
 -16   2  15 866.603 171.777   1
 -16  -2  15 686.304 159.064   1
 -16   2  14 64.2435 89.7389   1
 -16  -2  14 328.184 128.854   1
 -16  -2  13 5257.80 363.964   1
 -16   2  13 4797.19 356.150   1
 -16   2  12 1595.16 208.196   1
 -16  -2  12 1428.51 202.319   1
 -16   2  11 9687.25 456.853   1
 -16  -2  11 9580.46 467.396   1
 -16   2  10 1196.95 168.186   1
 -16  -2  10 1437.35 190.579   1
 -16   2   9 2439.61 238.495   1
 -16  -2   9 1948.79 209.166   1
 -16  -2   8 186.223 94.9393   1
  16  -2  -8 51.8893 29.9045   2
 -16   2   8 77.4808 76.2415   1
  16  -2  -7-7.36140 34.0628   2
 -16  -2   7 49.4773 71.9562   1
 -16   2   7 102.561 79.5265   1
  16  -2  -6 209.167 57.9497   2
 -16  -2   6 184.377 88.0143   1
 -16   2   6 114.473 71.5524   1
 -16  -2   5 18970.2 591.610   1
  16  -2  -5 16470.4 417.196   2
 -16   2   5 18204.9 540.212   1
  16  -2  -4 106.099 62.5650   2
 -16  -2   4 187.065 97.3184   1
 -16   2   4 129.647 63.4779   1
 -16   2   3 4253.13 261.758   1
  16  -2  -3 4401.09 250.460   2
 -16  -2   3 4041.59 277.753   1
  16  -2  -2 134.791 71.8487   2
 -16   2   2 219.891 84.5631   1
  16   2  -2 72.3146 55.0289   2
 -16  -2   2 141.516 87.2199   1
 -16  -2   1 168.969 75.9195   1
  16  -2  -1 198.028 79.4592   2
  16   2  -1 407.175 108.460   2
  16  -2  -1 127.634 63.4151   1
 -16   2   1 240.923 73.5249   1
  16  -2   0 3147.20 247.305   2
 -16  -2   0 3062.48 272.108   3
  16   2   0 3217.52 246.896   2
 -16   2   0 3545.15 223.559   1
  16  -2   1 8749.56 427.190   2
 -16   2  -1 8822.72 409.204   3
 -16  -2  -1 8828.80 444.996   3
  16   2   1 9488.74 428.909   2
  16  -2   2 370.741 113.292   2
 -16   2  -2 297.743 98.4624   3
 -16  -2  -2 306.663 118.625   3
  16   2   2 510.089 126.469   2
  16  -2   3 2034.06 235.609   2
 -16   2  -3 2071.54 207.638   3
 -16  -2  -3 2193.55 239.563   3
  16   2   3 2065.73 231.410   2
  16  -2   4 350.646 127.319   2
 -16  -2  -4 540.170 139.195   3
 -16   2  -4 511.886 128.943   3
  16   2   4 424.748 136.501   2
  16  -2   5-143.520 106.523   2
 -16  -2  -5 24.4623 88.5239   3
  16   2   5 27.5362 94.2330   2
  16  -2   6 322.586 134.823   2
  16   2   6 399.164 146.428   2
 -16  -2  -6 65.2960 106.947   3
  16  -2   7 4530.01 391.972   2
  16   2   7 4552.11 389.292   2
 -16  -2  -7 4483.55 354.552   3
  16  -2   8 79.1243 105.071   2
 -16   4  19 1.63402 104.475   1
 -16  -4  19-22.6060 112.942   1
 -16   4  18 355.557 140.280   1
 -16  -4  18 457.091 156.937   1
 -16   4  17-109.018 116.367   1
 -16  -4  17-55.2217 106.858   1
 -16  -4  16 5565.16 402.007   1
 -16   4  16 5566.15 406.802   1
 -16   4  15 1176.01 198.690   1
 -16  -4  15 1370.96 216.399   1
 -16  -4  14 3949.23 327.164   1
 -16   4  14 4170.32 334.586   1
 -16   4  13 155.882 84.1644   1
 -16  -4  13 135.695 100.090   1
 -16  -4  12 2165.52 240.606   1
 -16   4  12 2163.78 234.689   1
 -16  -4  11-95.9681 88.6552   1
 -16   4  11-133.182 99.1338   1
 -16  -4  10 312.575 122.093   1
 -16   4  10 241.370 108.820   1
 -16  -4   9 716.458 141.843   1
 -16   4   9 865.389 144.451   1
 -16   4   8 12103.7 464.301   1
 -16  -4   8 12650.7 519.759   1
 -16   4   7 381.828 108.153   1
 -16  -4   7 292.436 113.525   1
 -16  -4   6 3354.76 272.370   1
 -16   4   6 3769.73 254.780   1
 -16  -4   5 243.556 106.391   1
 -16   4   5 164.514 86.0972   1
 -16  -4   4 872.653 146.656   1
 -16   4   4 605.854 103.658   1
 -16   4   3 237.557 63.6285   1
 -16  -4   3 370.676 108.144   1
  16  -4  -2 12909.5 468.409   2
 -16   4   2 14566.4 447.776   1
 -16  -4   2 14896.3 542.349   1
  16  -4  -1 2106.73 206.225   2
 -16  -4   1 2134.08 210.163   1
 -16   4   1 2160.00 171.801   1
  16  -4   0 471.680 124.569   2
 -16  -4   0 583.493 143.781   3
 -16   4   0 324.234 85.2781   1
  16  -4   1 91.5880 91.4172   2
 -16   4  -1 80.0264 76.0600   3
 -16  -4  -1 199.937 110.101   3
  16  -4   2 1435.23 201.198   2
 -16   4  -2 1343.65 165.770   3
 -16  -4  -2 1116.68 190.456   3
  16  -4   3-57.9322 102.168   2
 -16   4  -3 39.2537 67.6764   3
 -16  -4  -3-76.2957 102.118   3
  16  -4   4 4759.12 374.263   2
 -16  -4  -4 4666.57 357.528   3
  16  -4   5 101.181 93.5674   2
 -16  -4  -5 139.505 106.123   3
  16  -4   6 7058.25 472.080   2
 -16  -4  -6 7475.93 460.313   3
  16  -4   7 98.6949 135.879   2
 -16  -4  -7 246.704 135.326   3
 -16  -4  -8 298.568 139.786   3
 -16  -6  19 988.289 198.189   1
 -16   6  19 1057.31 207.292   1
 -16  -6  18 119.691 111.526   1
 -16   6  18-15.4502 107.873   1
 -16  -6  17 1511.96 233.742   1
 -16   6  17 1469.28 228.462   1
 -16  -6  16 178.091 111.623   1
 -16   6  16 30.7027 109.268   1
 -16   6  15 331.282 129.605   1
 -16  -6  15 159.736 106.310   1
 -16   6  14-31.0326 89.0104   1
 -16  -6  14 77.5890 103.412   1
 -16  -6  13 8968.79 489.191   1
 -16   6  13 8281.79 459.844   1
 -16   6  12-116.639 107.010   1
 -16  -6  12 84.6008 86.6342   1
 -16  -6  11 3610.42 309.287   1
 -16   6  11 3077.31 273.989   1
 -16   6  10 1249.83 179.470   1
 -16  -6  10 1245.44 189.108   1
 -16   6   9 7653.41 389.325   1
 -16  -6   9 7598.88 425.343   1
 -16   6   8 267.421 103.653   1
 -16  -6   8 128.560 85.8672   1
 -16   6   7 3821.63 261.200   1
 -16  -6   7 4377.34 317.282   1
 -16   6   6 74.7064 70.1300   1
 -16  -6   6 12.6909 82.7747   1
 -16   6   5 18464.5 526.858   1
 -16  -6   5 18794.0 644.841   1
 -16   6   4 1387.95 149.740   1
 -16  -6   4 1251.76 174.653   1
 -16  -6   3 12344.0 523.603   1
 -16   6   3 11990.7 393.148   1
 -16  -6   2 1140.84 175.593   1
 -16   6   2 1146.44 126.635   1
 -16  -6   1 600.744 152.986   3
 -16   6   1 876.150 110.897   1
 -16  -6   0 25.3260 86.7949   3
  16  -6   1 9096.64 465.787   2
 -16   6  -1 8738.61 361.801   3
 -16  -6  -1 9668.89 504.413   3
  16  -6   2 160.087 108.908   2
 -16  -6  -2 160.110 111.624   3
  16  -6   3 1611.37 223.817   2
 -16  -6  -3 2110.56 253.751   3
  16  -6   4 562.135 159.718   2
 -16  -6  -4 611.088 171.672   3
  16  -6   5 314.842 124.480   2
 -16  -6  -5 421.689 140.126   3
  16  -6   6 54.2453 118.096   2
 -16  -6  -6 77.8389 126.026   3
  16  -6   7 2154.59 293.082   2
 -16  -6  -7 2273.68 284.757   3
 -16  -6  -8-77.8183 124.191   3
 -16  -8  18 125.884 112.117   1
 -16   8  18 158.129 118.125   1
 -16  -8  17-13.3128 105.198   1
 -16   8  17 4.25363 119.776   1
 -16  -8  16 1578.93 233.982   1
 -16   8  16 1572.27 240.595   1
 -16  -8  15 222.003 124.846   1
 -16   8  15 356.891 139.945   1
 -16   8  14 6507.85 439.236   1
 -16  -8  14 6980.02 450.078   1
 -16  -8  13 3.77581 91.8624   1
 -16   8  13 141.001 109.227   1
 -16  -8  12 1041.72 190.959   1
 -16   8  12 1076.33 181.370   1
 -16   8  11 477.849 134.638   1
 -16  -8  11 376.433 131.045   1
 -16   8  10 1147.04 168.757   1
 -16  -8  10 1436.38 207.207   1
 -16   8   9-4.80359 81.2168   1
 -16  -8   9 287.099 123.454   1
 -16  -8   8 5042.33 361.250   1
 -16   8   8 4487.02 296.470   1
 -16  -8   7 4620.59 346.696   1
 -16   8   7 4529.67 287.939   1
 -16   8   6 7814.81 357.816   1
 -16  -8   6 6953.85 420.809   1
 -16  -8   5 444.869 122.028   1
 -16   8   5 440.848 103.626   1
 -16   8   4 2602.38 194.009   1
 -16  -8   4 3326.09 288.667   1
 -16   8   3-64.6088 59.3195   1
 -16  -8   3-25.4289 86.7597   1
 -16  -8   2 10326.3 528.185   3
 -16   8   2 9623.86 327.189   1
 -16  -8   1 1782.43 231.438   3
 -16  -8   0 1998.31 252.766   3
 -16  -8  -1 70.9011 99.1912   3
 -16  -8  -2 90.2487 97.8255   3
 -16  -8  -3 60.4693 105.524   3
  16  -8   4 6305.12 457.025   2
 -16  -8  -4 6444.74 453.409   3
  16  -8   5-57.4842 121.044   2
 -16  -8  -5 132.710 110.247   3
  16  -8   6 3899.80 382.329   2
 -16  -8  -6 3981.57 372.291   3
 -16  -8  -7 284.115 157.366   3
 -16  10  17 4678.02 412.601   1
 -16 -10  17 4441.69 391.991   1
 -16 -10  16 140.856 126.665   1
 -16  10  16 60.9916 113.877   1
 -16 -10  15 272.575 145.985   1
 -16  10  15-112.126 117.879   1
 -16 -10  14 442.629 148.806   1
 -16  10  14 68.6569 110.147   1
 -16 -10  13 5925.55 428.294   1
 -16  10  13 5156.09 383.000   1
 -16 -10  12 167.209 117.630   1
 -16  10  12-62.3322 87.8148   1
 -16 -10  11 6121.53 421.299   1
 -16  10  11 6079.35 395.558   1
 -16 -10  10 92.4078 104.382   1
 -16  10  10 20.5148 81.4642   1
 -16 -10   9 322.485 133.745   1
 -16  10   9 275.186 104.901   1
 -16  10   8 565.111 131.564   1
 -16 -10   8 649.047 159.570   1
 -16 -10   7 1859.65 231.438   1
 -16  10   7 1480.43 174.891   1
 -16  10   6 118.596 79.2814   1
 -16 -10   6 56.5312 92.2027   1
 -16  10   5 12978.7 442.497   1
 -16 -10   5 13340.8 593.529   1
 -16  10   4 1146.84 133.567   1
 -16 -10   4 1035.50 181.202   1
 -16 -10   3 3054.61 303.089   3
 -16 -10   2 686.458 168.861   3
 -16 -10   1 670.491 167.023   3
 -16 -10   0 420.977 136.051   3
 -16 -10  -1 5900.31 432.063   3
 -16 -10  -2 112.723 125.362   3
 -16 -10  -3 4563.56 391.563   3
 -16 -10  -4 678.290 183.641   3
 -16 -10  -5 184.286 141.239   3
 -16 -12  16 1893.45 273.987   1
 -16  12  16 1739.10 266.097   1
 -16 -12  15 89.0128 115.559   1
 -16  12  15-8.97432 111.578   1
 -16 -12  14 5215.16 414.598   1
 -16  12  14 4793.29 397.165   1
 -16 -12  13 673.365 165.665   1
 -16  12  13 440.472 150.382   1
 -16  12  12 2088.91 254.191   1
 -16 -12  12 1695.04 244.485   1
 -16 -12  11-32.4523 107.970   1
 -16  12  11 102.409 98.0237   1
 -16  12  10 2421.31 258.159   1
 -16 -12  10 2864.85 307.409   1
 -16 -12   9 86.7830 102.958   1
 -16  12   9 184.385 104.886   1
 -16 -12   8 6023.60 424.179   1
 -16  12   8 5825.53 352.554   1
 -16  12   7 1105.68 158.959   1
 -16 -12   7 989.099 190.937   1
 -16 -12   6 1011.85 196.604   1
 -16  12   6 1513.91 172.072   1
 -16  12   5 127.033 74.4840   1
 -16 -12   5 101.755 98.0792   3
 -16 -12   5-125.157 125.278   1
 -16 -12   4 206.890 128.381   3
 -16 -12   3 183.016 114.410   3
 -16 -12   2 7278.67 477.507   3
 -16 -12   1-28.6087 119.971   3
 -16 -12   0 2069.33 268.359   3
 -16 -12  -1 2060.68 271.529   3
 -16 -12  -2 1119.18 216.741   3
 -16  14  15 2.02415 128.058   1
 -16  14  14 2.23457 121.797   1
 -16 -14  13 789.377 186.518   1
 -16  14  13 558.203 164.716   1
 -16 -14  12 66.1662 113.405   1
 -16  14  12 20.3470 102.669   1
 -16 -14  11 4558.76 391.954   1
 -16  14  11 4419.05 362.434   1
 -16 -14  10 35.8635 103.850   1
 -16  14  10 286.774 131.249   1
 -16 -14   9 1172.13 210.810   1
 -16  14   9 1777.98 223.219   1
 -16 -14   8-39.0259 115.762   1
 -16  14   8 158.295 98.9318   1
 -16 -14   7 2680.07 303.892   1
 -16  14   7 2273.71 225.657   1
 -16 -14   6 285.600 133.034   3
 -16 -14   5 7400.06 488.264   3
 -16 -14   4 274.893 137.481   3
 -16 -14   3 1743.86 257.400   3
 -16 -14   2 237.258 148.144   3
 -16 -14   1-78.8759 115.585   3
 -16  16  13-114.757 131.075   1
 -16  16  12 363.762 149.801   1
 -16  16  11 245.706 136.420   1
 -16  16  10 520.521 157.203   1
 -16 -16   9 297.840 137.337   3
 -16  16   9 715.857 165.072   1
 -16 -16   8 6782.93 484.024   3
 -16 -16   7-28.7351 110.613   3
 -16 -16   6 1831.86 266.470   3
 -16  18  12 28.8438 129.929   1
 -16  18  11 1926.01 277.472   1
 -17   1  19 507.416 152.228   1
 -17  -1  19 506.869 157.301   1
 -17   1  18 1355.28 227.978   1
 -17  -1  18 1530.10 241.096   1
 -17   1  17 155.106 122.329   1
 -17  -1  17 181.394 110.101   1
 -17   1  16 1115.20 195.549   1
 -17  -1  16 1212.84 208.253   1
 -17   1  15 5998.16 407.785   1
 -17  -1  15 6243.00 425.678   1
 -17   1  14 235.977 130.265   1
 -17  -1  14 323.187 138.332   1
 -17   1  13 1432.94 209.899   1
 -17  -1  13 1585.57 215.463   1
 -17   1  12 5957.75 373.771   1
 -17  -1  12 5865.43 382.301   1
 -17   1  11 232.828 111.778   1
 -17  -1  11 298.879 120.205   1
 -17   1  10 8611.85 435.580   1
 -17  -1  10 8090.13 427.565   1
 -17   1   9 1503.19 194.131   1
 -17  -1   9 1456.96 191.120   1
 -17  -1   8 59.1616 82.0056   1
 -17   1   8 14.8390 78.3110   1
  17  -1  -7 4904.09 187.154   2
 -17   1   7 5964.04 342.273   1
 -17  -1   7 6140.03 359.059   1
  17  -1  -6 3101.10 170.762   2
 -17   1   6 3642.72 265.901   1
 -17  -1   6 3619.43 270.990   1
  17  -1  -5 578.025 91.1709   2
 -17   1   5 386.375 97.7222   1
 -17  -1   5 486.786 124.144   1
 -17   1   4 7944.46 377.496   1
  17  -1  -4 7582.40 311.875   2
 -17  -1   4 7875.23 387.206   1
  17   1  -4 7517.55 300.323   2
  17  -1  -3 4541.72 259.927   2
 -17   1   3 5247.26 302.676   1
  17   1  -3 4544.10 251.521   2
 -17  -1   3 5143.34 314.212   1
  17  -1  -2 36.5941 59.8317   2
  17   1  -2 195.158 73.1226   2
 -17   1   2 190.483 84.5966   1
 -17  -1   2-101.347 82.5793   1
 -17  -1   1 325.763 93.3400   1
  17  -1  -1 163.920 72.4523   2
 -17   1   1 360.179 89.4214   1
  17   1  -1 291.573 96.2968   2
 -17   1   0 179.118 90.0952   3
 -17  -1   0 40.6846 98.0621   3
  17  -1   0 193.615 87.1180   2
  17   1   0 321.189 103.460   2
 -17   1  -1 969.167 157.729   3
 -17  -1  -1 1060.13 179.224   3
  17  -1   1 855.232 153.703   2
  17   1   1 923.984 158.243   2
  17  -1   2 2437.70 247.068   2
 -17   1  -2 2746.00 247.196   3
 -17  -1  -2 2660.67 256.718   3
  17   1   2 2597.96 255.613   2
  17  -1   3 3198.89 297.204   2
 -17   1  -3 2945.20 264.841   3
 -17  -1  -3 3374.81 294.603   3
  17   1   3 3249.29 291.456   2
  17  -1   4 223.093 119.738   2
 -17  -1  -4 194.905 109.610   3
 -17   1  -4 263.414 100.265   3
  17   1   4 303.697 115.924   2
  17  -1   5 4197.38 362.291   2
  17   1   5 4115.27 351.564   2
 -17  -1  -5 4406.16 336.306   3
  17  -1   6 786.371 173.881   2
  17   1   6 1062.57 206.827   2
  17  -1   7 14.3422 103.867   2
  17   1   7 239.785 138.731   2
 -17   3  19 730.051 183.371   1
 -17  -3  19 877.675 202.530   1
 -17   3  18 1413.37 234.196   1
 -17  -3  18 1307.57 230.570   1
 -17   3  17 985.966 200.732   1
 -17  -3  17 1159.09 216.391   1
 -17   3  16 320.801 126.833   1
 -17  -3  16 138.257 115.310   1
 -17  -3  15 2617.49 285.097   1
 -17   3  15 2670.57 285.358   1
 -17   3  14-31.3146 96.8331   1
 -17  -3  14-24.1321 100.240   1
 -17  -3  13 2622.29 268.827   1
 -17   3  13 2487.90 267.851   1
 -17   3  12 1533.27 207.850   1
 -17  -3  12 1843.64 233.243   1
 -17  -3  11 1025.11 175.259   1
 -17   3  11 1375.37 190.478   1
 -17   3  10 3914.49 297.416   1
 -17  -3  10 3872.32 302.738   1
  17  -3  -9 2462.61 120.236   2
 -17   3   9 3731.97 282.030   1
 -17  -3   9 3584.46 287.874   1
  17  -3  -8 180.020 48.3022   2
 -17  -3   8 461.656 119.369   1
 -17   3   8 364.835 113.225   1
  17  -3  -7 6340.10 241.908   2
 -17   3   7 6890.98 358.693   1
 -17  -3   7 7031.77 390.470   1
  17  -3  -6 3868.52 207.663   2
 -17  -3   6 4879.34 329.234   1
 -17   3   6 4566.90 288.658   1
  17  -3  -5 1545.60 144.353   2
 -17  -3   5 1501.13 192.049   1
 -17   3   5 1423.59 161.571   1
  17  -3  -4 2599.51 196.869   2
 -17  -3   4 2548.48 237.719   1
 -17   3   4 2603.88 209.022   1
 -17  -3   3 1867.95 202.729   1
 -17   3   3 2001.45 189.961   1
  17  -3  -3 1503.09 163.235   2
  17  -3  -2 1696.01 183.429   2
 -17   3   2 1592.59 167.305   1
 -17  -3   2 1407.63 174.825   1
 -17  -3   1 52.9685 72.4144   1
  17  -3  -1 208.384 95.9595   2
 -17   3   1 49.5782 67.6850   1
  17  -3   0 1944.61 213.071   2
 -17   3   0 2254.56 179.361   1
 -17  -3   0 1722.38 218.763   3
  17  -3   1 953.542 158.693   2
 -17   3  -1 922.956 151.855   3
 -17  -3  -1 1262.99 196.845   3
  17  -3   2 5760.91 376.586   2
 -17   3  -2 6102.67 348.536   3
 -17  -3  -2 6656.29 416.217   3
  17  -3   3 225.408 123.226   2
 -17  -3  -3 239.575 125.012   3
  17  -3   4 857.054 174.736   2
 -17  -3  -4 759.202 171.477   3
  17  -3   5 3684.61 343.187   2
 -17  -3  -5 3707.98 329.597   3
  17  -3   6 440.039 159.608   2
 -17  -3  -6 456.403 148.787   3
 -17   5  18 756.856 184.692   1
 -17  -5  18 947.778 194.333   1
 -17   5  17 305.869 143.097   1
 -17  -5  17-42.9208 105.979   1
 -17   5  16 183.102 117.842   1
 -17  -5  16 254.019 120.708   1
 -17  -5  15 3388.95 320.797   1
 -17   5  15 3476.48 323.219   1
 -17  -5  14 478.457 140.990   1
 -17   5  14 757.572 160.366   1
 -17  -5  13 758.899 164.103   1
 -17   5  13 949.307 173.546   1
 -17  -5  12 856.505 168.373   1
 -17   5  12 727.674 162.313   1
 -17   5  11-116.359 101.147   1
 -17  -5  11-107.768 101.685   1
 -17  -5  10 7170.76 417.561   1
 -17   5  10 7371.53 398.348   1
 -17   5   9 2819.90 245.531   1
 -17  -5   9 2668.14 255.332   1
 -17   5   8 399.844 112.625   1
 -17  -5   8 368.960 119.720   1
 -17   5   7 3624.73 264.585   1
 -17  -5   7 3719.68 302.688   1
 -17   5   6 6895.81 346.284   1
 -17  -5   6 7428.23 409.362   1
 -17  -5   5 121.217 76.6807   1
 -17   5   5 65.7962 63.2525   1
 -17   5   4 6118.93 308.443   1
 -17  -5   4 6432.71 384.441   1
 -17  -5   3 5777.82 367.392   1
 -17   5   3 5543.77 286.614   1
  17  -5  -2 524.623 122.884   2
 -17   5   2 305.102 89.0369   1
 -17  -5   2 75.8702 82.4105   1
  17  -5  -1 3194.88 263.341   2
 -17  -5   1 3385.24 306.685   3
 -17   5   1 3227.70 209.005   1
  17  -5   0 4470.86 320.615   2
 -17  -5   0 4780.62 362.422   3
  17  -5   1 120.674 85.9211   2
 -17   5  -1 13.0239 70.1008   3
  17  -5   2 1351.04 205.787   2
 -17  -5  -2 1440.22 215.639   3
  17  -5   3 2056.61 255.435   2
 -17  -5  -3 2261.14 268.352   3
  17  -5   4 521.167 149.573   2
 -17  -5  -4 910.665 187.273   3
  17  -5   5 3680.65 348.342   2
 -17  -5  -5 4012.44 358.722   3
  17  -5   6 680.941 173.336   2
 -17  -5  -6 654.848 167.721   3
 -17  -5  -7 121.461 113.106   3
 -17   7  18 1536.56 254.925   1
 -17  -7  18 1919.98 273.843   1
 -17   7  17 268.353 133.481   1
 -17  -7  17-16.7990 111.521   1
 -17   7  16 93.3992 116.598   1
 -17  -7  16 83.0490 98.6264   1
 -17   7  15 1897.90 255.992   1
 -17  -7  15 1847.17 244.087   1
 -17   7  14 653.989 159.335   1
 -17  -7  14 596.464 161.778   1
 -17  -7  13 2072.61 255.407   1
 -17   7  13 1916.37 236.295   1
 -17   7  12 882.761 164.389   1
 -17  -7  12 1046.40 188.417   1
 -17   7  11 240.571 106.244   1
 -17  -7  11 320.990 121.568   1
 -17   7  10 1457.66 189.517   1
 -17  -7  10 1370.72 197.693   1
 -17  -7   9 882.984 177.690   1
 -17   7   9 787.714 145.191   1
 -17  -7   8 1040.74 178.560   1
 -17   7   8 869.588 143.778   1
 -17   7   7 9433.46 412.944   1
 -17  -7   7 9767.11 494.796   1
 -17   7   6 6078.10 324.483   1
 -17  -7   6 6251.65 398.082   1
 -17   7   5 200.052 78.4873   1
 -17  -7   5 52.1545 84.8420   1
 -17  -7   4 3852.57 315.320   1
 -17   7   4 4107.90 250.718   1
 -17  -7   3 1456.36 199.850   1
 -17   7   3 1157.19 136.171   1
 -17  -7   2-30.7351 98.3590   3
 -17  -7   1 3277.30 312.571   3
 -17  -7   0 4367.72 357.062   3
  17  -7   1 1061.68 183.190   2
 -17  -7  -1 1242.43 209.473   3
  17  -7   2 1434.25 218.632   2
 -17  -7  -2 1269.83 218.503   3
  17  -7   3 501.568 153.611   2
 -17  -7  -3 461.368 156.125   3
  17  -7   4 922.390 192.523   2
 -17  -7  -4 839.992 197.854   3
  17  -7   5 4180.05 385.526   2
 -17  -7  -5 4457.05 391.109   3
 -17  -7  -6 183.420 112.344   3
 -17  -9  17 448.274 163.618   1
 -17   9  17 443.854 165.337   1
 -17  -9  16 821.204 193.846   1
 -17   9  16 679.957 183.425   1
 -17  -9  15 1381.42 231.109   1
 -17   9  15 1322.33 222.420   1
 -17  -9  14 685.091 183.253   1
 -17   9  14 370.161 144.775   1
 -17  -9  13 3329.48 325.409   1
 -17   9  13 3795.36 330.763   1
 -17  -9  12 2319.08 276.309   1
 -17   9  12 2177.25 256.226   1
 -17   9  11 476.277 132.260   1
 -17  -9  11 457.642 140.565   1
 -17   9  10 394.885 118.523   1
 -17  -9  10 299.851 133.523   1
 -17  -9   9 2221.46 260.807   1
 -17   9   9 1855.32 211.392   1
 -17  -9   8 434.159 132.097   1
 -17   9   8 636.486 130.240   1
 -17  -9   7 2401.57 265.987   1
 -17   9   7 2923.32 237.272   1
 -17   9   6 3175.98 241.526   1
 -17  -9   6 3418.49 311.894   1
 -17   9   5-52.0351 65.2788   1
 -17  -9   5 96.3033 97.2188   1
 -17  -9   4 3085.64 293.336   1
 -17   9   4 2841.11 205.048   1
 -17  -9   3 2940.54 308.634   3
 -17  -9   2 21.4314 104.676   3
 -17  -9   1 233.982 102.727   3
 -17  -9   0 83.3946 102.278   3
 -17  -9  -1 67.4949 100.660   3
 -17  -9  -2 5373.86 422.652   3
 -17  -9  -3 2937.50 321.773   3
  17  -9   4 977.670 198.688   2
 -17  -9  -4 1267.60 227.944   3
 -17  11  16 37.5063 114.906   1
 -17 -11  15 3467.10 353.683   1
 -17  11  15 3082.88 333.450   1
 -17 -11  14 1501.79 242.140   1
 -17  11  14 984.038 207.547   1
 -17 -11  13 1254.99 224.535   1
 -17  11  13 1333.42 212.740   1
 -17 -11  12 2355.78 287.656   1
 -17  11  12 2632.80 282.512   1
 -17 -11  11 126.297 118.298   1
 -17  11  11 84.3023 98.6638   1
 -17  11  10 732.945 153.402   1
 -17 -11  10 622.235 158.988   1
 -17  11   9 3556.69 289.339   1
 -17 -11   9 3931.74 352.642   1
 -17  11   8 927.143 158.177   1
 -17 -11   8 1162.28 206.800   1
 -17 -11   7 2128.67 258.926   1
 -17  11   7 2580.01 231.439   1
 -17 -11   6 3906.41 344.824   1
 -17  11   6 3501.66 251.719   1
 -17 -11   5 472.417 143.327   1
 -17 -11   4 2199.98 276.562   3
 -17 -11   3 2038.47 263.621   3
 -17 -11   2 11.2585 100.535   3
 -17 -11   1 563.038 144.845   3
 -17 -11   0 2645.75 306.825   3
 -17 -11  -1-96.9681 122.562   3
 -17 -11  -2 1286.63 240.162   3
 -17  13  15 1705.17 263.468   1
 -17  13  14-198.289 134.049   1
 -17 -13  13 1015.03 210.390   1
 -17  13  13 1305.96 222.792   1
 -17 -13  12 690.140 172.887   1
 -17  13  12 423.783 145.350   1
 -17 -13  11 370.365 147.495   1
 -17  13  11 306.697 133.741   1
 -17 -13  10 4649.15 398.454   1
 -17  13  10 4849.50 361.481   1
 -17 -13   9 1286.93 224.247   1
 -17  13   9 1496.70 207.734   1
 -17  13   8 57.4292 86.3481   1
 -17 -13   8-95.8850 127.356   1
 -17  13   7 925.887 151.261   1
 -17 -13   7 624.092 164.123   1
 -17 -13   6 1163.98 208.787   3
 -17 -13   6 1702.90 246.204   1
 -17 -13   5 172.906 121.693   3
 -17 -13   4 1530.82 232.389   3
 -17 -13   3 1185.17 220.266   3
 -17 -13   2-18.4482 125.686   3
 -17 -13   1 1860.92 275.277   3
 -17  15  14 534.136 180.706   1
 -17  15  13 632.489 185.299   1
 -17  15  12 1216.27 220.794   1
 -17  15  11 270.694 138.565   1
 -17  15  10 571.500 161.033   1
 -17  15   9 3457.03 307.161   1
 -17  17  12 521.430 176.275   1
 -18   0  18 38.0648 103.700   1
 -18   0  17-25.8438 98.6645   1
 -18   0  16 4223.60 366.623   1
 -18   0  15-55.5932 95.7652   1
 -18   0  14 4511.93 356.017   1
 -18   0  13 0.58793 90.4441   1
 -18   0  12 802.974 160.398   1
 -18   0  11-37.1776 85.8867   1
 -18   0  10 6213.39 383.723   1
 -18   0   9-69.9317 98.7034   1
 -18   0   8 11878.3 506.821   1
 -18   0   7 18.9842 83.6623   1
 -18   0   6 5471.99 339.532   1
  18   0  -5 101.815 62.0988   2
 -18   0   5 275.843 116.958   1
 -18   0   4 5200.97 321.235   1
  18   0  -4 4250.39 242.573   2
 -18   0   3 12.5582 72.9438   1
  18   0  -3 80.8981 70.0502   2
 -18   0   2 663.636 125.099   1
  18   0  -2 715.225 121.173   2
  18   0  -1 11.2436 69.3005   2
 -18   0   1 6.66349 71.6459   1
 -18   0   0 6833.40 404.806   3
  18   0   0 6696.14 379.525   2
 -18   0  -1 50.6547 94.3372   3
  18   0   1-57.3216 95.7981   2
 -18   0  -2 129.721 99.1233   3
  18   0   2 6.89439 83.5556   2
 -18   0  -3 78.1738 96.3132   3
  18   0   3-58.5301 92.5253   2
  18   0   4 6239.85 431.392   2
  18   0   5 37.1861 110.440   2
  18   0   6 1197.42 215.820   2
 -18   2  18-18.9980 104.308   1
 -18  -2  18 84.0147 107.608   1
 -18  -2  17 3366.33 336.702   1
 -18   2  17 3361.77 336.547   1
 -18   2  16 21.9079 97.3523   1
 -18  -2  16 54.3589 104.667   1
 -18   2  15 49.8418 106.537   1
 -18  -2  15 5.02768 99.0416   1
 -18   2  14-58.7262 98.6910   1
 -18  -2  14-1.35277 95.3188   1
 -18   2  13 1469.07 210.258   1
 -18  -2  13 1581.69 223.697   1
 -18   2  12 600.495 141.769   1
 -18  -2  12 440.827 135.962   1
 -18   2  11 17025.6 636.608   1
 -18  -2  11 17486.6 656.364   1
 -18  -2  10 343.294 133.316   1
 -18   2  10 188.041 108.439   1
 -18  -2   9 296.951 92.0054   1
 -18   2   9 417.224 111.670   1
 -18  -2   8 765.877 142.387   1
 -18   2   8 817.866 149.964   1
 -18   2   7 2890.62 244.749   1
 -18  -2   7 2950.57 259.173   1
 -18  -2   6 245.754 110.599   1
 -18   2   6 97.2389 78.4094   1
  18  -2  -6 124.252 53.8402   2
  18  -2  -5 13604.3 413.634   2
 -18  -2   5 15726.5 575.400   1
 -18   2   5 14951.7 522.724   1
 -18  -2   4 239.071 102.297   1
  18  -2  -4 294.030 89.9711   2
 -18   2   4 450.552 113.422   1
 -18  -2   3 3147.36 266.354   1
  18  -2  -3 3020.78 226.658   2
 -18   2   3 3419.73 250.581   1
  18  -2  -2 319.451 100.748   2
 -18   2   2 118.657 77.9624   1
 -18  -2   2 87.0959 81.9801   1
 -18  -2   1 74.5374 94.4041   3
  18  -2  -1 42.5118 68.2528   2
 -18   2   1 71.9416 66.9302   1
 -18   2   0 79.8098 81.2819   3
 -18  -2   0 158.754 108.142   3
  18  -2   0 137.760 92.7539   2
  18  -2   1 9751.58 481.190   2
 -18   2  -1 9776.63 465.954   3
 -18  -2  -1 9999.22 508.379   3
 -18   2  -2 158.510 101.188   3
 -18  -2  -2 264.691 124.669   3
  18  -2   2 268.428 115.208   2
 -18  -2  -3 3050.88 296.881   3
  18  -2   4-84.9049 116.683   2
 -18  -2  -4 144.285 114.467   3
  18  -2   5-87.1571 120.634   2
 -18  -2  -5 87.3715 116.368   3
  18  -2   6-106.665 118.405   2
 -18   4  18-6.64319 114.488   1
 -18  -4  18-137.876 117.328   1
 -18   4  17 196.358 140.202   1
 -18  -4  17-32.9783 119.451   1
 -18  -4  16 2702.10 307.892   1
 -18   4  16 2577.34 292.844   1
 -18   4  15 141.906 97.1524   1
 -18  -4  15 144.757 116.108   1
 -18  -4  14 2506.73 278.196   1
 -18   4  14 2255.86 265.336   1
 -18  -4  13 91.2698 99.7486   1
 -18   4  13-41.7522 101.545   1
 -18   4  12 3261.51 295.206   1
 -18  -4  12 3058.96 301.398   1
 -18  -4  11-106.613 108.195   1
 -18   4  11-15.5591 89.1067   1
 -18   4  10 1877.26 215.776   1
 -18  -4  10 2155.09 239.492   1
 -18  -4   9 256.585 98.5398   1
 -18   4   9 530.926 135.081   1
 -18  -4   8 14279.6 585.925   1
 -18   4   8 13989.7 533.440   1
 -18  -4   7 273.447 121.674   1
  18  -4  -7 95.4364 59.5145   2
 -18   4   7 46.1484 83.5234   1
  18  -4  -6 1647.42 150.606   2
 -18  -4   6 1950.05 221.353   1
 -18   4   6 1809.73 186.518   1
 -18  -4   5 979.049 158.380   1
  18  -4  -5 826.751 123.390   2
 -18   4   5 997.696 147.867   1
  18  -4  -4 608.301 115.635   2
 -18   4   4 745.377 126.730   1
 -18  -4   4 1047.67 165.851   1
 -18   4   3 221.518 86.6542   1
  18  -4  -3 58.9445 70.8800   2
 -18  -4   3-20.9781 87.2791   1
  18  -4  -2 3428.53 264.444   2
 -18  -4   2 3835.72 293.422   1
 -18   4   2 3804.95 247.105   1
  18  -4  -1 391.726 109.122   2
 -18  -4   1 679.632 175.867   3
  18  -4   0 2846.78 268.347   2
 -18   4   0 3103.33 254.425   3
 -18  -4   0 3321.06 309.945   3
  18  -4   1 1201.77 188.784   2
 -18  -4  -1 1491.42 222.411   3
  18  -4   2 699.573 156.450   2
 -18  -4  -2 596.470 164.817   3
  18  -4   3-52.6213 110.003   2
 -18  -4  -3 109.975 119.270   3
 -18  -4  -4 6155.33 436.039   3
  18  -4   5 262.508 133.311   2
 -18  -4  -5 98.6670 105.396   3
 -18  -4  -6 1382.93 236.238   3
 -18  -6  17 1646.39 247.192   1
 -18   6  17 1795.17 257.859   1
 -18  -6  16 10.4308 106.905   1
 -18   6  16-31.4432 113.218   1
 -18   6  15-46.9215 100.576   1
 -18  -6  15-81.4992 122.520   1
 -18   6  14-18.5062 96.6578   1
 -18  -6  14 75.4635 104.596   1
 -18   6  13 264.299 106.681   1
 -18  -6  13 568.270 152.634   1
 -18   6  12 316.293 109.557   1
 -18  -6  12 284.337 128.304   1
 -18  -6  11 3886.30 334.423   1
 -18   6  11 3929.63 315.033   1
 -18   6  10-5.54767 81.7460   1
 -18  -6  10-122.585 109.916   1
 -18   6   9 2327.95 230.583   1
 -18  -6   9 2248.16 257.974   1
 -18   6   8 1506.84 188.250   1
 -18  -6   8 1905.11 235.718   1
 -18   6   7 8554.19 403.057   1
 -18  -6   7 9152.70 482.820   1
 -18  -6   6-105.118 111.081   1
 -18   6   6 153.877 89.3682   1
 -18  -6   5 4415.69 342.559   1
 -18   6   5 4305.94 276.671   1
 -18  -6   4 1752.03 217.877   1
 -18   6   4 1579.53 164.167   1
 -18   6   3 3992.90 245.863   1
 -18  -6   3 3731.95 309.252   1
  18  -6  -2 52.2286 80.3923   2
 -18  -6   2 129.920 134.874   3
  18  -6  -1 2920.52 273.913   2
 -18  -6   1 3013.47 307.940   3
  18  -6   0 1388.05 195.651   2
 -18  -6   0 1712.27 241.460   3
  18  -6   1 5007.13 370.660   2
 -18  -6  -1 5357.50 404.080   3
  18  -6   2-51.3825 94.7192   2
 -18  -6  -2 5.01281 103.555   3
  18  -6   3 3312.96 326.716   2
 -18  -6  -3 3609.35 353.138   3
  18  -6   4 338.492 156.466   2
 -18  -6  -4 57.9469 111.905   3
  18  -6   5 88.0962 107.358   2
 -18  -6  -5 25.8380 110.674   3
 -18  -6  -6-180.256 156.284   3
 -18   8  17-75.6954 126.619   1
 -18   8  16 1163.21 211.183   1
 -18  -8  16 1383.70 235.249   1
 -18   8  15 234.501 127.918   1
 -18  -8  15 613.137 171.685   1
 -18   8  14 8021.42 490.546   1
 -18  -8  14 8494.99 516.454   1
 -18   8  13 155.951 117.710   1
 -18  -8  13 148.453 124.339   1
 -18   8  12 549.087 147.899   1
 -18  -8  12 426.480 150.457   1
 -18  -8  11-20.4778 102.925   1
 -18   8  11 163.012 102.521   1
 -18  -8  10 1593.40 230.522   1
 -18   8  10 1192.89 177.624   1
 -18   8   9 61.7000 83.5725   1
 -18  -8   9 273.756 121.522   1
 -18   8   8 5807.56 347.981   1
 -18  -8   8 5954.79 408.916   1
 -18   8   7 993.367 149.635   1
 -18  -8   7 623.839 152.633   1
 -18  -8   6 2672.25 282.829   1
 -18   8   6 2468.77 215.851   1
 -18  -8   5 482.775 138.397   1
 -18   8   5 404.598 98.9501   1
 -18  -8   4 2522.75 264.651   1
 -18  -8   3 129.549 105.617   3
 -18  -8   2 1641.87 236.202   3
 -18  -8   1 841.066 188.056   3
 -18  -8   0 2618.56 298.327   3
  18  -8   1 356.558 146.646   2
 -18  -8  -1 172.316 130.160   3
  18  -8   2 147.864 104.593   2
 -18  -8  -2 253.401 130.272   3
  18  -8   3 242.196 133.025   2
 -18  -8  -3 279.381 145.105   3
  18  -8   4 3844.23 377.873   2
 -18  10  16 99.4597 120.835   1
 -18  10  15 32.5926 113.954   1
 -18 -10  14 128.742 124.828   1
 -18  10  14 73.8672 121.993   1
 -18  10  13 1177.51 211.641   1
 -18 -10  13 1074.32 215.066   1
 -18  10  12 291.449 125.171   1
 -18 -10  12 390.536 136.321   1
 -18 -10  11 4299.89 379.956   1
 -18  10  11 4489.11 351.596   1
 -18  10  10 101.092 93.5276   1
 -18 -10  10 21.2155 121.315   1
 -18  10   9 84.5685 87.0475   1
 -18 -10   9-42.9643 105.789   1
 -18  10   8 32.3071 80.3908   1
 -18 -10   8 53.2505 93.7168   1
 -18  10   7 1925.20 200.081   1
 -18 -10   7 2634.60 287.699   1
 -18  10   6-13.1030 71.1493   1
 -18 -10   6-74.5084 103.509   1
 -18 -10   5 5421.86 401.094   1
 -18 -10   4 24.3711 103.277   3
 -18 -10   3 1690.16 253.131   3
 -18 -10   2-16.2839 114.965   3
 -18 -10   1 105.218 114.059   3
 -18 -10   0-78.0359 109.146   3
 -18 -10  -1 3127.89 335.808   3
  18 -10   3 2606.90 313.646   2
 -18  12  15-262.915 155.358   1
 -18  12  14 2837.61 322.770   1
 -18  12  13 199.874 131.120   1
 -18 -12  12 41.1200 107.039   1
 -18  12  12 403.898 143.285   1
 -18  12  11 1538.27 223.811   1
 -18 -12  11 1369.62 240.953   1
 -18  12  10 3280.13 297.644   1
 -18 -12  10 3908.92 370.473   1
 -18  12   9 115.125 94.2288   1
 -18 -12   9 3.08913 110.330   1
 -18 -12   8 3530.55 347.336   1
 -18  12   8 3698.81 292.847   1
 -18 -12   7 170.165 124.245   1
 -18 -12   6 867.508 187.789   1
 -18 -12   5 10.1590 114.361   3
 -18 -12   4 1388.61 234.189   3
 -18 -12   3 18.0483 112.841   3
 -18  14  14 15.4023 116.100   1
 -18  14  13-5.51896 119.999   1
 -18  14  12 557.835 166.101   1
 -18  14  11 4233.50 358.617   1
 -18  14  10 256.945 131.918   1
 -19   1  17 203.294 117.983   1
 -19  -1  17 99.5003 121.057   1
 -19   1  16 361.837 157.110   1
 -19  -1  16 173.152 122.191   1
 -19   1  15 2853.62 302.155   1
 -19  -1  15 2628.93 296.905   1
 -19   1  14-1.90512 103.200   1
 -19  -1  14-99.1764 102.527   1
 -19   1  13 1838.95 241.317   1
 -19  -1  13 1790.92 234.089   1
 -19   1  12 6821.64 427.559   1
 -19  -1  12 6728.99 431.219   1
 -19  -1  11 993.029 174.731   1
 -19   1  11 939.187 173.842   1
 -19  -1  10 174.229 99.4608   1
 -19   1  10 313.130 124.904   1
 -19   1   9 2092.66 231.731   1
 -19  -1   9 1950.80 225.960   1
 -19   1   8 580.551 132.464   1
 -19  -1   8 596.574 147.267   1
 -19   1   7 3236.09 272.681   1
 -19  -1   7 3553.06 292.692   1
 -19  -1   6 6700.16 390.348   1
 -19   1   6 6259.12 361.058   1
 -19   1   5 529.425 128.771   1
 -19  -1   5 395.573 120.755   1
 -19   1   4 2066.01 210.532   1
 -19  -1   4 2238.70 225.476   1
 -19  -1   3 159.001 93.7502   1
  19  -1  -3 3.87481 70.2502   2
 -19   1   3 121.171 83.0097   1
 -19  -1   2 74.6282 76.6883   1
 -19   1   2 44.1522 76.8528   1
  19  -1  -2-50.5275 72.4596   2
 -19  -1   1 3516.99 309.387   3
  19  -1  -1 3029.90 261.260   2
 -19   1   1 3158.48 247.672   1
  19   1  -1 3476.88 275.032   2
 -19   1   0 2542.59 259.479   3
 -19  -1   0 2557.87 271.145   3
  19  -1   0 2789.48 257.748   2
  19   1   0 2372.12 239.146   2
 -19   1  -1-28.5829 102.659   3
 -19  -1  -1-12.8337 97.6130   3
  19  -1   1 63.8290 90.9778   2
  19   1   1-77.4866 87.4589   2
 -19  -1  -2 3210.75 305.463   3
  19  -1   2 3249.12 307.080   2
  19   1   2 3081.48 296.457   2
 -19  -1  -3 1437.47 216.040   3
  19  -1   3 1417.44 222.419   2
  19   1   3 1773.21 245.747   2
  19  -1   4 102.453 110.995   2
  19   1   4 98.0836 111.623   2
  19  -1   5 947.958 200.318   2
  19   1   5 980.164 203.096   2
 -19   3  17 748.190 184.350   1
 -19  -3  17 591.631 172.997   1
 -19   3  16 252.256 133.136   1
 -19  -3  16 209.657 120.126   1
 -19   3  15 1952.39 264.256   1
 -19  -3  15 1753.52 249.918   1
 -19   3  14-116.647 113.040   1
 -19  -3  14-50.7289 96.1558   1
 -19   3  13 3650.43 323.809   1
 -19  -3  13 3149.34 316.029   1
 -19   3  12 4368.22 342.812   1
 -19  -3  12 4329.05 359.189   1
 -19  -3  11 85.3455 93.9934   1
 -19   3  11 373.049 122.571   1
 -19  -3  10 517.976 141.619   1
 -19   3  10 696.622 150.928   1
 -19   3   9 6712.94 391.498   1
 -19  -3   9 7153.50 426.005   1
 -19  -3   8 630.430 149.823   1
 -19   3   8 383.825 112.069   1
 -19  -3   7 3111.40 287.039   1
 -19   3   7 2793.96 247.611   1
 -19  -3   6 2331.30 247.741   1
 -19   3   6 2287.52 220.142   1
 -19  -3   5 234.087 114.407   1
 -19   3   5 131.914 85.2943   1
 -19  -3   4 2298.24 241.869   1
  19  -3  -4 2203.81 196.594   2
 -19   3   4 2498.89 225.893   1
  19  -3  -3 1573.41 178.877   2
 -19  -3   3 1987.83 221.896   1
 -19   3   3 1846.22 195.228   1
  19  -3  -2 703.762 131.821   2
 -19  -3   2 644.523 142.705   1
  19  -3  -1 5228.27 344.283   2
 -19  -3   1 5727.32 410.727   3
  19  -3   0 4222.36 327.054   2
 -19   3   0 4092.95 311.657   3
 -19  -3   0 4430.53 365.743   3
  19  -3   1 49.8502 89.9258   2
 -19  -3  -1 42.5256 100.089   3
  19  -3   2 2259.99 261.462   2
 -19  -3  -2 2237.80 264.905   3
  19  -3   3 1172.96 204.364   2
 -19  -3  -3 1188.04 206.505   3
  19  -3   4 88.6057 116.906   2
 -19  -3  -4 173.433 140.966   3
  19  -3   5 385.995 156.238   2
 -19   5  17 389.744 146.301   1
 -19  -5  16 361.456 147.871   1
 -19   5  16 542.111 168.736   1
 -19  -5  15 2344.66 288.952   1
 -19   5  15 2480.17 294.565   1
 -19  -5  14 58.8951 109.115   1
 -19   5  14-119.053 115.746   1
 -19  -5  13 136.113 98.7339   1
 -19   5  13 144.285 95.7690   1
 -19   5  12 1488.05 208.922   1
 -19  -5  12 1547.95 226.003   1
 -19   5  11-4.80350 87.7348   1
 -19  -5  11-223.175 127.603   1
 -19   5  10 3749.20 302.535   1
 -19  -5  10 3983.39 337.383   1
 -19  -5   9 3090.97 307.232   1
 -19   5   9 2317.13 241.185   1
 -19  -5   8 2245.08 256.346   1
 -19   5   8 1941.28 214.541   1
 -19  -5   7 1672.37 222.172   1
 -19   5   7 1536.88 183.392   1
 -19   5   6 2267.72 216.796   1
 -19  -5   6 2545.94 270.166   1
  19  -5  -5 105.002 72.8224   2
 -19   5   5 30.5808 69.1607   1
 -19  -5   5 32.5695 86.1322   1
 -19   5   4 2781.06 223.115   1
  19  -5  -4 2164.36 206.534   2
 -19  -5   4 2566.95 263.748   1
  19  -5  -3 517.840 118.050   2
 -19  -5   3 534.046 141.119   1
  19  -5  -2 188.137 95.9595   2
 -19  -5   2-29.8431 101.180   3
 -19  -5   1 1119.56 202.658   3
  19  -5   0 1259.14 196.584   2
 -19  -5   0 1269.64 216.685   3
  19  -5   1-93.1738 114.155   2
 -19  -5  -1 74.8863 107.955   3
  19  -5   2 2091.83 257.543   2
 -19  -5  -2 2137.89 270.085   3
  19  -5   3 704.202 179.405   2
 -19  -5  -3 479.310 173.872   3
  19  -5   4-116.192 112.668   2
 -19  -5  -4-65.6822 120.798   3
 -19   7  16 97.0704 115.495   1
 -19  -7  15 3460.31 348.671   1
 -19   7  15 3658.92 348.412   1
 -19   7  14 20.9883 101.906   1
 -19  -7  14 197.300 118.017   1
 -19   7  13 912.048 178.615   1
 -19  -7  13 1074.10 204.980   1
 -19   7  12 110.551 90.8777   1
 -19  -7  12 678.047 167.435   1
 -19   7  11 296.282 120.979   1
 -19  -7  11 369.573 144.465   1
 -19  -7  10 1575.51 234.019   1
 -19   7  10 1528.21 205.826   1
 -19   7   9 3239.58 273.566   1
 -19  -7   9 3484.97 328.909   1
 -19   7   8 613.206 135.679   1
 -19  -7   8 870.277 178.701   1
 -19   7   7 3088.57 256.647   1
 -19  -7   7 3383.05 314.255   1
 -19  -7   6 720.290 164.873   1
 -19   7   6 598.481 121.331   1
 -19   7   5 160.325 78.8932   1
 -19  -7   5 36.4910 92.5382   1
 -19  -7   4 2325.74 268.069   1
 -19  -7   3 311.740 143.367   3
  19  -7  -2 115.858 82.5448   2
 -19  -7   2 162.741 113.209   3
  19  -7  -1 4282.25 337.262   2
 -19  -7   1 4852.70 397.707   3
  19  -7   0 1104.97 185.580   2
 -19  -7   0 1393.78 242.216   3
  19  -7   1-131.559 120.697   2
 -19  -7  -1 74.1044 108.443   3
  19  -7   2 1731.84 249.492   2
 -19  -7  -2 1732.14 259.414   3
 -19  -7  -3 963.127 206.608   3
 -19   9  16 295.655 150.744   1
 -19   9  15 1726.17 253.577   1
 -19   9  14 160.157 125.786   1
 -19  -9  14 235.347 143.708   1
 -19  -9  13 90.2231 117.249   1
 -19   9  13 194.812 121.725   1
 -19  -9  12 5836.81 435.847   1
 -19   9  12 5449.31 396.609   1
 -19   9  11 392.693 133.399   1
 -19  -9  11 714.234 176.088   1
 -19   9  10 413.554 123.530   1
 -19  -9  10 536.217 160.723   1
 -19  -9   9 898.128 184.860   1
 -19   9   9 827.201 152.337   1
 -19   9   8-130.788 108.522   1
 -19  -9   8-73.6103 110.903   1
 -19  -9   7 2110.73 270.189   1
 -19   9   7 2285.39 224.627   1
 -19  -9   6 2119.37 264.611   1
 -19  -9   5 107.979 98.7560   1
 -19  -9   4 1412.68 236.112   3
 -19  -9   3 2498.25 300.744   3
 -19  -9   2 1110.69 224.276   3
 -19  -9   1 1523.27 250.987   3
 -19  -9   0 772.937 189.251   3
  19  -9   1 39.7414 103.462   2
  19  -9   2 2628.98 310.642   2
 -19  11  15 762.192 187.621   1
 -19  11  14 38.8238 110.553   1
 -19  11  13 1373.43 224.292   1
 -19  11  12 166.879 106.119   1
 -19  11  11 1237.65 202.588   1
 -19 -11  11 1384.71 244.334   1
 -19  11  10-107.272 111.292   1
 -19 -11  10-168.067 128.790   1
 -19  11   9 1660.63 211.653   1
 -19 -11   9 1962.82 266.555   1
 -19 -11   8 1030.47 200.947   1
 -19 -11   7 1305.82 220.981   1
 -19 -11   6 718.498 176.719   1
 -19 -11   5 150.501 127.172   3
 -19 -11   4 641.529 184.026   3
 -19  13  14 103.855 123.923   1
 -19  13  13 87.2901 108.300   1
 -19  13  12 2648.29 299.641   1
 -19  13  11 28.1524 99.5609   1
 -19  13  10 456.177 136.075   1
 -20   0  16 1035.70 209.372   1
 -20   0  15-5.99022 100.058   1
 -20   0  14 5270.57 403.592   1
 -20   0  13-74.6212 118.759   1
 -20   0  12 294.748 111.313   1
 -20   0  11-71.0504 100.459   1
 -20   0  10 2283.23 254.067   1
 -20   0   9-20.6051 92.7313   1
 -20   0   8 5562.73 367.859   1
 -20   0   7 57.1906 84.8908   1
 -20   0   6 292.824 119.056   1
 -20   0   5-24.5447 77.4904   1
 -20   0   4 63.5298 83.8717   1
 -20   0   3-28.7774 84.5509   1
 -20   0   2 7362.87 395.679   1
 -20   0   1 29.8068 97.8069   3
 -20   0   0 540.337 151.483   3
 -20   0  -1 25.7005 105.279   3
  20   0   2 281.753 124.421   2
  20   0   3 6.62988 112.973   2
 -20   2  16 110.163 129.195   1
 -20  -2  16-22.9363 107.841   1
 -20   2  15 162.340 112.444   1
 -20  -2  15-121.213 118.929   1
 -20   2  14 236.848 129.659   1
 -20  -2  14 73.2679 102.565   1
 -20   2  13 5183.63 391.293   1
 -20  -2  13 5113.03 398.868   1
 -20  -2  12-32.0404 91.6155   1
 -20   2  12 154.771 110.322   1
 -20  -2  11 1583.42 215.102   1
 -20   2  11 1688.09 228.012   1
 -20  -2  10-131.043 112.508   1
 -20   2  10 99.1879 100.010   1
 -20   2   9 146.848 92.5985   1
 -20  -2   9 245.175 112.177   1
 -20   2   8-50.3193 88.1951   1
 -20  -2   8 120.633 103.242   1
 -20  -2   7 2516.72 261.017   1
 -20   2   7 2508.83 244.949   1
 -20  -2   6 190.042 108.376   1
 -20   2   6 131.659 85.3458   1
 -20   2   5 6880.02 379.930   1
 -20  -2   5 6950.00 413.342   1
 -20   2   4 478.133 121.921   1
 -20  -2   4 269.004 107.196   1
 -20   2   3 224.465 99.6244   1
 -20  -2   3 94.3783 86.1841   1
 -20  -2   2 73.0021 87.7000   1
 -20  -2   2 233.846 130.801   3
 -20   2   1 1374.63 196.672   3
 -20  -2   1 1427.92 220.862   3
 -20   2   0-84.6355 108.982   3
 -20  -2   0-144.312 123.555   3
  20  -2   1 5219.42 380.244   2
 -20  -2  -1 5366.82 404.766   3
 -20  -2  -2 54.9893 122.265   3
  20  -2   2 27.5975 97.8483   2
  20  -2   3 591.151 171.847   2
 -20   4  16 2866.45 321.522   1
 -20  -4  15 107.369 124.026   1
 -20   4  15-29.8593 109.865   1
 -20  -4  14 1392.16 238.693   1
 -20   4  14 1362.94 213.804   1
 -20  -4  13-52.6356 117.387   1
 -20   4  13-37.9310 100.456   1
 -20  -4  12-256.932 134.912   1
 -20   4  12 103.595 90.9824   1
 -20  -4  11 123.751 107.400   1
 -20   4  11-40.5161 94.8789   1
 -20   4  10 4119.08 327.826   1
 -20  -4  10 4536.77 360.642   1
 -20   4   9 106.706 93.9622   1
 -20  -4   9 275.636 126.420   1
 -20  -4   8 5096.13 371.165   1
 -20   4   8 4902.77 340.789   1
 -20   4   7 34.9762 84.2974   1
 -20  -4   7-58.7779 87.4197   1
 -20  -4   6 826.513 180.606   1
 -20   4   6 664.670 131.492   1
 -20   4   5 256.354 103.361   1
 -20  -4   5-100.205 109.676   1
 -20  -4   4 312.194 120.556   1
 -20  -4   3-66.5701 99.4423   1
 -20  -4   2 9422.11 533.015   3
  20  -4  -1 208.803 108.732   2
 -20  -4   1 173.806 126.543   3
  20  -4   0 278.751 116.686   2
 -20  -4   0 472.724 141.048   3
  20  -4   1 145.013 105.703   2
 -20  -4  -1 115.217 108.396   3
  20  -4   2 219.277 141.614   2
 -20  -4  -2 133.667 121.636   3
  20  -4   3 169.029 129.460   2
 -20  -4  -3 61.9514 108.636   3
 -20   6  16 383.619 155.704   1
 -20   6  15-127.163 129.832   1
 -20   6  14-103.086 124.675   1
 -20  -6  14-97.0161 116.729   1
 -20   6  13 1231.73 207.808   1
 -20  -6  13 1593.23 243.087   1
 -20   6  12 43.1667 99.7435   1
 -20  -6  12-0.92378 107.398   1
 -20  -6  11 2680.28 297.879   1
 -20   6  11 2474.73 266.124   1
 -20  -6  10 179.380 112.772   1
 -20   6  10 15.7777 96.3740   1
 -20  -6   9 149.426 110.647   1
 -20   6   9 59.3253 87.8106   1
 -20  -6   8 170.124 107.484   1
 -20   6   8 34.8231 94.8958   1
 -20   6   7 1292.22 175.471   1
 -20  -6   7 1535.83 222.447   1
 -20   6   6 49.6869 79.2867   1
 -20  -6   6-80.9576 111.702   1
 -20  -6   5 3135.34 304.639   1
 -20  -6   4-8.52569 99.3546   1
 -20  -6   3 2780.57 306.977   3
 -20  -6   2 464.740 160.851   3
  20  -6  -1 1424.62 204.335   2
 -20  -6   1 1456.44 248.841   3
  20  -6   0-11.9596 92.8663   2
 -20  -6   0-17.5324 115.549   3
  20  -6   1 2232.24 273.661   2
 -20  -6  -1 2460.02 303.221   3
 -20   8  15 179.618 124.801   1
 -20   8  14 1731.03 251.734   1
 -20   8  13 775.481 175.290   1
 -20  -8  13 985.137 212.857   1
 -20  -8  12 540.027 156.245   1
 -20   8  12 264.580 125.409   1
 -20  -8  11 12.8823 98.3611   1
 -20   8  11-221.168 132.821   1
 -20   8  10 1799.14 228.637   1
 -20  -8  10 2150.84 282.270   1
 -20  -8   9 95.1478 100.131   1
 -20   8   9-29.7664 86.3741   1
 -20   8   8 4831.53 336.307   1
 -20  -8   8 4847.82 400.445   1
 -20  -8   7 4.17937 96.5724   1
 -20   8   7 112.490 89.6737   1
 -20  -8   6 966.501 194.790   1
 -20  -8   5 25.7383 103.124   1
 -20  -8   4 813.948 193.178   3
 -20  -8   3 402.076 151.370   3
  20  -8  -2 3621.77 320.890   2
 -20  -8   2 4081.45 384.297   3
  20  -8  -1 214.396 118.378   2
  20  -8   0 667.392 161.063   2
  20  -8   1 151.846 130.231   2
 -20  10  14 252.777 141.516   1
 -20  10  13 1315.93 229.763   1
 -20  10  12 256.813 131.075   1
 -20  10  11 613.656 163.124   1
 -20  10  10-54.6889 93.7879   1
 -20 -10  10 219.769 132.642   1
 -20  10   9-61.3048 92.3003   1
 -20 -10   9 139.605 124.969   1
 -20 -10   8 148.919 115.043   1
 -20 -10   7 702.080 178.685   1
 -20 -10   6 116.614 120.374   1
  20 -10   0 117.517 124.014   2
 -20  12  14 1535.81 255.278   1
 -20  12  13 100.502 122.565   1
 -20  12  12-34.9473 109.162   1
 -20  12  11 133.960 117.359   1
 -21   1  15 2412.62 294.548   1
 -21  -1  15 2165.17 283.613   1
 -21   1  14 709.177 188.710   1
 -21  -1  14 287.205 136.300   1
 -21  -1  13-39.0897 102.947   1
 -21   1  13-14.9354 95.0749   1
 -21  -1  12 535.590 156.418   1
 -21   1  12 591.045 163.296   1
 -21   1  11 478.919 150.789   1
 -21  -1  11 770.641 174.516   1
 -21   1  10 74.1717 97.8041   1
 -21  -1  10 10.3721 98.0952   1
 -21   1   9 580.040 141.310   1
 -21  -1   9 659.840 156.019   1
 -21   1   8 91.9610 96.3500   1
 -21  -1   8 167.505 109.570   1
 -21  -1   7 1247.78 197.148   1
 -21   1   7 1191.76 187.151   1
 -21   1   6 2663.16 262.420   1
 -21  -1   6 2649.59 272.392   1
 -21  -1   5-53.9702 100.527   1
 -21   1   5 77.7705 89.1678   1
 -21  -1   4 95.4977 90.2170   1
 -21   1   4 245.427 106.537   1
 -21  -1   3 1480.10 196.960   1
 -21  -1   2 127.694 109.816   3
 -21   1   1 1549.85 218.102   3
 -21  -1   1 1478.96 221.252   3
 -21  -1   0 667.242 181.272   3
 -21   3  15 585.446 170.693   1
 -21  -3  14 457.119 153.909   1
 -21   3  14 325.740 138.147   1
 -21  -3  13-16.8314 116.476   1
 -21   3  13 249.759 127.581   1
 -21  -3  12 774.482 179.929   1
 -21   3  12 963.483 189.002   1
 -21  -3  11 310.755 134.513   1
 -21   3  11 584.897 147.903   1
 -21  -3  10 399.361 142.875   1
 -21   3  10 201.059 108.930   1
 -21   3   9 1141.20 188.914   1
 -21  -3   9 1292.29 210.524   1
 -21  -3   8 329.436 123.476   1
 -21   3   8 298.434 110.681   1
 -21   3   7 1519.84 200.980   1
 -21  -3   7 1556.37 219.104   1
 -21   3   6 2317.08 239.879   1
 -21  -3   6 1893.82 237.540   1
 -21   3   5 103.666 88.4589   1
 -21  -3   5-16.2927 108.308   1
 -21  -3   4 607.132 156.037   1
 -21  -3   3 4367.23 341.810   1
 -21  -3   2 134.167 125.918   3
 -21  -3   1 564.466 163.886   3
 -21  -3   0 1647.42 257.032   3
 -21  -3  -1-71.9527 105.383   3
 -21   5  15 580.174 170.473   1
 -21   5  14 579.486 169.710   1
 -21   5  13 99.6149 108.348   1
 -21  -5  13 379.887 151.375   1
 -21   5  12 124.775 110.553   1
 -21  -5  12 112.832 120.139   1
 -21   5  11 236.204 116.217   1
 -21  -5  11 131.949 98.7254   1
 -21  -5  10 670.740 179.031   1
 -21   5  10 778.593 166.393   1
 -21  -5   9 2008.32 258.334   1
 -21   5   9 1759.96 220.982   1
 -21   5   8 188.311 101.525   1
 -21  -5   8 166.623 114.081   1
 -21   5   7 952.987 160.014   1
 -21  -5   7 767.915 171.941   1
 -21  -5   6 352.528 142.888   1
 -21  -5   5 100.456 93.0751   1
 -21  -5   4 2356.33 270.608   1
 -21  -5   3 2711.02 316.256   3
 -21  -5   2 407.250 164.073   3
 -21  -5   1 727.480 184.254   3
 -21  -5   0 260.734 136.359   3
 -21   7  15 742.917 184.649   1
 -21   7  14-112.794 122.179   1
 -21   7  13 13.7015 98.4562   1
 -21   7  12 248.707 129.703   1
 -21  -7  11 49.7893 114.806   1
 -21   7  11 64.9161 94.0262   1
 -21  -7  10 942.451 202.498   1
 -21   7  10 798.283 168.158   1
 -21   7   9 1751.41 221.285   1
 -21  -7   9 2033.78 276.389   1
 -21  -7   8 242.607 134.277   1
 -21   7   8 111.370 87.4329   1
 -21  -7   7 640.998 167.364   1
 -21  -7   6 1432.66 228.915   1
 -21  -7   5-37.2799 97.2254   1
 -21  -7   4 1120.70 219.878   3
 -21   9  14 714.140 187.001   1
 -21   9  13 418.692 150.852   1
 -21   9  12 264.474 126.043   1
 -21   9  11 99.9822 108.592   1
 -21   9  10 47.5734 92.1996   1
 -21  -9   7 928.817 208.945   1
 -21  -9   6 1848.05 265.045   1
 -21  11  13 236.187 136.449   1
 -21  11  12 290.103 142.172   1
 -22   0  14 1697.71 260.985   1
 -22   0  13 80.4407 108.369   1
 -22   0  12 242.300 118.139   1
 -22   0  11 79.0824 104.100   1
 -22   0  10 463.135 143.006   1
 -22   0   9 81.1923 103.091   1
 -22   0   8 6040.43 409.945   1
 -22   0   7 85.6528 101.975   1
 -22   0   6 429.384 137.519   1
 -22   0   5 50.2560 96.5123   1
 -22   0   2 2926.03 305.369   3
 -22   2  14 133.342 126.815   1
 -22  -2  13 515.454 153.978   1
 -22   2  13 538.831 165.714   1
 -22  -2  12-119.018 114.397   1
 -22   2  12-64.5426 102.750   1
 -22   2  11 989.801 196.778   1
 -22  -2  11 1037.55 204.765   1
 -22   2  10 183.319 114.342   1
 -22  -2  10 161.559 126.919   1
 -22  -2   9 315.102 127.570   1
 -22   2   9 287.060 124.411   1
 -22  -2   8 60.3297 103.340   1
 -22   2   8 60.4373 98.3743   1
 -22   2   7 1842.95 230.443   1
 -22  -2   7 1663.64 225.644   1
 -22   2   6 220.932 111.267   1
 -22  -2   6-78.6830 109.528   1
 -22  -2   5 602.844 155.881   1
 -22  -2   4 288.574 118.907   1
 -22  -2   3 174.430 132.487   3
 -22  -2   2 250.904 136.121   3
 -22  -2   1 473.948 168.449   3
 -22   4  14 96.7789 105.385   1
 -22   4  13 84.5630 105.425   1
 -22  -4  12-254.147 140.124   1
 -22   4  12 32.5768 96.2341   1
 -22  -4  11 101.807 125.225   1
 -22   4  11-107.420 111.521   1
 -22   4  10 1886.03 233.688   1
 -22  -4  10 2167.94 273.993   1
 -22   4   9 87.9741 101.122   1
 -22  -4   9-36.2419 110.857   1
 -22  -4   8 2026.30 264.488   1
 -22   4   8 1950.06 232.292   1
 -22  -4   7 405.535 139.954   1
 -22  -4   6 619.029 158.054   1
 -22  -4   5-176.838 130.294   1
 -22  -4   4 3455.14 323.363   1
 -22  -4   3 96.3856 131.682   3
 -22   6  14 370.653 143.746   1
 -22   6  13-13.7446 114.241   1
 -22   6  12 0.05490 106.894   1
 -22   6  11 1529.21 228.606   1
 -22  -6  10 140.994 122.291   1
 -22   6  10 191.528 119.099   1
 -22  -6   9 24.8350 104.837   1
 -22   6   9-31.7593 100.226   1
 -22  -6   8 172.159 113.255   1
 -22  -6   7 1359.14 223.318   1
 -22  -6   6-0.69163 102.124   1
 -22  -6   5 2610.33 297.893   1
 -22   8  13 12.6687 107.339   1
 -22   8  12-78.0476 117.258   1
 -22   8  11 129.032 130.233   1
 -23   1  12 386.419 141.415   1
 -23  -1  12 242.532 126.465   1
 -23   1  11 152.403 114.341   1
 -23  -1  11 46.5070 98.1741   1
 -23   1  10 749.817 178.491   1
 -23  -1  10 891.790 192.257   1
 -23  -1   9 1924.42 255.906   1
 -23   1   9 1529.24 225.743   1
 -23   1   8 222.529 123.327   1
 -23  -1   8 180.352 114.243   1
 -23  -1   7 450.860 148.194   1
 -23   1   7 483.875 150.406   1
 -23  -1   6 374.769 133.863   1
 -23  -1   3 915.123 201.529   3
 -23   3  13 285.864 148.750   1
 -23   3  12 498.380 155.265   1
 -23   3  11 112.771 111.450   1
 -23  -3  10 346.833 142.893   1
 -23   3  10 262.071 122.620   1
 -23  -3   9 1182.04 210.521   1
 -23   3   9 1145.07 203.681   1
 -23  -3   8 302.265 133.532   1
 -23  -3   7 752.550 174.674   1
 -23  -3   6 182.160 116.414   1
 -23  -3   5 458.817 134.515   1
 -23   5  13 364.101 153.566   1
 -23   5  12 423.862 155.532   1
 -23   5  11 330.659 136.186   1
 -23   5  10 500.164 155.806   1
 -23  -5   8 218.321 137.610   1
 -23  -5   7 137.391 116.702   1
 -23  -5   6 709.727 186.506   1
 -23  -5   5 181.041 133.709   1
 -23   7  12 635.207 174.242   1
 -24   0  10 1144.82 215.661   1
 -24   0   9 119.220 117.563   1
 -24   0   8 1823.14 254.858   1
 -24   2  11 1786.31 259.453   1
 -24   2  10 37.7411 100.942   1
 -24  -2   8-60.8532 122.501   1
   0   0   0    0.00    0.00   0
 
TITL dsmsalndc2 in C2/c
REM C2/c (#15 in standard setting)
CELL 0.71073  17.513962  18.502117  17.137998  90.0000 114.7833  90.0000
ZERR   10.00   0.001142   0.000921   0.000958   0.0000   0.0075   0.0000
LATT  7
SYMM -x, y,-z+1/2
SFAC C H Li N O Zn
UNIT 100.00 100.00 20.00 50.00 100.00 20.00
TREF
HKLF 4
END
;
_shelx_hkl_checksum              92583
_shelx_fab_file
;
    0    0    4     16.35      0.00
    0    0    6     12.11      0.00
    0    0    8      1.62      0.00
    0    0   10     -4.25      0.00
    0    0   12      1.14      0.00
    0    0   14      3.90      0.00
    0    0   16     -1.04      0.00
    0    0   18     -1.13      0.00
    0    2    2     22.18      0.00
    0    2    3    -26.31      0.00
    0    2    4      1.08      0.00
    0    2    5     -3.22      0.00
    0    2    6      7.77      0.00
    0    2    7      4.46      0.00
    0    2    8      0.07      0.00
    0    2    9      2.67      0.00
    0    2   10     -0.67      0.00
    0    2   11     -2.49      0.00
    0    2   12      1.23      0.00
    0    2   13     -1.59      0.00
    0    2   14     -0.30      0.00
    0    2   15      1.84      0.00
    0    2   16      0.43      0.00
    0    2   17      0.75      0.00
    0    2   18      0.48      0.00
    0    2   19     -1.09      0.00
    0    2   20     -0.43      0.00
    0    4    0    -35.41      0.00
    0    4    1     21.38      0.00
    0    4    2     46.23      0.00
    0    4    3      3.25      0.00
    0    4    4     -7.06      0.00
    0    4    5     -7.94      0.00
    0    4    6     -0.04      0.00
    0    4    7      4.38      0.00
    0    4    8      1.71      0.00
    0    4    9      1.23      0.00
    0    4   10      0.70      0.00
    0    4   11     -0.97      0.00
    0    4   12     -0.40      0.00
    0    4   13     -0.43      0.00
    0    4   14     -0.57      0.00
    0    4   15     -0.71      0.00
    0    4   16      0.09      0.00
    0    4   17     -0.36      0.00
    0    4   18      1.18      0.00
    0    4   19      0.87      0.00
    0    4   20     -0.82      0.00
    0    6    0    -24.58      0.00
    0    6    1    -15.41      0.00
    0    6    2     13.25      0.00
    0    6    3     13.09      0.00
    0    6    4      0.45      0.00
    0    6    5     -7.77      0.00
    0    6    6     -5.40      0.00
    0    6    7      1.57      0.00
    0    6    8      1.43      0.00
    0    6    9      1.70      0.00
    0    6   10      1.23      0.00
    0    6   11     -0.45      0.00
    0    6   12      0.72      0.00
    0    6   13     -0.15      0.00
    0    6   14     -0.63      0.00
    0    6   15     -1.02      0.00
    0    6   16      0.53      0.00
    0    6   17     -0.46      0.00
    0    6   18     -0.68      0.00
    0    6   19      0.10      0.00
    0    8    0     -5.98      0.00
    0    8    1    -17.08      0.00
    0    8    2     -6.49      0.00
    0    8    3      5.63      0.00
    0    8    4      5.69      0.00
    0    8    5      0.47      0.00
    0    8    6     -5.34      0.00
    0    8    7     -1.91      0.00
    0    8    8      0.72      0.00
    0    8    9      0.60      0.00
    0    8   10      1.69      0.00
    0    8   11      0.16      0.00
    0    8   12     -0.76      0.00
    0    8   13      0.99      0.00
    0    8   14      1.11      0.00
    0    8   15     -1.18      0.00
    0    8   16     -0.05      0.00
    0    8   17      0.18      0.00
    0    8   18      0.15      0.00
    0    8   19     -0.33      0.00
    0   10    0      5.24      0.00
    0   10    1     -6.22      0.00
    0   10    2     -8.62      0.00
    0   10    3     -1.90      0.00
    0   10    4      2.32      0.00
    0   10    5      3.48      0.00
    0   10    6      0.46      0.00
    0   10    7     -0.50      0.00
    0   10    8     -0.29      0.00
    0   10    9     -0.12      0.00
    0   10   10      0.28      0.00
    0   10   11      1.49      0.00
    0   10   12     -0.76      0.00
    0   10   13     -0.16      0.00
    0   10   14      1.03      0.00
    0   10   15     -0.37      0.00
    0   10   16     -0.65      0.00
    0   10   17      0.27      0.00
    0   10   18      0.06      0.00
    0   12    1      0.70      0.00
    0   12    2     -3.73      0.00
    0   12    3     -2.83      0.00
    0   12    4      0.32      0.00
    0   12    5      1.84      0.00
    0   12    6      0.58      0.00
    0   12    7      0.30      0.00
    0   12    8      0.61      0.00
    0   12    9      0.60      0.00
    0   12   10     -1.15      0.00
    0   12   11      1.35      0.00
    0   12   12     -0.33      0.00
    0   12   13     -1.06      0.00
    0   12   14      0.79      0.00
    0   12   15      1.44      0.00
    0   12   16     -1.27      0.00
    0   12   17     -1.15      0.00
    0   14    0      2.60      0.00
    0   14    1      2.09      0.00
    0   14    2     -0.42      0.00
    0   14    3     -2.10      0.00
    0   14    4     -0.43      0.00
    0   14    5      0.44      0.00
    0   14    6      1.05      0.00
    0   14    7      0.12      0.00
    0   14    8     -0.03      0.00
    0   14    9      0.94      0.00
    0   14   10     -1.37      0.00
    0   14   11     -0.58      0.00
    0   14   12      1.16      0.00
    0   14   13     -0.02      0.00
    0   14   14     -1.85      0.00
    0   14   15      0.89      0.00
    0   16    0      0.62      0.00
    0   16    1      2.57      0.00
    0   16    2      0.88      0.00
    0   16    3     -1.80      0.00
    0   16    4     -0.55      0.00
    0   16    5     -0.46      0.00
    0   16    6      0.95      0.00
    0   16    7     -0.33      0.00
    0   16    8      0.43      0.00
    0   16    9      1.02      0.00
    0   16   10      0.51      0.00
    0   16   11     -1.26      0.00
    0   16   12     -1.31      0.00
    0   16   13      0.70      0.00
    0   16   14      0.41      0.00
    0   18    0     -2.75      0.00
    0   18    1      0.31      0.00
    0   18    2      2.32      0.00
    0   18    3      0.26      0.00
    0   18    4     -0.30      0.00
    0   18    5     -1.79      0.00
    0   18    6      0.84      0.00
    0   18    7     -0.12      0.00
    0   18    8      0.29      0.00
    0   18    9      0.50      0.00
    0   18   10      0.34      0.00
    0   18   11      0.37      0.00
    0   18   12      0.12      0.00
    0   20    0     -0.63      0.00
    0   20    1     -1.00      0.00
    0   20    2     -0.32      0.00
    0   20    3      0.40      0.00
    0   20    4      1.34      0.00
    0   20    5     -0.64      0.00
    0   20    6     -0.32      0.00
    0   20    7     -0.74      0.00
    0   20    8     -0.41      0.00
    0   20    9      1.13      0.00
    0   20   10      0.79      0.00
    0   22    0     -1.60      0.00
    0   22    1      0.06      0.00
    0   22    2      0.22      0.00
    0   22    3     -0.06      0.00
    0   22    4      0.34      0.00
    0   22    5     -0.02      0.00
    0   22    6      0.08      0.00
    0   22    7      0.13      0.00
    0   22    8     -1.21      0.00
    0   24    2     -0.42      0.00
    0   24    3      0.35      0.00
    0   24    4      0.61      0.00
    0   24    5      0.47      0.00
    0   24    6     -0.35      0.00
   -1    1   20      0.34      0.00
   -1    1   19     -0.82      0.00
   -1    1   18     -0.20      0.00
   -1    1   17     -0.47      0.00
   -1    1   16     -0.99      0.00
   -1    1   15      1.70      0.00
   -1    1   14      0.71      0.00
   -1    1   13      0.17      0.00
   -1    1   12      3.49      0.00
   -1    1   11     -1.13      0.00
   -1    1   10      0.14      0.00
   -1    1    9     -1.75      0.00
   -1    1    8     -1.88      0.00
   -1    1    7      1.24      0.00
   -1    1    6      0.54      0.00
   -1    1    5     10.11      0.00
   -1    1    4     33.99      0.00
   -1    1    3    -27.94      0.00
    1    1    2     11.93      0.00
    1    1    3     -2.58      0.00
    1    1    4     -4.44      0.00
    1    1    5     -2.79      0.00
    1    1    6      4.42      0.00
    1    1    7     -4.11      0.00
    1    1    8      6.20      0.00
    1    1    9      4.41      0.00
    1    1   10     -0.63      0.00
    1    1   11      0.33      0.00
    1    1   12     -1.33      0.00
    1    1   13     -1.92      0.00
    1    1   14      1.11      0.00
    1    1   15      0.49      0.00
    1    1   16      0.51      0.00
    1    1   17      0.85      0.00
    1    1   18     -0.20      0.00
    1    1   19     -0.12      0.00
   -1    3   20     -0.63      0.00
   -1    3   19     -0.16      0.00
   -1    3   18      0.53      0.00
   -1    3   17     -0.42      0.00
   -1    3   16      0.57      0.00
   -1    3   15     -0.44      0.00
   -1    3   14     -0.10      0.00
   -1    3   13      2.14      0.00
   -1    3   12     -0.08      0.00
   -1    3   11     -2.29      0.00
   -1    3   10     -0.20      0.00
   -1    3    9     -1.20      0.00
   -1    3    8      0.27      0.00
   -1    3    7      0.21      0.00
   -1    3    6      6.84      0.00
   -1    3    5     13.66      0.00
   -1    3    4     -5.06      0.00
   -1    3    3    -27.15      0.00
   -1    3    2     44.31      0.00
   -1    3    1     49.07      0.00
    1    3    0     -0.14      0.00
    1    3    1     27.16      0.00
    1    3    2     31.72      0.00
    1    3    3     11.07      0.00
    1    3    4     -0.35      0.00
    1    3    5     -9.41      0.00
    1    3    6      2.13      0.00
    1    3    7     -0.36      0.00
    1    3    8     -1.34      0.00
    1    3    9      1.74      0.00
    1    3   10      1.48      0.00
    1    3   11      1.46      0.00
    1    3   12      0.91      0.00
    1    3   13     -1.46      0.00
    1    3   14     -1.13      0.00
    1    3   15     -0.65      0.00
    1    3   16     -0.38      0.00
    1    3   17      0.93      0.00
    1    3   18      1.47      0.00
    1    3   19     -0.30      0.00
   -1    5   20      0.42      0.00
   -1    5   19     -0.15      0.00
   -1    5   18     -0.54      0.00
   -1    5   17     -0.72      0.00
   -1    5   16      0.49      0.00
   -1    5   15      0.01      0.00
   -1    5   14      0.81      0.00
   -1    5   13     -0.63      0.00
   -1    5   12     -1.47      0.00
   -1    5   11     -0.12      0.00
   -1    5   10     -0.01      0.00
   -1    5    9     -1.02      0.00
   -1    5    8      0.85      0.00
   -1    5    7      5.58      0.00
   -1    5    6      6.71      0.00
   -1    5    5     -5.50      0.00
   -1    5    4    -18.18      0.00
   -1    5    3      5.43      0.00
   -1    5    2     34.81      0.00
   -1    5    1     -0.04      0.00
    1    5    0    -17.48      0.00
    1    5    1     -8.06      0.00
    1    5    2      4.81      0.00
    1    5    3     10.46      0.00
    1    5    4      7.66      0.00
    1    5    5     -2.76      0.00
    1    5    6     -2.20      0.00
    1    5    7     -1.21      0.00
    1    5    8     -0.27      0.00
    1    5    9      0.82      0.00
    1    5   10     -0.54      0.00
    1    5   11      0.77      0.00
    1    5   12      1.71      0.00
    1    5   13     -0.33      0.00
    1    5   14     -0.03      0.00
    1    5   15     -1.03      0.00
    1    5   16     -0.74      0.00
    1    5   17     -1.26      0.00
    1    5   18      0.34      0.00
    1    5   19      1.26      0.00
   -1    7   20     -0.24      0.00
   -1    7   19     -1.01      0.00
   -1    7   18      0.19      0.00
   -1    7   17      0.41      0.00
   -1    7   16      0.62      0.00
   -1    7   15     -1.07      0.00
   -1    7   14      0.01      0.00
   -1    7   13      0.34      0.00
   -1    7   12     -0.19      0.00
   -1    7   11      0.03      0.00
   -1    7   10     -0.18      0.00
   -1    7    9      0.63      0.00
   -1    7    8      3.89      0.00
   -1    7    7      2.80      0.00
   -1    7    6     -4.84      0.00
   -1    7    5    -10.89      0.00
   -1    7    4     -4.02      0.00
   -1    7    3     16.16      0.00
   -1    7    2      6.41      0.00
   -1    7    1    -14.25      0.00
    1    7    0     -9.44      0.00
    1    7    1     -8.49      0.00
    1    7    2     -8.02      0.00
    1    7    3     -1.51      0.00
    1    7    4      4.23      0.00
    1    7    5      0.92      0.00
    1    7    6     -0.62      0.00
    1    7    7      0.27      0.00
    1    7    8     -1.00      0.00
    1    7    9      0.24      0.00
    1    7   10      0.10      0.00
    1    7   11     -1.00      0.00
    1    7   12      1.21      0.00
    1    7   13      0.84      0.00
    1    7   14      0.74      0.00
    1    7   15     -0.54      0.00
    1    7   16      0.26      0.00
    1    7   17     -0.49      0.00
    1    7   18     -0.88      0.00
    1    7   19     -0.53      0.00
   -1    9   19     -0.02      0.00
   -1    9   18      0.45      0.00
   -1    9   17     -0.07      0.00
   -1    9   16     -0.30      0.00
   -1    9   15     -0.27      0.00
   -1    9   14      0.87      0.00
   -1    9   13      0.12      0.00
   -1    9   12     -0.80      0.00
   -1    9   11      0.52      0.00
   -1    9   10     -0.02      0.00
   -1    9    9      1.33      0.00
   -1    9    8      2.42      0.00
   -1    9    7     -0.72      0.00
   -1    9    6     -4.56      0.00
   -1    9    5     -2.82      0.00
   -1    9    4      4.98      0.00
   -1    9    3      6.70      0.00
   -1    9    2     -8.64      0.00
   -1    9    1     -9.74      0.00
    1    9    0     -0.17      0.00
    1    9    1     -4.28      0.00
    1    9    2     -6.08      0.00
    1    9    3     -4.86      0.00
    1    9    4     -0.21      0.00
    1    9    5      3.33      0.00
    1    9    6      1.60      0.00
    1    9    7      0.27      0.00
    1    9    8     -0.69      0.00
    1    9    9      0.18      0.00
    1    9   10      0.57      0.00
    1    9   11     -0.15      0.00
    1    9   12     -0.75      0.00
    1    9   13      0.19      0.00
    1    9   14      1.11      0.00
    1    9   15     -0.18      0.00
    1    9   16      0.39      0.00
    1    9   17      0.13      0.00
    1    9   18     -0.20      0.00
   -1   11   18      0.41      0.00
   -1   11   17     -0.65      0.00
   -1   11   16     -1.02      0.00
   -1   11   15      0.31      0.00
   -1   11   14      0.77      0.00
   -1   11   13     -0.22      0.00
   -1   11   12     -1.01      0.00
   -1   11   11      0.59      0.00
   -1   11   10      0.00      0.00
   -1   11    9      2.87      0.00
   -1   11    8      1.43      0.00
   -1   11    7     -2.48      0.00
   -1   11    6     -2.36      0.00
   -1   11    5      1.64      0.00
   -1   11    4      4.56      0.00
   -1   11    3     -0.49      0.00
   -1   11    2     -7.21      0.00
   -1   11    1     -2.21      0.00
    1   11    0      3.19      0.00
    1   11    1      0.34      0.00
    1   11    2     -1.45      0.00
    1   11    3     -2.33      0.00
    1   11    4     -2.02      0.00
    1   11    5     -0.83      0.00
    1   11    6      1.52      0.00
    1   11    7      4.16      0.00
    1   11    8      0.36      0.00
    1   11    9     -0.76      0.00
    1   11   10     -0.65      0.00
    1   11   11      0.79      0.00
    1   11   12     -0.50      0.00
    1   11   13     -0.12      0.00
    1   11   14      0.62      0.00
    1   11   15     -0.29      0.00
    1   11   16     -0.66      0.00
    1   11   17      0.60      0.00
   -1   13   18     -0.98      0.00
   -1   13   16      0.79      0.00
   -1   13   15      1.53      0.00
   -1   13   14     -0.94      0.00
   -1   13   13     -1.14      0.00
   -1   13   12      0.24      0.00
   -1   13   11      0.98      0.00
   -1   13   10      0.46      0.00
   -1   13    9      1.30      0.00
   -1   13    8     -1.93      0.00
   -1   13    7     -1.49      0.00
   -1   13    6      1.40      0.00
   -1   13    5      2.38      0.00
   -1   13    4      2.01      0.00
   -1   13    3     -3.52      0.00
   -1   13    2     -3.31      0.00
   -1   13    1      1.72      0.00
    1   13    0      2.15      0.00
    1   13    1      1.22      0.00
    1   13    2      1.04      0.00
    1   13    3     -0.40      0.00
    1   13    4      0.16      0.00
    1   13    5     -0.33      0.00
    1   13    6     -2.25      0.00
    1   13    7      0.88      0.00
    1   13    8      1.95      0.00
    1   13    9      1.07      0.00
    1   13   10     -1.59      0.00
    1   13   11      0.20      0.00
    1   13   12      0.03      0.00
    1   13   13     -0.71      0.00
    1   13   14      0.03      0.00
    1   13   15      1.31      0.00
   -1   15   15     -0.79      0.00
   -1   15   14     -0.58      0.00
   -1   15   13      0.71      0.00
   -1   15   12     -0.03      0.00
   -1   15   11     -0.72      0.00
   -1   15   10      0.28      0.00
   -1   15    9      0.26      0.00
   -1   15    8     -0.46      0.00
   -1   15    7     -0.12      0.00
   -1   15    6      1.46      0.00
   -1   15    5      0.86      0.00
   -1   15    4     -0.05      0.00
   -1   15    3     -3.14      0.00
   -1   15    2      0.02      0.00
   -1   15    1      2.03      0.00
    1   15    0      0.89      0.00
    1   15    1      0.80      0.00
    1   15    2      0.82      0.00
    1   15    3     -0.65      0.00
    1   15    4      0.41      0.00
    1   15    5      0.15      0.00
    1   15    6     -0.80      0.00
    1   15    7     -0.47      0.00
    1   15    8      0.72      0.00
    1   15    9      1.32      0.00
    1   15   10     -0.69      0.00
    1   15   11     -1.61      0.00
    1   15   12      0.01      0.00
    1   15   13      0.75      0.00
    1   15   14     -0.99      0.00
   -1   17   13     -0.85      0.00
   -1   17   12     -0.11      0.00
   -1   17   11      0.49      0.00
   -1   17   10      0.96      0.00
   -1   17    9     -0.78      0.00
   -1   17    8     -0.47      0.00
   -1   17    7      0.40      0.00
   -1   17    6      2.10      0.00
   -1   17    5     -0.49      0.00
   -1   17    4     -1.07      0.00
   -1   17    3     -2.02      0.00
   -1   17    2      1.70      0.00
   -1   17    1      1.70      0.00
    1   17    0     -1.46      0.00
    1   17    1      0.29      0.00
    1   17    2      2.09      0.00
    1   17    3     -0.29      0.00
    1   17    4     -0.07      0.00
    1   17    5      0.04      0.00
    1   17    6      0.14      0.00
    1   17    7     -1.71      0.00
    1   17    8      0.37      0.00
    1   17    9      1.56      0.00
    1   17   10      1.17      0.00
    1   17   11     -0.51      0.00
    1   17   12     -1.66      0.00
   -1   19   12      0.41      0.00
   -1   19   11     -0.55      0.00
   -1   19   10     -0.20      0.00
   -1   19    9     -0.30      0.00
   -1   19    8      1.29      0.00
   -1   19    7      0.59      0.00
   -1   19    6     -0.06      0.00
   -1   19    5     -1.43      0.00
   -1   19    4     -0.58      0.00
   -1   19    3      0.27      0.00
   -1   19    2      1.51      0.00
   -1   19    1     -1.14      0.00
    1   19    0     -1.04      0.00
    1   19    1     -2.05      0.00
    1   19    2     -0.09      0.00
    1   19    3      0.92      0.00
    1   19    4      0.99      0.00
    1   19    5     -0.59      0.00
    1   19    6      1.21      0.00
    1   19    7     -0.74      0.00
    1   19    8     -1.07      0.00
    1   19    9      0.47      0.00
    1   19   10      0.60      0.00
    1   19   11      0.66      0.00
   -1   21   10      0.69      0.00
   -1   21    9      0.21      0.00
   -1   21    8     -0.07      0.00
   -1   21    7     -0.91      0.00
   -1   21    6     -0.36      0.00
   -1   21    5     -0.25      0.00
   -1   21    4      0.07      0.00
   -1   21    3      0.60      0.00
   -1   21    2     -0.34      0.00
   -1   21    1     -0.25      0.00
    1   21    0     -0.06      0.00
    1   21    1      0.41      0.00
    1   21    2     -0.72      0.00
    1   21    3     -0.77      0.00
    1   21    4      0.69      0.00
    1   21    5     -0.38      0.00
    1   21    6      0.57      0.00
    1   21    7      0.46      0.00
    1   21    8     -1.10      0.00
    1   21    9      0.21      0.00
   -1   23    7     -0.28      0.00
   -1   23    6     -0.00      0.00
   -1   23    5      0.01      0.00
   -1   23    4      0.26      0.00
   -1   23    3      0.61      0.00
   -1   23    2     -0.39      0.00
   -1   23    1     -0.41      0.00
    1   23    0     -1.29      0.00
    1   23    1     -0.13      0.00
    1   23    2      0.30      0.00
    1   23    3      0.14      0.00
    1   23    4      0.59      0.00
    1   23    5     -0.30      0.00
    1   23    6     -0.64      0.00
    1   25    3     -0.30      0.00
    1   25    4      0.15      0.00
   -2    0   20      0.69      0.00
   -2    0   18      0.26      0.00
   -2    0   16     -0.31      0.00
   -2    0   14     -0.57      0.00
   -2    0   12      1.81      0.00
   -2    0   10      3.70      0.00
   -2    0    8      5.11      0.00
   -2    0    6    -11.94      0.00
   -2    0    4     28.41      0.00
    2    0    2     23.99      0.00
    2    0    4      5.91      0.00
    2    0    6     -9.11      0.00
    2    0    8      6.68      0.00
    2    0   10      2.53      0.00
    2    0   12      0.21      0.00
    2    0   14     -1.43      0.00
    2    0   16      0.19      0.00
    2    0   18      0.49      0.00
   -2    2   21      0.05      0.00
   -2    2   20      0.11      0.00
   -2    2   19     -0.19      0.00
   -2    2   18      0.20      0.00
   -2    2   17     -0.37      0.00
   -2    2   16      0.42      0.00
   -2    2   15     -1.01      0.00
   -2    2   14     -0.38      0.00
   -2    2   13      2.05      0.00
   -2    2   12      1.31      0.00
   -2    2   11      0.37      0.00
   -2    2   10     -0.28      0.00
   -2    2    9      0.10      0.00
   -2    2    8      4.80      0.00
   -2    2    7    -10.54      0.00
   -2    2    6     -4.15      0.00
   -2    2    5     17.19      0.00
   -2    2    4     18.70      0.00
   -2    2    3     -0.54      0.00
   -2    2    2     30.74      0.00
    2    2    1      1.11      0.00
    2    2    2     20.21      0.00
    2    2    3      6.35      0.00
    2    2    4      1.05      0.00
    2    2    5      5.05      0.00
    2    2    6      2.40      0.00
    2    2    7     -7.15      0.00
    2    2    8     -1.74      0.00
    2    2    9      0.39      0.00
    2    2   10      2.47      0.00
    2    2   11      1.86      0.00
    2    2   12      0.44      0.00
    2    2   13      0.53      0.00
    2    2   14     -0.32      0.00
    2    2   15     -0.73      0.00
    2    2   16     -0.21      0.00
    2    2   17      0.47      0.00
    2    2   18     -0.08      0.00
    2    2   19     -0.17      0.00
   -2    4   21     -0.13      0.00
   -2    4   20      0.72      0.00
   -2    4   19     -0.43      0.00
   -2    4   18     -0.18      0.00
   -2    4   17     -0.77      0.00
   -2    4   16     -0.71      0.00
   -2    4   15     -0.63      0.00
   -2    4   14      2.00      0.00
   -2    4   13      0.67      0.00
   -2    4   12     -1.78      0.00
   -2    4   11      0.12      0.00
   -2    4   10      1.33      0.00
   -2    4    9      1.28      0.00
   -2    4    8     -5.21      0.00
   -2    4    7     -6.72      0.00
   -2    4    6     12.81      0.00
   -2    4    5     12.64      0.00
   -2    4    4     -3.35      0.00
   -2    4    3     -1.17      0.00
   -2    4    2     16.39      0.00
   -2    4    1      4.47      0.00
    2    4    0     13.90      0.00
    2    4    1     -4.43      0.00
    2    4    2      0.96      0.00
    2    4    3      6.34      0.00
    2    4    4      4.29      0.00
    2    4    5      1.45      0.00
    2    4    6      2.85      0.00
    2    4    7      0.32      0.00
    2    4    8     -0.98      0.00
    2    4    9     -3.05      0.00
    2    4   10     -0.89      0.00
    2    4   11      1.16      0.00
    2    4   12      0.88      0.00
    2    4   13      0.61      0.00
    2    4   14      0.46      0.00
    2    4   15     -0.59      0.00
    2    4   16     -0.84      0.00
    2    4   17     -0.13      0.00
    2    4   18      0.79      0.00
   -2    6   21      0.09      0.00
   -2    6   20     -0.31      0.00
   -2    6   19     -1.35      0.00
   -2    6   18     -0.10      0.00
   -2    6   17     -0.48      0.00
   -2    6   16      0.71      0.00
   -2    6   15      0.35      0.00
   -2    6   14      0.09      0.00
   -2    6   13     -1.07      0.00
   -2    6   12      0.14      0.00
   -2    6   11      2.15      0.00
   -2    6   10     -0.71      0.00
   -2    6    9     -2.76      0.00
   -2    6    8     -1.81      0.00
   -2    6    7      4.86      0.00
   -2    6    6      7.37      0.00
   -2    6    5     -5.80      0.00
   -2    6    4    -10.68      0.00
   -2    6    3      6.36      0.00
   -2    6    2      5.68      0.00
   -2    6    1      1.88      0.00
    2    6    0      1.58      0.00
    2    6    1     -0.07      0.00
    2    6    2     -8.35      0.00
    2    6    3     -4.87      0.00
    2    6    4     -1.61      0.00
    2    6    5      2.54      0.00
    2    6    6      4.08      0.00
    2    6    7      0.77      0.00
    2    6    8      0.96      0.00
    2    6    9     -1.00      0.00
    2    6   10     -1.89      0.00
    2    6   11     -0.12      0.00
    2    6   12      0.33      0.00
    2    6   13     -0.32      0.00
    2    6   14      1.53      0.00
    2    6   15      0.18      0.00
    2    6   16      0.05      0.00
    2    6   17     -0.91      0.00
    2    6   18     -0.79      0.00
    2    6   19      0.00      0.00
   -2    8   20     -0.41      0.00
   -2    8   19     -0.24      0.00
   -2    8   18      0.51      0.00
   -2    8   17     -0.24      0.00
   -2    8   16      0.09      0.00
   -2    8   15     -0.27      0.00
   -2    8   14      0.06      0.00
   -2    8   13      0.66      0.00
   -2    8   12      0.96      0.00
   -2    8   11      0.17      0.00
   -2    8   10     -1.79      0.00
   -2    8    9     -0.82      0.00
   -2    8    8      1.26      0.00
   -2    8    7      3.94      0.00
   -2    8    6     -0.51      0.00
   -2    8    5     -7.90      0.00
   -2    8    4     -1.27      0.00
   -2    8    3      6.15      0.00
   -2    8    2     -4.66      0.00
   -2    8    1     -0.14      0.00
    2    8    0     -3.96      0.00
    2    8    1      1.41      0.00
    2    8    2     -2.99      0.00
    2    8    3     -3.92      0.00
    2    8    4     -4.16      0.00
    2    8    5     -1.24      0.00
    2    8    6      1.65      0.00
    2    8    7      1.49      0.00
    2    8    8      2.04      0.00
    2    8    9      1.03      0.00
    2    8   10     -1.21      0.00
    2    8   11     -0.89      0.00
    2    8   12      0.31      0.00
    2    8   13     -0.70      0.00
    2    8   14      0.66      0.00
    2    8   15      0.37      0.00
    2    8   16      0.69      0.00
    2    8   17      0.41      0.00
    2    8   18     -0.08      0.00
   -2   10   20     -0.37      0.00
   -2   10   19     -0.08      0.00
   -2   10   18     -0.08      0.00
   -2   10   17     -0.42      0.00
   -2   10   16     -0.04      0.00
   -2   10   15     -0.08      0.00
   -2   10   14      0.38      0.00
   -2   10   13      1.13      0.00
   -2   10   12     -0.59      0.00
   -2   10   11     -1.13      0.00
   -2   10   10     -1.77      0.00
   -2   10    9      1.78      0.00
   -2   10    8      4.69      0.00
   -2   10    7      1.99      0.00
   -2   10    6     -4.33      0.00
   -2   10    5     -4.05      0.00
   -2   10    4      2.56      0.00
   -2   10    3      0.70      0.00
   -2   10    2     -3.87      0.00
   -2   10    1     -0.17      0.00
    2   10    0     -2.45      0.00
    2   10    1      0.12      0.00
    2   10    2     -0.16      0.00
    2   10    3      0.21      0.00
    2   10    4     -3.02      0.00
    2   10    5     -1.76      0.00
    2   10    6      2.47      0.00
    2   10    7      2.01      0.00
    2   10    8     -0.35      0.00
    2   10    9      1.23      0.00
    2   10   10     -0.15      0.00
    2   10   11     -0.03      0.00
    2   10   12      0.09      0.00
    2   10   13     -0.60      0.00
    2   10   14     -0.32      0.00
    2   10   15     -0.02      0.00
    2   10   16      0.47      0.00
    2   10   17      0.31      0.00
   -2   12   19      0.31      0.00
   -2   12   18     -0.63      0.00
   -2   12   17     -0.80      0.00
   -2   12   16     -0.16      0.00
   -2   12   15      0.80      0.00
   -2   12   14      0.50      0.00
   -2   12   13     -0.47      0.00
   -2   12   12     -1.67      0.00
   -2   12   11     -0.17      0.00
   -2   12   10      1.60      0.00
   -2   12    9      3.91      0.00
   -2   12    8      0.31      0.00
   -2   12    7     -2.94      0.00
   -2   12    6     -2.37      0.00
   -2   12    5      0.76      0.00
   -2   12    4      3.82      0.00
   -2   12    3     -1.40      0.00
   -2   12    2     -2.44      0.00
   -2   12    1      0.12      0.00
    2   12    0     -0.43      0.00
    2   12    1      0.82      0.00
    2   12    2      0.79      0.00
    2   12    3      1.92      0.00
    2   12    4      1.21      0.00
    2   12    5     -3.07      0.00
    2   12    6     -2.71      0.00
    2   12    7      3.13      0.00
    2   12    8      1.40      0.00
    2   12    9      1.05      0.00
    2   12   10     -0.86      0.00
    2   12   11     -0.56      0.00
    2   12   12      0.13      0.00
    2   12   13      0.79      0.00
    2   12   14     -0.28      0.00
    2   12   15     -0.81      0.00
    2   12   16     -0.59      0.00
   -2   14   18     -0.59      0.00
   -2   14   16      0.60      0.00
   -2   14   15      0.03      0.00
   -2   14   14     -0.64      0.00
   -2   14   13     -0.48      0.00
   -2   14   12     -0.13      0.00
   -2   14   11      0.65      0.00
   -2   14   10      1.02      0.00
   -2   14    9      0.17      0.00
   -2   14    8     -0.68      0.00
   -2   14    7     -0.92      0.00
   -2   14    6      0.21      0.00
   -2   14    5      2.04      0.00
   -2   14    4      1.23      0.00
   -2   14    3     -3.56      0.00
   -2   14    2      0.20      0.00
   -2   14    1      0.87      0.00
    2   14    0     -0.27      0.00
    2   14    1     -0.21      0.00
    2   14    2      0.34      0.00
    2   14    3      0.35      0.00
    2   14    4      2.30      0.00
    2   14    5      0.94      0.00
    2   14    6     -2.48      0.00
    2   14    7     -0.78      0.00
    2   14    8     -0.20      0.00
    2   14    9      1.18      0.00
    2   14   10      0.03      0.00
    2   14   11     -0.56      0.00
    2   14   12     -0.70      0.00
    2   14   13      0.08      0.00
    2   14   14      0.47      0.00
   -2   16   14     -0.16      0.00
   -2   16   13     -0.71      0.00
   -2   16   12     -0.14      0.00
   -2   16   11      0.12      0.00
   -2   16   10      1.52      0.00
   -2   16    9      0.12      0.00
   -2   16    8     -0.70      0.00
   -2   16    7     -1.34      0.00
   -2   16    6      1.79      0.00
   -2   16    5      1.07      0.00
   -2   16    4     -1.03      0.00
   -2   16    3     -1.58      0.00
   -2   16    2      1.66      0.00
   -2   16    1      0.16      0.00
    2   16    0     -0.76      0.00
    2   16    1      0.05      0.00
    2   16    2      0.74      0.00
    2   16    3     -1.45      0.00
    2   16    4      1.18      0.00
    2   16    5      0.97      0.00
    2   16    6     -0.95      0.00
    2   16    7     -0.46      0.00
    2   16    8      0.28      0.00
    2   16    9      0.60      0.00
    2   16   10      0.05      0.00
    2   16   11     -1.19      0.00
    2   16   12     -0.48      0.00
    2   16   13      0.20      0.00
   -2   18   13      0.38      0.00
   -2   18   12      0.62      0.00
   -2   18   11      0.47      0.00
   -2   18   10      0.77      0.00
   -2   18    9     -1.98      0.00
   -2   18    8     -0.14      0.00
   -2   18    7      0.79      0.00
   -2   18    6      1.63      0.00
   -2   18    5     -0.56      0.00
   -2   18    4     -1.13      0.00
   -2   18    3     -0.18      0.00
   -2   18    2      0.94      0.00
   -2   18    1     -1.24      0.00
    2   18    0     -0.82      0.00
    2   18    1     -1.81      0.00
    2   18    2      1.20      0.00
    2   18    3     -0.71      0.00
    2   18    4      0.09      0.00
    2   18    5      1.21      0.00
    2   18    6      1.10      0.00
    2   18    7     -1.22      0.00
    2   18    8     -1.04      0.00
    2   18    9      0.46      0.00
    2   18   10      1.64      0.00
    2   18   11      0.13      0.00
   -2   20   11      0.56      0.00
   -2   20   10     -0.27      0.00
   -2   20    9     -1.04      0.00
   -2   20    8      1.24      0.00
   -2   20    7      0.11      0.00
   -2   20    6     -0.10      0.00
   -2   20    5     -0.86      0.00
   -2   20    4     -0.74      0.00
   -2   20    3      0.90      0.00
   -2   20    2     -0.65      0.00
   -2   20    1     -1.05      0.00
    2   20    0      0.95      0.00
    2   20    1     -0.83      0.00
    2   20    2     -0.25      0.00
    2   20    3     -0.46      0.00
    2   20    4     -0.27      0.00
    2   20    5     -0.60      0.00
    2   20    6      1.31      0.00
    2   20    7      1.29      0.00
    2   20    8     -0.32      0.00
    2   20    9     -0.87      0.00
   -2   22    9      0.11      0.00
   -2   22    8      0.35      0.00
   -2   22    7     -0.85      0.00
   -2   22    6     -0.26      0.00
   -2   22    5     -0.08      0.00
   -2   22    4      0.26      0.00
   -2   22    3      0.43      0.00
   -2   22    2     -1.43      0.00
   -2   22    1      0.33      0.00
    2   22    0     -0.01      0.00
    2   22    1      0.41      0.00
    2   22    2      0.40      0.00
    2   22    3      0.15      0.00
    2   22    4      0.18      0.00
    2   22    5     -0.95      0.00
    2   22    6     -0.69      0.00
    2   22    7      0.61      0.00
   -2   24    7     -0.13      0.00
   -2   24    6      0.47      0.00
   -2   24    5      0.11      0.00
   -2   24    4      0.02      0.00
    2   24    0     -0.53      0.00
    2   24    1      0.21      0.00
    2   24    2     -0.01      0.00
    2   24    3      0.05      0.00
    2   24    4      0.72      0.00
   -3    1   22     -0.49      0.00
   -3    1   21      0.08      0.00
   -3    1   20      0.47      0.00
   -3    1   19     -0.06      0.00
   -3    1   18     -0.01      0.00
   -3    1   17      0.30      0.00
   -3    1   16      0.92      0.00
   -3    1   15     -0.98      0.00
   -3    1   14      0.15      0.00
   -3    1   13      0.39      0.00
   -3    1   12      0.63      0.00
   -3    1   11      0.91      0.00
   -3    1   10     -1.52      0.00
   -3    1    9      1.28      0.00
   -3    1    8     11.09      0.00
   -3    1    7     -3.60      0.00
   -3    1    6      1.37      0.00
   -3    1    5     -8.61      0.00
   -3    1    4     -7.07      0.00
   -3    1    3     35.98      0.00
   -3    1    2     76.75      0.00
   -3    1    1    -28.03      0.00
    3    1    0     19.95      0.00
    3    1    1     -5.67      0.00
    3    1    2      6.73      0.00
    3    1    3     -5.44      0.00
    3    1    4     13.21      0.00
    3    1    5      8.51      0.00
    3    1    6     -2.53      0.00
    3    1    7     -3.36      0.00
    3    1    8     -0.78      0.00
    3    1    9     -0.19      0.00
    3    1   10      0.63      0.00
    3    1   11     -1.20      0.00
    3    1   12      2.84      0.00
    3    1   13      2.14      0.00
    3    1   14     -0.70      0.00
    3    1   15      0.09      0.00
    3    1   16     -0.52      0.00
    3    1   17     -0.31      0.00
    3    1   18     -0.34      0.00
   -3    3   22     -0.41      0.00
   -3    3   21     -0.16      0.00
   -3    3   20      1.02      0.00
   -3    3   19     -0.56      0.00
   -3    3   18      0.17      0.00
   -3    3   17      0.07      0.00
   -3    3   16     -0.80      0.00
   -3    3   15     -0.78      0.00
   -3    3   14      1.48      0.00
   -3    3   13      0.60      0.00
   -3    3   12     -0.59      0.00
   -3    3   11     -2.25      0.00
   -3    3   10     -0.49      0.00
   -3    3    9      8.34      0.00
   -3    3    8      2.14      0.00
   -3    3    7    -10.40      0.00
   -3    3    6     -0.72      0.00
   -3    3    5     -3.54      0.00
   -3    3    4     23.99      0.00
   -3    3    3     36.07      0.00
   -3    3    2      2.29      0.00
   -3    3    1    -17.10      0.00
    3    3    0     35.22      0.00
    3    3    1      3.16      0.00
    3    3    2      1.84      0.00
    3    3    3     -7.34      0.00
    3    3    4     -0.33      0.00
    3    3    5      5.62      0.00
    3    3    6      6.08      0.00
    3    3    7      1.42      0.00
    3    3    8     -2.07      0.00
    3    3    9     -2.01      0.00
    3    3   10      0.18      0.00
    3    3   11     -1.40      0.00
    3    3   12     -0.27      0.00
    3    3   13      1.13      0.00
    3    3   14      0.74      0.00
    3    3   15      0.81      0.00
    3    3   16      0.33      0.00
    3    3   17      0.69      0.00
    3    3   18     -0.39      0.00
   -3    5   21      0.66      0.00
   -3    5   20     -0.02      0.00
   -3    5   19     -1.40      0.00
   -3    5   18      0.31      0.00
   -3    5   17     -0.95      0.00
   -3    5   16     -0.12      0.00
   -3    5   15      0.67      0.00
   -3    5   14      0.53      0.00
   -3    5   13     -1.37      0.00
   -3    5   12     -1.95      0.00
   -3    5   11      1.58      0.00
   -3    5   10      4.21      0.00
   -3    5    9      1.88      0.00
   -3    5    8     -6.62      0.00
   -3    5    7     -4.27      0.00
   -3    5    6      2.46      0.00
   -3    5    5      4.76      0.00
   -3    5    4     13.34      0.00
   -3    5    3      2.86      0.00
   -3    5    2     -9.72      0.00
   -3    5    1     11.04      0.00
    3    5    0      8.14      0.00
    3    5    1      7.82      0.00
    3    5    2      2.57      0.00
    3    5    3     -7.45      0.00
    3    5    4     -5.20      0.00
    3    5    5      1.89      0.00
    3    5    6      2.71      0.00
    3    5    7      3.35      0.00
    3    5    8      1.70      0.00
    3    5    9     -1.86      0.00
    3    5   10      0.47      0.00
    3    5   11     -1.01      0.00
    3    5   12     -1.52      0.00
    3    5   13     -0.06      0.00
    3    5   14      0.60      0.00
    3    5   15      0.27      0.00
    3    5   16      0.25      0.00
    3    5   17      0.26      0.00
    3    5   18      0.35      0.00
    3    5   19     -0.33      0.00
   -3    7   21     -0.69      0.00
   -3    7   20     -0.66      0.00
   -3    7   19     -0.33      0.00
   -3    7   18      0.42      0.00
   -3    7   17     -0.43      0.00
   -3    7   16      0.48      0.00
   -3    7   15      0.24      0.00
   -3    7   14     -0.80      0.00
   -3    7   13     -0.83      0.00
   -3    7   12      1.24      0.00
   -3    7   11      2.59      0.00
   -3    7   10      0.56      0.00
   -3    7    9     -1.83      0.00
   -3    7    8     -4.71      0.00
   -3    7    7     -0.28      0.00
   -3    7    6      2.50      0.00
   -3    7    5      2.08      0.00
   -3    7    4      1.68      0.00
   -3    7    3     -2.51      0.00
   -3    7    2     -6.76      0.00
   -3    7    1      7.92      0.00
    3    7    0     -6.74      0.00
    3    7    1      0.15      0.00
    3    7    2      3.58      0.00
    3    7    3     -1.15      0.00
    3    7    4     -8.08      0.00
    3    7    5     -2.65      0.00
    3    7    6      1.02      0.00
    3    7    7      1.98      0.00
    3    7    8      3.59      0.00
    3    7    9     -0.84      0.00
    3    7   10     -0.41      0.00
    3    7   11      1.15      0.00
    3    7   12     -0.38      0.00
    3    7   13     -1.79      0.00
    3    7   14      0.35      0.00
    3    7   15      0.04      0.00
    3    7   16      0.70      0.00
    3    7   17      0.58      0.00
    3    7   18     -0.36      0.00
   -3    9   21      0.19      0.00
   -3    9   20     -0.07      0.00
   -3    9   19     -0.12      0.00
   -3    9   18     -0.25      0.00
   -3    9   17     -0.42      0.00
   -3    9   16      0.27      0.00
   -3    9   15     -0.33      0.00
   -3    9   14     -0.73      0.00
   -3    9   13      1.46      0.00
   -3    9   12      1.39      0.00
   -3    9   11      0.58      0.00
   -3    9   10     -1.67      0.00
   -3    9    9     -3.28      0.00
   -3    9    8     -0.18      0.00
   -3    9    7      4.62      0.00
   -3    9    6      1.61      0.00
   -3    9    5     -0.94      0.00
   -3    9    4     -1.86      0.00
   -3    9    3     -5.14      0.00
   -3    9    2     -2.54      0.00
   -3    9    1      3.27      0.00
    3    9    0     -6.27      0.00
    3    9    1     -4.36      0.00
    3    9    2      0.81      0.00
    3    9    3      4.28      0.00
    3    9    4     -2.24      0.00
    3    9    5     -1.69      0.00
    3    9    6     -0.51      0.00
    3    9    7     -0.80      0.00
    3    9    8      2.12      0.00
    3    9    9      1.29      0.00
    3    9   10     -0.95      0.00
    3    9   11      0.47      0.00
    3    9   12      0.89      0.00
    3    9   13     -0.77      0.00
    3    9   14     -0.11      0.00
    3    9   15     -0.24      0.00
    3    9   16     -0.30      0.00
    3    9   17      0.66      0.00
   -3   11   20     -0.65      0.00
   -3   11   19     -0.17      0.00
   -3   11   18     -0.62      0.00
   -3   11   17     -0.20      0.00
   -3   11   16     -0.38      0.00
   -3   11   15     -0.15      0.00
   -3   11   14      0.80      0.00
   -3   11   13      1.28      0.00
   -3   11   12     -0.90      0.00
   -3   11   11     -1.35      0.00
   -3   11   10     -1.31      0.00
   -3   11    9      2.03      0.00
   -3   11    8      3.81      0.00
   -3   11    7      1.03      0.00
   -3   11    6     -1.98      0.00
   -3   11    5     -1.97      0.00
   -3   11    4     -1.10      0.00
   -3   11    3     -2.06      0.00
   -3   11    2      0.73      0.00
   -3   11    1     -0.14      0.00
    3   11    0     -0.49      0.00
    3   11    1     -1.82      0.00
    3   11    2     -2.20      0.00
    3   11    3      3.97      0.00
    3   11    4      0.66      0.00
    3   11    5     -1.59      0.00
    3   11    6      0.30      0.00
    3   11    7      0.94      0.00
    3   11    8      0.31      0.00
    3   11    9      1.47      0.00
    3   11   10     -1.47      0.00
    3   11   11     -0.10      0.00
    3   11   12      1.37      0.00
    3   11   13      0.01      0.00
    3   11   14     -1.11      0.00
    3   11   15     -0.09      0.00
    3   11   16     -0.01      0.00
   -3   13   19     -0.31      0.00
   -3   13   18     -0.51      0.00
   -3   13   17      0.02      0.00
   -3   13   16     -0.04      0.00
   -3   13   15      0.51      0.00
   -3   13   14      0.37      0.00
   -3   13   13     -0.50      0.00
   -3   13   12     -1.07      0.00
   -3   13   11      0.28      0.00
   -3   13   10      1.21      0.00
   -3   13    9      1.19      0.00
   -3   13    8      0.67      0.00
   -3   13    7     -0.78      0.00
   -3   13    6     -1.20      0.00
   -3   13    5      0.23      0.00
   -3   13    4      0.89      0.00
   -3   13    3     -1.89      0.00
   -3   13    2      0.94      0.00
   -3   13    1     -0.12      0.00
    3   13    0      0.17      0.00
    3   13    1      0.47      0.00
    3   13    2     -1.37      0.00
    3   13    3      1.26      0.00
    3   13    4      2.77      0.00
    3   13    5      0.31      0.00
    3   13    6     -2.15      0.00
    3   13    7     -0.45      0.00
    3   13    8     -0.75      0.00
    3   13    9      2.19      0.00
    3   13   10      0.24      0.00
    3   13   11     -1.75      0.00
    3   13   12     -0.48      0.00
    3   13   13      1.80      0.00
    3   13   14      0.23      0.00
    3   13   15     -0.92      0.00
   -3   15   15      0.49      0.00
   -3   15   14     -0.03      0.00
   -3   15   13     -0.80      0.00
   -3   15   12      0.05      0.00
   -3   15   11     -0.19      0.00
   -3   15   10      0.60      0.00
   -3   15    9      1.00      0.00
   -3   15    8      0.94      0.00
   -3   15    7     -1.86      0.00
   -3   15    6      0.48      0.00
   -3   15    5      1.25      0.00
   -3   15    4     -1.36      0.00
   -3   15    3     -1.36      0.00
   -3   15    2      2.15      0.00
   -3   15    1     -0.14      0.00
    3   15    0      0.15      0.00
    3   15    1      0.55      0.00
    3   15    2     -1.03      0.00
    3   15    3     -1.22      0.00
    3   15    4      1.16      0.00
    3   15    5      1.07      0.00
    3   15    6      0.24      0.00
    3   15    7      0.39      0.00
    3   15    8     -1.92      0.00
    3   15    9     -0.74      0.00
    3   15   10      0.52      0.00
    3   15   11      0.09      0.00
    3   15   12     -0.80      0.00
    3   15   13     -0.50      0.00
   -3   17   14     -0.76      0.00
   -3   17   13     -0.11      0.00
   -3   17   12      0.28      0.00
   -3   17   11     -0.25      0.00
   -3   17   10      1.89      0.00
   -3   17    9     -0.24      0.00
   -3   17    8     -0.92      0.00
   -3   17    7     -0.72      0.00
   -3   17    6      1.84      0.00
   -3   17    5     -0.78      0.00
   -3   17    4     -1.21      0.00
   -3   17    3      1.42      0.00
   -3   17    2      0.92      0.00
   -3   17    1     -1.25      0.00
    3   17    0     -0.54      0.00
    3   17    1      0.23      0.00
    3   17    2      0.75      0.00
    3   17    3     -2.08      0.00
    3   17    4      0.53      0.00
    3   17    5      0.49      0.00
    3   17    6     -0.16      0.00
    3   17    7      0.65      0.00
    3   17    8      0.11      0.00
    3   17    9      0.11      0.00
    3   17   10      0.13      0.00
    3   17   11     -1.33      0.00
   -3   19   12     -0.44      0.00
   -3   19   11      0.69      0.00
   -3   19   10      0.95      0.00
   -3   19    9     -1.95      0.00
   -3   19    8     -0.06      0.00
   -3   19    7      0.72      0.00
   -3   19    6      0.46      0.00
   -3   19    5     -0.96      0.00
   -3   19    4     -0.09      0.00
   -3   19    3      0.86      0.00
   -3   19    2     -1.12      0.00
   -3   19    1     -0.81      0.00
    3   19    0      0.13      0.00
    3   19    1     -0.54      0.00
    3   19    2      1.52      0.00
    3   19    3     -1.24      0.00
    3   19    4     -0.65      0.00
    3   19    5      0.11      0.00
    3   19    6      0.89      0.00
    3   19    7      1.12      0.00
    3   19    8     -0.47      0.00
    3   19    9     -0.85      0.00
   -3   21   10     -1.16      0.00
   -3   21    9     -1.06      0.00
   -3   21    8      1.14      0.00
   -3   21    7      0.04      0.00
   -3   21    6     -1.00      0.00
   -3   21    5     -0.38      0.00
   -3   21    4      0.44      0.00
   -3   21    3      0.49      0.00
   -3   21    2     -1.69      0.00
   -3   21    1     -0.24      0.00
    3   21    0      0.25      0.00
    3   21    1     -0.70      0.00
    3   21    2      1.15      0.00
    3   21    3      0.41      0.00
    3   21    4     -0.15      0.00
    3   21    5     -0.99      0.00
    3   21    6     -0.99      0.00
    3   21    7      0.97      0.00
   -3   23    8     -0.24      0.00
   -3   23    7     -0.90      0.00
   -3   23    6      0.04      0.00
   -3   23    5      0.90      0.00
   -3   23    4      0.17      0.00
   -3   23    3     -0.85      0.00
   -3   23    2     -1.25      0.00
   -3   23    1      0.64      0.00
    3   23    0      0.13      0.00
    3   23    1     -0.12      0.00
    3   23    2      0.12      0.00
    3   23    3      0.39      0.00
    3   23    4      0.60      0.00
    3   23    5      0.25      0.00
    3   25    1      0.26      0.00
    3   25    2      0.09      0.00
   -4    0   22     -0.54      0.00
   -4    0   20      0.54      0.00
   -4    0   18     -0.18      0.00
   -4    0   16      0.94      0.00
   -4    0   14      0.60      0.00
   -4    0   12      2.05      0.00
   -4    0   10     -2.05      0.00
   -4    0    8      1.83      0.00
   -4    0    6     28.00      0.00
   -4    0    4    -33.41      0.00
   -4    0    2     88.87      0.00
    4    0    0     23.87      0.00
    4    0    2     -7.41      0.00
    4    0    4     10.17      0.00
    4    0    6      2.07      0.00
    4    0    8      1.33      0.00
    4    0   10     -3.31      0.00
    4    0   12      3.06      0.00
    4    0   14      0.17      0.00
    4    0   16      0.00      0.00
   -4    2   22     -0.29      0.00
   -4    2   21     -0.23      0.00
   -4    2   20      1.24      0.00
   -4    2   19     -0.37      0.00
   -4    2   18      0.03      0.00
   -4    2   17      0.21      0.00
   -4    2   16     -0.67      0.00
   -4    2   15     -0.26      0.00
   -4    2   14      1.33      0.00
   -4    2   13      0.84      0.00
   -4    2   12      1.84      0.00
   -4    2   11     -2.56      0.00
   -4    2   10     -3.70      0.00
   -4    2    9      2.08      0.00
   -4    2    8      4.59      0.00
   -4    2    7      8.44      0.00
   -4    2    6      8.81      0.00
   -4    2    5    -29.88      0.00
   -4    2    4      9.15      0.00
   -4    2    3     55.75      0.00
   -4    2    2     26.86      0.00
   -4    2    1    -21.64      0.00
    4    2    0     37.06      0.00
    4    2    1     10.73      0.00
    4    2    2     -3.94      0.00
    4    2    3    -10.39      0.00
    4    2    4      2.79      0.00
    4    2    5      2.72      0.00
    4    2    6      3.18      0.00
    4    2    7      0.12      0.00
    4    2    8      0.93      0.00
    4    2    9      2.24      0.00
    4    2   10     -0.85      0.00
    4    2   11     -2.82      0.00
    4    2   12     -0.31      0.00
    4    2   13      0.71      0.00
    4    2   14      0.69      0.00
    4    2   15      1.22      0.00
    4    2   16      0.69      0.00
    4    2   17      0.80      0.00
   -4    4   22     -0.36      0.00
   -4    4   21      0.81      0.00
   -4    4   20      0.64      0.00
   -4    4   19     -1.60      0.00
   -4    4   18      0.25      0.00
   -4    4   17     -0.75      0.00
   -4    4   16      0.06      0.00
   -4    4   15      0.83      0.00
   -4    4   14      0.44      0.00
   -4    4   13      0.49      0.00
   -4    4   12     -2.42      0.00
   -4    4   11     -3.48      0.00
   -4    4   10      1.80      0.00
   -4    4    9      5.19      0.00
   -4    4    8      3.60      0.00
   -4    4    7      1.81      0.00
   -4    4    6    -11.43      0.00
   -4    4    5     -8.14      0.00
   -4    4    4     32.03      0.00
   -4    4    3     15.89      0.00
   -4    4    2     -9.86      0.00
   -4    4    1     16.71      0.00
    4    4    0     10.68      0.00
    4    4    1     20.02      0.00
    4    4    2      7.34      0.00
    4    4    3     -8.31      0.00
    4    4    4     -3.34      0.00
    4    4    5     -0.41      0.00
    4    4    6      2.74      0.00
    4    4    7      1.07      0.00
    4    4    8     -1.07      0.00
    4    4    9      1.91      0.00
    4    4   10      1.78      0.00
    4    4   11     -1.44      0.00
    4    4   12     -0.58      0.00
    4    4   13     -1.00      0.00
    4    4   14     -0.70      0.00
    4    4   15      0.56      0.00
    4    4   16      0.59      0.00
    4    4   17      1.33      0.00
    4    4   18      0.36      0.00
    4    4   19     -0.05      0.00
   -4    6   22      0.52      0.00
   -4    6   21     -0.33      0.00
   -4    6   20     -0.98      0.00
   -4    6   19     -0.75      0.00
   -4    6   18      0.53      0.00
   -4    6   17     -0.40      0.00
   -4    6   16      0.23      0.00
   -4    6   15      0.37      0.00
   -4    6   14      0.28      0.00
   -4    6   13     -1.05      0.00
   -4    6   12     -2.14      0.00
   -4    6   11      1.27      0.00
   -4    6   10      2.99      0.00
   -4    6    9      3.02      0.00
   -4    6    8     -0.95      0.00
   -4    6    7     -6.57      0.00
   -4    6    6     -8.81      0.00
   -4    6    5      7.77      0.00
   -4    6    4     13.16      0.00
   -4    6    3     -1.21      0.00
   -4    6    2     -1.70      0.00
   -4    6    1     10.33      0.00
    4    6    0    -16.75      0.00
    4    6    1      0.18      0.00
    4    6    2      9.60      0.00
    4    6    3     -0.93      0.00
    4    6    4     -4.95      0.00
    4    6    5     -2.05      0.00
    4    6    6      0.57      0.00
    4    6    7      2.32      0.00
    4    6    8     -0.26      0.00
    4    6    9     -1.46      0.00
    4    6   10      2.72      0.00
    4    6   11      0.65      0.00
    4    6   12     -0.40      0.00
    4    6   13     -0.65      0.00
    4    6   14     -0.58      0.00
    4    6   15     -0.42      0.00
    4    6   16      0.01      0.00
    4    6   17      0.25      0.00
    4    6   18      0.30      0.00
   -4    8   20     -0.04      0.00
   -4    8   19     -0.10      0.00
   -4    8   18     -0.11      0.00
   -4    8   17     -0.26      0.00
   -4    8   16      0.63      0.00
   -4    8   15      0.70      0.00
   -4    8   14     -1.08      0.00
   -4    8   13     -0.95      0.00
   -4    8   12      0.00      0.00
   -4    8   11      2.15      0.00
   -4    8   10      2.33      0.00
   -4    8    9     -0.76      0.00
   -4    8    8     -4.84      0.00
   -4    8    7     -3.99      0.00
   -4    8    6      0.64      0.00
   -4    8    5      7.88      0.00
   -4    8    4      1.41      0.00
   -4    8    3     -4.60      0.00
   -4    8    2     -2.86      0.00
   -4    8    1     -0.37      0.00
    4    8    0    -10.83      0.00
    4    8    1     -9.82      0.00
    4    8    2      1.86      0.00
    4    8    3      4.53      0.00
    4    8    4     -1.14      0.00
    4    8    5     -1.71      0.00
    4    8    6     -1.55      0.00
    4    8    7      0.79      0.00
    4    8    8      1.84      0.00
    4    8    9     -1.91      0.00
    4    8   10     -0.33      0.00
    4    8   11      1.40      0.00
    4    8   12      1.25      0.00
    4    8   13      0.00      0.00
    4    8   14     -0.06      0.00
    4    8   15     -0.89      0.00
    4    8   16     -0.19      0.00
    4    8   17      0.56      0.00
   -4   10   21      0.19      0.00
   -4   10   20     -0.67      0.00
   -4   10   19     -0.36      0.00
   -4   10   18     -0.45      0.00
   -4   10   17      0.21      0.00
   -4   10   16     -0.15      0.00
   -4   10   15     -0.55      0.00
   -4   10   14     -0.68      0.00
   -4   10   13      0.68      0.00
   -4   10   12      0.91      0.00
   -4   10   11      1.43      0.00
   -4   10   10     -0.84      0.00
   -4   10    9     -2.03      0.00
   -4   10    8     -0.48      0.00
   -4   10    7      0.83      0.00
   -4   10    6      2.74      0.00
   -4   10    5      2.17      0.00
   -4   10    4     -3.31      0.00
   -4   10    3     -3.84      0.00
   -4   10    2     -1.22      0.00
   -4   10    1     -3.47      0.00
    4   10    0      0.06      0.00
    4   10    1     -6.88      0.00
    4   10    2     -3.75      0.00
    4   10    3      3.46      0.00
    4   10    4      1.32      0.00
    4   10    5      1.74      0.00
    4   10    6     -0.59      0.00
    4   10    7     -0.55      0.00
    4   10    8      1.77      0.00
    4   10    9     -0.22      0.00
    4   10   10     -1.62      0.00
    4   10   11      0.38      0.00
    4   10   12      0.40      0.00
    4   10   13      0.03      0.00
    4   10   14      0.59      0.00
    4   10   15      0.22      0.00
    4   10   16     -0.88      0.00
   -4   12   20     -0.74      0.00
   -4   12   18     -0.43      0.00
   -4   12   17     -0.07      0.00
   -4   12   16     -0.51      0.00
   -4   12   15      0.24      0.00
   -4   12   14      0.30      0.00
   -4   12   13      0.41      0.00
   -4   12   12      0.08      0.00
   -4   12   11     -0.03      0.00
   -4   12   10     -0.41      0.00
   -4   12    9      0.15      0.00
   -4   12    8      0.89      0.00
   -4   12    7      0.91      0.00
   -4   12    6      1.28      0.00
   -4   12    5     -1.02      0.00
   -4   12    4     -2.11      0.00
   -4   12    3     -1.92      0.00
   -4   12    2      0.00      0.00
   -4   12    1     -0.67      0.00
    4   12    0      3.65      0.00
    4   12    1      0.80      0.00
    4   12    2     -3.34      0.00
    4   12    3      0.89      0.00
    4   12    4      0.48      0.00
    4   12    5      1.30      0.00
    4   12    6      0.20      0.00
    4   12    7     -0.73      0.00
    4   12    8      0.39      0.00
    4   12    9      2.07      0.00
    4   12   10     -1.55      0.00
    4   12   11     -1.01      0.00
    4   12   12      0.83      0.00
    4   12   13      0.49      0.00
    4   12   14     -0.88      0.00
    4   12   15      0.07      0.00
   -4   14   19      0.21      0.00
   -4   14   18      0.17      0.00
   -4   14   16     -0.05      0.00
   -4   14   15      0.51      0.00
   -4   14   14      0.15      0.00
   -4   14   13     -0.31      0.00
   -4   14   12      0.33      0.00
   -4   14   11     -0.43      0.00
   -4   14   10     -0.28      0.00
   -4   14    9      0.55      0.00
   -4   14    8      1.61      0.00
   -4   14    7     -0.21      0.00
   -4   14    6      0.11      0.00
   -4   14    5     -0.31      0.00
   -4   14    4     -0.89      0.00
   -4   14    3     -1.13      0.00
   -4   14    2      0.79      0.00
   -4   14    1      0.26      0.00
    4   14    0      1.43      0.00
    4   14    1      1.77      0.00
    4   14    2     -0.98      0.00
    4   14    3     -0.55      0.00
    4   14    4     -0.15      0.00
    4   14    5      1.15      0.00
    4   14    6      0.55      0.00
    4   14    7     -0.53      0.00
    4   14    8     -2.36      0.00
    4   14    9      0.67      0.00
    4   14   10      1.26      0.00
    4   14   11     -0.84      0.00
    4   14   12     -1.21      0.00
    4   14   13      0.75      0.00
   -4   16   15     -0.01      0.00
   -4   16   14     -0.40      0.00
   -4   16   13     -0.10      0.00
   -4   16   12      0.50      0.00
   -4   16   11     -1.22      0.00
   -4   16   10      1.02      0.00
   -4   16    9      0.88      0.00
   -4   16    8      0.18      0.00
   -4   16    7     -0.66      0.00
   -4   16    6      1.42      0.00
   -4   16    5     -0.92      0.00
   -4   16    4     -1.87      0.00
   -4   16    3      0.70      0.00
   -4   16    2      1.21      0.00
   -4   16    1      0.20      0.00
    4   16    0      0.14      0.00
    4   16    1      1.13      0.00
    4   16    2      0.10      0.00
    4   16    3     -0.92      0.00
    4   16    4     -0.78      0.00
    4   16    5     -0.65      0.00
    4   16    6      0.97      0.00
    4   16    7      1.82      0.00
    4   16    8     -0.73      0.00
    4   16    9     -1.62      0.00
    4   16   10     -0.45      0.00
    4   16   11      0.08      0.00
    4   16   12      0.22      0.00
   -4   18   13      0.26      0.00
   -4   18   12     -0.50      0.00
   -4   18   11     -0.95      0.00
   -4   18   10      1.78      0.00
   -4   18    9     -0.42      0.00
   -4   18    8     -0.44      0.00
   -4   18    7      0.63      0.00
   -4   18    6      0.09      0.00
   -4   18    5     -1.81      0.00
   -4   18    4      0.47      0.00
   -4   18    3      1.43      0.00
   -4   18    2     -1.06      0.00
   -4   18    1      0.14      0.00
    4   18    0     -0.14      0.00
    4   18    1      0.47      0.00
    4   18    2      1.22      0.00
    4   18    3     -0.81      0.00
    4   18    4      0.27      0.00
    4   18    5     -0.69      0.00
    4   18    6     -0.62      0.00
    4   18    7      1.00      0.00
    4   18    8      0.78      0.00
    4   18    9      0.23      0.00
    4   18   10      0.43      0.00
   -4   20   12     -0.05      0.00
   -4   20   11      0.63      0.00
   -4   20   10      0.67      0.00
   -4   20    9     -1.83      0.00
   -4   20    8      0.26      0.00
   -4   20    7      0.93      0.00
   -4   20    6     -1.43      0.00
   -4   20    5     -0.28      0.00
   -4   20    4      0.62      0.00
   -4   20    3     -0.24      0.00
   -4   20    2     -0.71      0.00
   -4   20    1      0.33      0.00
    4   20    0     -0.90      0.00
    4   20    1     -0.84      0.00
    4   20    2      1.70      0.00
    4   20    3      0.16      0.00
    4   20    4      0.25      0.00
    4   20    5     -0.28      0.00
    4   20    6     -0.55      0.00
    4   20    7      0.58      0.00
    4   20    8      0.26      0.00
   -4   22   10     -0.41      0.00
   -4   22    9     -0.29      0.00
   -4   22    8      0.82      0.00
   -4   22    7     -0.77      0.00
   -4   22    6     -1.31      0.00
   -4   22    5      1.17      0.00
   -4   22    4      0.20      0.00
   -4   22    3     -0.53      0.00
   -4   22    2     -1.02      0.00
   -4   22    1     -0.14      0.00
    4   22    0      0.41      0.00
    4   22    1     -1.03      0.00
    4   22    2      0.04      0.00
    4   22    3      0.21      0.00
    4   22    4      0.72      0.00
    4   22    5      0.41      0.00
   -4   24    8     -0.27      0.00
   -4   24    7     -0.26      0.00
   -4   24    6      0.52      0.00
   -4   24    2     -0.02      0.00
   -4   24    1      0.29      0.00
    4   24    0     -0.08      0.00
    4   24    1      0.07      0.00
    4   24    2      0.16      0.00
   -5    1   23     -0.01      0.00
   -5    1   22     -0.08      0.00
   -5    1   21     -0.55      0.00
   -5    1   20      0.83      0.00
   -5    1   19      0.20      0.00
   -5    1   18      0.33      0.00
   -5    1   17      0.19      0.00
   -5    1   16     -0.11      0.00
   -5    1   15     -0.43      0.00
   -5    1   14      0.15      0.00
   -5    1   13      0.69      0.00
   -5    1   12      2.41      0.00
   -5    1   11      0.18      0.00
   -5    1   10      2.40      0.00
   -5    1    9     -3.72      0.00
   -5    1    8     -6.44      0.00
   -5    1    7      8.67      0.00
   -5    1    6     21.86      0.00
   -5    1    5    -11.69      0.00
   -5    1    4      3.82      0.00
   -5    1    3     19.93      0.00
   -5    1    2     35.75      0.00
   -5    1    1     -4.17      0.00
    5    1    0     32.34      0.00
    5    1    1      5.46      0.00
    5    1    2     -2.09      0.00
    5    1    3      0.07      0.00
    5    1    4      0.27      0.00
    5    1    5     -2.29      0.00
    5    1    6      0.35      0.00
    5    1    7     -0.40      0.00
    5    1    8      4.06      0.00
    5    1    9      1.88      0.00
    5    1   10     -0.76      0.00
    5    1   11     -0.59      0.00
    5    1   12     -0.47      0.00
    5    1   13      0.13      0.00
    5    1   14     -0.11      0.00
    5    1   15      0.11      0.00
    5    1   16      0.78      0.00
    5    1   17      0.89      0.00
   -5    3   22     -0.54      0.00
   -5    3   21      0.48      0.00
   -5    3   20      1.66      0.00
   -5    3   19     -0.80      0.00
   -5    3   18     -0.09      0.00
   -5    3   17     -1.06      0.00
   -5    3   16     -0.14      0.00
   -5    3   15      0.53      0.00
   -5    3   14      0.01      0.00
   -5    3   13      1.66      0.00
   -5    3   12      0.45      0.00
   -5    3   11     -1.03      0.00
   -5    3   10     -1.39      0.00
   -5    3    9     -5.25      0.00
   -5    3    8      4.10      0.00
   -5    3    7     13.81      0.00
   -5    3    6     -0.41      0.00
   -5    3    5     -9.82      0.00
   -5    3    4     21.98      0.00
   -5    3    3     13.32      0.00
   -5    3    2      4.47      0.00
   -5    3    1     16.50      0.00
    5    3    0     17.18      0.00
    5    3    1     16.64      0.00
    5    3    2      1.90      0.00
    5    3    3     -2.64      0.00
    5    3    4      1.87      0.00
    5    3    5      1.37      0.00
    5    3    6     -0.43      0.00
    5    3    7     -4.82      0.00
    5    3    8      0.50      0.00
    5    3    9      2.91      0.00
    5    3   10      0.92      0.00
    5    3   11      1.10      0.00
    5    3   12     -0.24      0.00
    5    3   13     -0.84      0.00
    5    3   14     -0.35      0.00
    5    3   15      0.26      0.00
    5    3   16      0.10      0.00
    5    3   17      0.44      0.00
    5    3   18      0.73      0.00
   -5    5   22      0.62      0.00
   -5    5   21      0.61      0.00
   -5    5   20     -0.38      0.00
   -5    5   19     -1.40      0.00
   -5    5   18      0.10      0.00
   -5    5   17      0.04      0.00
   -5    5   16      0.30      0.00
   -5    5   15     -0.71      0.00
   -5    5   14      0.46      0.00
   -5    5   13      1.30      0.00
   -5    5   12     -1.62      0.00
   -5    5   11     -0.82      0.00
   -5    5   10     -2.24      0.00
   -5    5    9      1.40      0.00
   -5    5    8      7.87      0.00
   -5    5    7      0.90      0.00
   -5    5    6    -10.72      0.00
   -5    5    5      2.54      0.00
   -5    5    4      9.56      0.00
   -5    5    3      2.27      0.00
   -5    5    2      9.93      0.00
   -5    5    1     16.25      0.00
    5    5    0    -16.15      0.00
    5    5    1      4.64      0.00
    5    5    2      6.41      0.00
    5    5    3     -0.41      0.00
    5    5    4     -1.59      0.00
    5    5    5      0.36      0.00
    5    5    6      4.54      0.00
    5    5    7     -1.53      0.00
    5    5    8     -3.70      0.00
    5    5    9      0.62      0.00
    5    5   10      0.90      0.00
    5    5   11      0.25      0.00
    5    5   12      1.74      0.00
    5    5   13     -0.10      0.00
    5    5   14     -0.65      0.00
    5    5   15     -0.20      0.00
    5    5   16     -0.42      0.00
    5    5   17      0.19      0.00
    5    5   18     -0.18      0.00
   -5    7   22      0.07      0.00
   -5    7   21     -0.68      0.00
   -5    7   20     -0.42      0.00
   -5    7   19     -0.26      0.00
   -5    7   18      0.14      0.00
   -5    7   17     -0.46      0.00
   -5    7   16     -0.49      0.00
   -5    7   15      1.10      0.00
   -5    7   14      1.31      0.00
   -5    7   13     -0.31      0.00
   -5    7   12     -2.01      0.00
   -5    7   11     -0.81      0.00
   -5    7   10      0.28      0.00
   -5    7    9      3.90      0.00
   -5    7    8      0.90      0.00
   -5    7    7     -6.48      0.00
   -5    7    6     -5.58      0.00
   -5    7    5      6.01      0.00
   -5    7    4      1.78      0.00
   -5    7    3      4.59      0.00
   -5    7    2      3.11      0.00
   -5    7    1     -2.79      0.00
    5    7    0    -14.41      0.00
    5    7    1     -9.58      0.00
    5    7    2     -0.33      0.00
    5    7    3      1.86      0.00
    5    7    4     -0.08      0.00
    5    7    5     -1.67      0.00
    5    7    6      2.08      0.00
    5    7    7      2.33      0.00
    5    7    8     -1.55      0.00
    5    7    9     -2.24      0.00
    5    7   10      0.63      0.00
    5    7   11     -0.10      0.00
    5    7   12      1.17      0.00
    5    7   13      0.93      0.00
    5    7   14      0.14      0.00
    5    7   15     -0.10      0.00
    5    7   16     -0.29      0.00
    5    7   17     -0.61      0.00
   -5    9   21      0.02      0.00
   -5    9   20     -0.55      0.00
   -5    9   19     -0.48      0.00
   -5    9   18     -0.47      0.00
   -5    9   17      0.26      0.00
   -5    9   16      0.50      0.00
   -5    9   15      1.04      0.00
   -5    9   14     -0.67      0.00
   -5    9   13     -1.64      0.00
   -5    9   12     -1.17      0.00
   -5    9   11      1.12      0.00
   -5    9   10      2.04      0.00
   -5    9    9      1.69      0.00
   -5    9    8     -2.39      0.00
   -5    9    7     -4.56      0.00
   -5    9    6      0.61      0.00
   -5    9    5      3.58      0.00
   -5    9    4     -0.58      0.00
   -5    9    3      1.84      0.00
   -5    9    2     -2.78      0.00
   -5    9    1     -6.55      0.00
    5    9    0     -2.23      0.00
    5    9    1     -6.88      0.00
    5    9    2     -3.80      0.00
    5    9    3      1.06      0.00
    5    9    4      1.47      0.00
    5    9    5     -0.05      0.00
    5    9    6     -0.47      0.00
    5    9    7      2.15      0.00
    5    9    8      1.43      0.00
    5    9    9     -1.73      0.00
    5    9   10     -0.80      0.00
    5    9   11     -0.64      0.00
    5    9   12     -0.13      0.00
    5    9   13      0.93      0.00
    5    9   14      0.81      0.00
    5    9   15      0.04      0.00
    5    9   16      0.05      0.00
   -5   11   20     -0.89      0.00
   -5   11   19     -0.32      0.00
   -5   11   18     -0.38      0.00
   -5   11   17      0.01      0.00
   -5   11   16     -0.25      0.00
   -5   11   15      0.38      0.00
   -5   11   14     -0.97      0.00
   -5   11   13     -0.64      0.00
   -5   11   12      0.83      0.00
   -5   11   11      1.57      0.00
   -5   11   10      1.02      0.00
   -5   11    9     -0.60      0.00
   -5   11    8     -2.43      0.00
   -5   11    7     -0.95      0.00
   -5   11    6      2.95      0.00
   -5   11    5      1.04      0.00
   -5   11    4     -0.45      0.00
   -5   11    3     -1.58      0.00
   -5   11    2     -3.69      0.00
   -5   11    1     -3.21      0.00
    5   11    0      4.81      0.00
    5   11    1     -0.36      0.00
    5   11    2     -3.34      0.00
    5   11    3     -0.39      0.00
    5   11    4      0.26      0.00
    5   11    5      2.43      0.00
    5   11    6     -0.40      0.00
    5   11    7     -0.24      0.00
    5   11    8      1.80      0.00
    5   11    9      0.40      0.00
    5   11   10     -0.86      0.00
    5   11   11      0.13      0.00
    5   11   12     -0.90      0.00
    5   11   13     -0.59      0.00
    5   11   14      0.17      0.00
    5   11   15      0.52      0.00
   -5   13   19     -0.18      0.00
   -5   13   18     -0.06      0.00
   -5   13   16      0.22      0.00
   -5   13   15      0.30      0.00
   -5   13   14     -0.62      0.00
   -5   13   13      0.08      0.00
   -5   13   12      1.26      0.00
   -5   13   11      0.01      0.00
   -5   13   10     -0.42      0.00
   -5   13    9     -0.68      0.00
   -5   13    8      0.05      0.00
   -5   13    7      1.21      0.00
   -5   13    6      1.80      0.00
   -5   13    5     -1.24      0.00
   -5   13    4     -0.86      0.00
   -5   13    3     -1.50      0.00
   -5   13    2     -0.96      0.00
   -5   13    1      0.68      0.00
    5   13    0      2.81      0.00
    5   13    1      3.35      0.00
    5   13    2     -0.47      0.00
    5   13    3     -0.38      0.00
    5   13    4     -1.41      0.00
    5   13    5      0.62      0.00
    5   13    6      0.22      0.00
    5   13    7     -0.43      0.00
    5   13    8     -0.46      0.00
    5   13    9      1.17      0.00
    5   13   10     -0.03      0.00
    5   13   11     -0.37      0.00
    5   13   12      0.04      0.00
    5   13   13     -0.01      0.00
   -5   15   16      0.91      0.00
   -5   15   15     -0.22      0.00
   -5   15   14     -0.38      0.00
   -5   15   13      0.33      0.00
   -5   15   12      0.67      0.00
   -5   15   11     -1.23      0.00
   -5   15   10      0.66      0.00
   -5   15    9      0.06      0.00
   -5   15    8      0.32      0.00
   -5   15    7      0.70      0.00
   -5   15    6      0.63      0.00
   -5   15    5     -0.80      0.00
   -5   15    4     -0.41      0.00
   -5   15    3     -0.90      0.00
   -5   15    2      0.14      0.00
   -5   15    1      1.15      0.00
    5   15    0     -0.19      0.00
    5   15    1      1.41      0.00
    5   15    2      0.87      0.00
    5   15    3     -0.27      0.00
    5   15    4     -1.26      0.00
    5   15    5      0.44      0.00
    5   15    6      0.23      0.00
    5   15    7      0.07      0.00
    5   15    8     -1.42      0.00
    5   15    9     -1.07      0.00
    5   15   10      0.85      0.00
    5   15   11      0.20      0.00
    5   15   12     -0.41      0.00
   -5   17   14      0.47      0.00
   -5   17   13      0.49      0.00
   -5   17   12      0.21      0.00
   -5   17   11     -1.39      0.00
   -5   17   10      0.65      0.00
   -5   17    9     -0.44      0.00
   -5   17    8      0.65      0.00
   -5   17    7      1.22      0.00
   -5   17    6     -0.15      0.00
   -5   17    5     -1.52      0.00
   -5   17    4     -0.25      0.00
   -5   17    3      0.75      0.00
   -5   17    2     -0.22      0.00
   -5   17    1      0.34      0.00
    5   17    0     -0.36      0.00
    5   17    1     -0.25      0.00
    5   17    2      0.92      0.00
    5   17    3      0.46      0.00
    5   17    4     -0.72      0.00
    5   17    5     -1.03      0.00
    5   17    6     -0.06      0.00
    5   17    7      1.42      0.00
    5   17    8      0.92      0.00
    5   17    9     -1.47      0.00
    5   17   10     -0.70      0.00
   -5   19   13     -0.26      0.00
   -5   19   12     -0.74      0.00
   -5   19   11     -1.22      0.00
   -5   19   10      1.32      0.00
   -5   19    9     -0.33      0.00
   -5   19    8      0.33      0.00
   -5   19    7      0.71      0.00
   -5   19    6     -1.84      0.00
   -5   19    5     -0.06      0.00
   -5   19    4      0.95      0.00
   -5   19    3     -0.77      0.00
   -5   19    2     -0.79      0.00
   -5   19    1      1.07      0.00
    5   19    0     -0.52      0.00
    5   19    1     -0.74      0.00
    5   19    2      0.97      0.00
    5   19    3      0.45      0.00
    5   19    4      0.83      0.00
    5   19    5      0.30      0.00
    5   19    6     -0.89      0.00
    5   19    7     -0.74      0.00
    5   19    8      1.03      0.00
   -5   21   11     -0.13      0.00
   -5   21   10      0.64      0.00
   -5   21    9     -0.95      0.00
   -5   21    8      0.51      0.00
   -5   21    7     -0.20      0.00
   -5   21    6     -1.63      0.00
   -5   21    5      1.35      0.00
   -5   21    4     -0.56      0.00
   -5   21    3     -0.71      0.00
   -5   21    2      0.21      0.00
   -5   21    1     -0.21      0.00
    5   21    0      0.12      0.00
    5   21    1     -1.58      0.00
    5   21    2     -0.10      0.00
    5   21    3      0.26      0.00
    5   21    4      0.43      0.00
    5   21    5      0.48      0.00
    5   21    6      0.44      0.00
   -5   23    9     -0.54      0.00
   -5   23    8      0.03      0.00
   -5   23    7     -0.63      0.00
   -5   23    6      0.12      0.00
   -5   23    4     -1.03      0.00
   -5   23    3     -0.42      0.00
   -5   23    2     -0.11      0.00
   -5   23    1      0.45      0.00
    5   23    0      0.71      0.00
    5   23    1      0.18      0.00
    5   23    2     -0.25      0.00
    5   23    3     -0.57      0.00
    5   25    0     -0.06      0.00
   -6    0   22      0.81      0.00
   -6    0   20      0.28      0.00
   -6    0   18      0.06      0.00
   -6    0   16      0.74      0.00
   -6    0   14      0.25      0.00
   -6    0   12     -0.39      0.00
   -6    0   10      6.27      0.00
   -6    0    8     -0.47      0.00
   -6    0    6     -0.12      0.00
   -6    0    4     32.90      0.00
   -6    0    2     20.65      0.00
    6    0    0     19.38      0.00
    6    0    2      5.67      0.00
    6    0    4     -1.24      0.00
    6    0    6     -1.09      0.00
    6    0    8      1.33      0.00
    6    0   10      2.34      0.00
    6    0   12     -0.26      0.00
    6    0   14     -1.01      0.00
    6    0   16      0.18      0.00
   -6    2   23      0.30      0.00
   -6    2   22     -0.40      0.00
   -6    2   21     -0.61      0.00
   -6    2   20      1.38      0.00
   -6    2   19      0.07      0.00
   -6    2   18      0.31      0.00
   -6    2   17     -0.15      0.00
   -6    2   16      0.09      0.00
   -6    2   15     -0.06      0.00
   -6    2   14     -0.23      0.00
   -6    2   13     -0.24      0.00
   -6    2   12     -0.62      0.00
   -6    2   11      3.01      0.00
   -6    2   10      4.33      0.00
   -6    2    9     -4.73      0.00
   -6    2    8     -1.00      0.00
   -6    2    7     -0.58      0.00
   -6    2    6      4.92      0.00
   -6    2    5     15.13      0.00
   -6    2    4     20.48      0.00
   -6    2    3     -2.60      0.00
   -6    2    2     15.99      0.00
   -6    2    1      7.03      0.00
    6    2    0     14.26      0.00
    6    2    1      2.72      0.00
    6    2    2      1.00      0.00
    6    2    3      2.93      0.00
    6    2    4      5.12      0.00
    6    2    5      0.85      0.00
    6    2    6     -3.70      0.00
    6    2    7     -2.38      0.00
    6    2    8      0.98      0.00
    6    2    9     -0.77      0.00
    6    2   10      1.53      0.00
    6    2   11      1.88      0.00
    6    2   12      0.13      0.00
    6    2   13      0.89      0.00
    6    2   14     -0.09      0.00
    6    2   15      0.05      0.00
    6    2   16     -0.96      0.00
   -6    4   22      0.15      0.00
   -6    4   21      0.77      0.00
   -6    4   20      0.94      0.00
   -6    4   19     -0.94      0.00
   -6    4   18     -0.38      0.00
   -6    4   17      0.00      0.00
   -6    4   16      0.50      0.00
   -6    4   15     -0.89      0.00
   -6    4   14     -0.97      0.00
   -6    4   13      0.21      0.00
   -6    4   12      0.99      0.00
   -6    4   11      3.68      0.00
   -6    4   10     -2.81      0.00
   -6    4    9     -4.24      0.00
   -6    4    8      2.01      0.00
   -6    4    7      2.17      0.00
   -6    4    6      6.58      0.00
   -6    4    5      9.36      0.00
   -6    4    4     -0.47      0.00
   -6    4    3      2.08      0.00
   -6    4    2     12.35      0.00
   -6    4    1     10.95      0.00
    6    4    0     -2.42      0.00
    6    4    1      2.45      0.00
    6    4    2      0.86      0.00
    6    4    3     -2.03      0.00
    6    4    4      0.50      0.00
    6    4    5      6.40      0.00
    6    4    6      3.05      0.00
    6    4    7     -4.23      0.00
    6    4    8     -0.61      0.00
    6    4    9     -0.85      0.00
    6    4   10     -1.51      0.00
    6    4   11      1.46      0.00
    6    4   12      1.10      0.00
    6    4   13      0.53      0.00
    6    4   14      0.38      0.00
    6    4   15      1.01      0.00
    6    4   16      0.13      0.00
    6    4   17     -1.03      0.00
   -6    6   21     -0.15      0.00
   -6    6   20     -0.26      0.00
   -6    6   19     -0.62      0.00
   -6    6   18      0.46      0.00
   -6    6   17      0.35      0.00
   -6    6   16     -1.16      0.00
   -6    6   15     -0.96      0.00
   -6    6   14      0.56      0.00
   -6    6   13      1.67      0.00
   -6    6   12      1.03      0.00
   -6    6   11     -0.17      0.00
   -6    6   10     -4.00      0.00
   -6    6    9      0.14      0.00
   -6    6    8      1.35      0.00
   -6    6    7      0.93      0.00
   -6    6    6      0.45      0.00
   -6    6    5      1.18      0.00
   -6    6    4     -3.47      0.00
   -6    6    3      9.16      0.00
   -6    6    2      4.70      0.00
   -6    6    1      1.31      0.00
    6    6    0     -9.53      0.00
    6    6    1     -5.98      0.00
    6    6    2     -2.00      0.00
    6    6    3      0.41      0.00
    6    6    4     -2.18      0.00
    6    6    5     -0.02      0.00
    6    6    6      5.66      0.00
    6    6    7      0.35      0.00
    6    6    8     -1.43      0.00
    6    6    9      0.13      0.00
    6    6   10     -1.15      0.00
    6    6   11     -1.32      0.00
    6    6   12      1.17      0.00
    6    6   13      0.87      0.00
    6    6   14      0.32      0.00
    6    6   15      0.38      0.00
    6    6   16      0.06      0.00
    6    6   17     -0.05      0.00
   -6    8   20     -0.29      0.00
   -6    8   19     -0.28      0.00
   -6    8   18     -0.30      0.00
   -6    8   17     -0.36      0.00
   -6    8   16     -0.77      0.00
   -6    8   15      1.27      0.00
   -6    8   14      1.46      0.00
   -6    8   13      0.17      0.00
   -6    8   12     -1.30      0.00
   -6    8   11     -1.97      0.00
   -6    8   10     -1.95      0.00
   -6    8    9      2.37      0.00
   -6    8    8      1.26      0.00
   -6    8    7     -1.15      0.00
   -6    8    6     -1.07      0.00
   -6    8    5     -0.51      0.00
   -6    8    4     -1.44      0.00
   -6    8    3      6.12      0.00
   -6    8    2     -2.92      0.00
   -6    8    1     -2.67      0.00
    6    8    0     -2.16      0.00
    6    8    1     -3.68      0.00
    6    8    2     -4.24      0.00
    6    8    3     -0.57      0.00
    6    8    4     -1.02      0.00
    6    8    5     -1.87      0.00
    6    8    6      2.38      0.00
    6    8    7      2.31      0.00
    6    8    8      0.10      0.00
    6    8    9     -0.59      0.00
    6    8   10      0.13      0.00
    6    8   11     -1.22      0.00
    6    8   12     -0.59      0.00
    6    8   13      0.41      0.00
    6    8   14      0.65      0.00
    6    8   15      0.75      0.00
    6    8   16      0.41      0.00
   -6   10   20     -0.87      0.00
   -6   10   19     -0.27      0.00
   -6   10   18     -0.37      0.00
   -6   10   17     -0.24      0.00
   -6   10   16     -0.04      0.00
   -6   10   15      1.52      0.00
   -6   10   14     -0.44      0.00
   -6   10   13     -1.55      0.00
   -6   10   12     -1.17      0.00
   -6   10   11     -0.41      0.00
   -6   10   10      2.18      0.00
   -6   10    9      2.67      0.00
   -6   10    8     -1.62      0.00
   -6   10    7     -2.39      0.00
   -6   10    6     -0.43      0.00
   -6   10    5     -0.90      0.00
   -6   10    4      2.02      0.00
   -6   10    3      1.20      0.00
   -6   10    2     -3.45      0.00
   -6   10    1     -2.23      0.00
    6   10    0      1.14      0.00
    6   10    1      0.47      0.00
    6   10    2     -1.85      0.00
    6   10    3      0.65      0.00
    6   10    4      0.61      0.00
    6   10    5     -0.90      0.00
    6   10    6     -0.58      0.00
    6   10    7      1.00      0.00
    6   10    8      1.25      0.00
    6   10    9      0.29      0.00
    6   10   10      0.27      0.00
    6   10   11     -0.33      0.00
    6   10   12     -1.11      0.00
    6   10   13     -0.37      0.00
    6   10   14     -0.25      0.00
    6   10   15      0.14      0.00
   -6   12   19     -0.26      0.00
   -6   12   18     -0.63      0.00
   -6   12   17     -0.33      0.00
   -6   12   16      0.73      0.00
   -6   12   15      0.78      0.00
   -6   12   14     -1.14      0.00
   -6   12   13     -0.92      0.00
   -6   12   12      0.68      0.00
   -6   12   11      1.00      0.00
   -6   12   10      1.24      0.00
   -6   12    9     -0.77      0.00
   -6   12    8     -1.81      0.00
   -6   12    7     -0.22      0.00
   -6   12    6      1.69      0.00
   -6   12    5      0.11      0.00
   -6   12    4      0.75      0.00
   -6   12    3     -2.13      0.00
   -6   12    2     -1.63      0.00
   -6   12    1     -0.63      0.00
    6   12    0      2.49      0.00
    6   12    1      2.68      0.00
    6   12    2     -0.75      0.00
    6   12    3      0.08      0.00
    6   12    4     -0.40      0.00
    6   12    5      0.39      0.00
    6   12    6      0.03      0.00
    6   12    7      0.06      0.00
    6   12    8     -0.07      0.00
    6   12    9      0.20      0.00
    6   12   10      0.47      0.00
    6   12   11      0.85      0.00
    6   12   12     -0.59      0.00
    6   12   13     -0.73      0.00
   -6   14   16      1.27      0.00
   -6   14   15     -0.29      0.00
   -6   14   14     -1.05      0.00
   -6   14   13      0.21      0.00
   -6   14   12      0.91      0.00
   -6   14   11     -0.81      0.00
   -6   14   10      0.93      0.00
   -6   14    9     -0.45      0.00
   -6   14    8     -0.54      0.00
   -6   14    7      1.43      0.00
   -6   14    6      0.71      0.00
   -6   14    5     -1.38      0.00
   -6   14    4      0.38      0.00
   -6   14    3     -1.12      0.00
   -6   14    2     -0.14      0.00
   -6   14    1      1.23      0.00
    6   14    0     -0.35      0.00
    6   14    1      2.30      0.00
    6   14    2      0.43      0.00
    6   14    3      0.29      0.00
    6   14    4      0.15      0.00
    6   14    5     -0.32      0.00
    6   14    6     -1.62      0.00
    6   14    7     -0.00      0.00
    6   14    8     -0.24      0.00
    6   14    9     -0.33      0.00
    6   14   10      0.27      0.00
    6   14   11      0.11      0.00
    6   14   12      0.41      0.00
   -6   16   15     -1.24      0.00
   -6   16   14      0.24      0.00
   -6   16   13      0.26      0.00
   -6   16   12      0.07      0.00
   -6   16   11     -0.19      0.00
   -6   16   10      0.87      0.00
   -6   16    9     -1.83      0.00
   -6   16    8      0.70      0.00
   -6   16    7      1.80      0.00
   -6   16    6     -0.78      0.00
   -6   16    5     -0.41      0.00
   -6   16    4      0.19      0.00
   -6   16    3     -0.34      0.00
   -6   16    2      0.48      0.00
   -6   16    1      0.14      0.00
    6   16    0     -1.52      0.00
    6   16    1     -0.28      0.00
    6   16    2      0.69      0.00
    6   16    3     -0.54      0.00
    6   16    4     -0.57      0.00
    6   16    5      1.28      0.00
    6   16    6     -0.09      0.00
    6   16    7     -0.19      0.00
    6   16    8     -0.57      0.00
    6   16    9     -1.88      0.00
    6   16   10      0.51      0.00
   -6   18   14      0.61      0.00
   -6   18   13     -0.18      0.00
   -6   18   12      0.38      0.00
   -6   18   11     -1.26      0.00
   -6   18   10     -0.72      0.00
   -6   18    9     -0.12      0.00
   -6   18    8      1.84      0.00
   -6   18    7      0.51      0.00
   -6   18    6     -1.84      0.00
   -6   18    5      0.29      0.00
   -6   18    4      0.58      0.00
   -6   18    3     -0.08      0.00
   -6   18    2     -0.81      0.00
   -6   18    1      0.03      0.00
    6   18    0     -0.27      0.00
    6   18    1     -1.01      0.00
    6   18    2      0.84      0.00
    6   18    3      0.41      0.00
    6   18    4     -0.18      0.00
    6   18    5      0.07      0.00
    6   18    6     -0.64      0.00
    6   18    7      0.33      0.00
    6   18    8      2.04      0.00
   -6   20   12     -0.76      0.00
   -6   20   11     -1.56      0.00
   -6   20   10      0.94      0.00
   -6   20    9      0.74      0.00
   -6   20    8      0.09      0.00
   -6   20    7     -0.63      0.00
   -6   20    6     -1.26      0.00
   -6   20    5      1.61      0.00
   -6   20    4     -0.59      0.00
   -6   20    3     -1.04      0.00
   -6   20    2      0.05      0.00
   -6   20    1      0.24      0.00
    6   20    0      0.12      0.00
    6   20    1     -1.53      0.00
    6   20    2      0.39      0.00
    6   20    3      0.31      0.00
    6   20    4      0.05      0.00
    6   20    5      1.24      0.00
    6   20    6      0.57      0.00
   -6   22   10      1.03      0.00
   -6   22    9     -0.50      0.00
   -6   22    8     -0.59      0.00
   -6   22    7     -0.33      0.00
   -6   22    6      0.06      0.00
   -6   22    5      0.81      0.00
   -6   22    4     -1.23      0.00
   -6   22    3     -0.07      0.00
   -6   22    2     -0.17      0.00
   -6   22    1      0.17      0.00
    6   22    0      1.37      0.00
    6   22    1     -0.52      0.00
    6   22    2     -0.46      0.00
    6   22    3      0.07      0.00
   -6   24    3     -0.17      0.00
   -6   24    2      0.35      0.00
   -6   24    1      0.58      0.00
    6   24    0      0.16      0.00
   -7    1   23      0.53      0.00
   -7    1   22      0.76      0.00
   -7    1   21     -0.41      0.00
   -7    1   20      0.89      0.00
   -7    1   19     -0.47      0.00
   -7    1   18     -0.49      0.00
   -7    1   17      0.32      0.00
   -7    1   16      0.35      0.00
   -7    1   15      0.60      0.00
   -7    1   14      1.52      0.00
   -7    1   13     -0.58      0.00
   -7    1   12     -1.44      0.00
   -7    1   11     -0.42      0.00
   -7    1   10      1.12      0.00
   -7    1    9      3.88      0.00
   -7    1    8     11.39      0.00
   -7    1    7    -10.06      0.00
   -7    1    6     -9.86      0.00
   -7    1    5     18.02      0.00
   -7    1    4     29.43      0.00
   -7    1    3     -4.84      0.00
   -7    1    2     20.99      0.00
   -7    1    1      0.74      0.00
    7    1    0      6.82      0.00
    7    1    1     -0.49      0.00
    7    1    2      1.40      0.00
    7    1    3      1.57      0.00
    7    1    4      3.20      0.00
    7    1    5     -0.72      0.00
    7    1    6      0.27      0.00
    7    1    7      1.09      0.00
    7    1    8     -2.03      0.00
    7    1    9     -1.45      0.00
    7    1   10      1.60      0.00
    7    1   11      0.69      0.00
    7    1   12      0.78      0.00
    7    1   13      0.79      0.00
    7    1   14      0.48      0.00
    7    1   15      0.33      0.00
   -7    3   23     -0.14      0.00
   -7    3   22      0.09      0.00
   -7    3   21     -0.08      0.00
   -7    3   20      0.94      0.00
   -7    3   19     -0.48      0.00
   -7    3   18      0.01      0.00
   -7    3   17      0.31      0.00
   -7    3   16      0.40      0.00
   -7    3   15      0.31      0.00
   -7    3   14     -0.50      0.00
   -7    3   13     -2.09      0.00
   -7    3   12     -1.20      0.00
   -7    3   11      3.13      0.00
   -7    3   10      2.63      0.00
   -7    3    9      3.83      0.00
   -7    3    8     -2.13      0.00
   -7    3    7    -11.35      0.00
   -7    3    6     12.05      0.00
   -7    3    5     19.68      0.00
   -7    3    4      0.32      0.00
   -7    3    3      6.33      0.00
   -7    3    2     15.25      0.00
   -7    3    1     -2.07      0.00
    7    3    0      2.92      0.00
    7    3    1      0.15      0.00
    7    3    2     -1.12      0.00
    7    3    3     -2.97      0.00
    7    3    4      3.79      0.00
    7    3    5      3.51      0.00
    7    3    6     -0.83      0.00
    7    3    7      0.86      0.00
    7    3    8      0.78      0.00
    7    3    9     -2.24      0.00
    7    3   10     -0.75      0.00
    7    3   11      0.30      0.00
    7    3   12      0.15      0.00
    7    3   13      0.80      0.00
    7    3   14      0.90      0.00
    7    3   15      2.37      0.00
    7    3   16     -0.16      0.00
   -7    5   22      0.52      0.00
   -7    5   21     -0.01      0.00
   -7    5   20      0.41      0.00
   -7    5   19     -0.71      0.00
   -7    5   18      0.12      0.00
   -7    5   17      0.58      0.00
   -7    5   16     -0.06      0.00
   -7    5   15     -0.55      0.00
   -7    5   14     -1.70      0.00
   -7    5   13     -0.42      0.00
   -7    5   12      1.59      0.00
   -7    5   11      2.96      0.00
   -7    5   10      0.32      0.00
   -7    5    9     -0.53      0.00
   -7    5    8     -7.21      0.00
   -7    5    7      1.22      0.00
   -7    5    6      9.91      0.00
   -7    5    5      2.21      0.00
   -7    5    4     -1.26      0.00
   -7    5    3     13.23      0.00
   -7    5    2     -2.29      0.00
   -7    5    1      0.98      0.00
    7    5    0     -1.82      0.00
    7    5    1     -2.13      0.00
    7    5    2      0.10      0.00
    7    5    3     -2.18      0.00
    7    5    4     -2.19      0.00
    7    5    5      2.61      0.00
    7    5    6      2.28      0.00
    7    5    7     -0.75      0.00
    7    5    8      1.55      0.00
    7    5    9      0.37      0.00
    7    5   10     -1.31      0.00
    7    5   11     -0.43      0.00
    7    5   12      0.21      0.00
    7    5   13      0.10      0.00
    7    5   14     -0.65      0.00
    7    5   15      0.92      0.00
    7    5   16      1.48      0.00
    7    5   17      0.14      0.00
   -7    7   21     -0.11      0.00
   -7    7   20     -0.08      0.00
   -7    7   19     -0.27      0.00
   -7    7   18      0.38      0.00
   -7    7   17      0.50      0.00
   -7    7   16     -0.96      0.00
   -7    7   15     -0.90      0.00
   -7    7   14     -0.19      0.00
   -7    7   13      1.25      0.00
   -7    7   12      1.26      0.00
   -7    7   11      1.21      0.00
   -7    7   10     -2.62      0.00
   -7    7    9     -3.41      0.00
   -7    7    8     -2.40      0.00
   -7    7    7      3.99      0.00
   -7    7    6      1.56      0.00
   -7    7    5      0.84      0.00
   -7    7    4      0.90      0.00
   -7    7    3      4.61      0.00
   -7    7    2     -6.97      0.00
   -7    7    1      2.35      0.00
    7    7    0     -1.65      0.00
    7    7    1     -2.76      0.00
    7    7    2     -2.35      0.00
    7    7    3     -1.10      0.00
    7    7    4     -2.05      0.00
    7    7    5     -0.40      0.00
    7    7    6      2.16      0.00
    7    7    7      0.07      0.00
    7    7    8      0.30      0.00
    7    7    9      0.86      0.00
    7    7   10      0.52      0.00
    7    7   11     -1.06      0.00
    7    7   12     -0.52      0.00
    7    7   13      0.61      0.00
    7    7   14      0.25      0.00
    7    7   15     -0.31      0.00
    7    7   16     -0.03      0.00
   -7    9   20     -0.71      0.00
   -7    9   19     -0.04      0.00
   -7    9   18      0.12      0.00
   -7    9   17     -0.45      0.00
   -7    9   16     -1.12      0.00
   -7    9   15      0.80      0.00
   -7    9   14      0.60      0.00
   -7    9   13      0.36      0.00
   -7    9   12     -0.04      0.00
   -7    9   11     -2.02      0.00
   -7    9   10     -2.18      0.00
   -7    9    9      0.85      0.00
   -7    9    8      0.93      0.00
   -7    9    7      1.49      0.00
   -7    9    6     -0.18      0.00
   -7    9    5     -1.32      0.00
   -7    9    4      0.24      0.00
   -7    9    3     -1.12      0.00
   -7    9    2     -3.11      0.00
   -7    9    1      2.90      0.00
    7    9    0     -0.65      0.00
    7    9    1      0.68      0.00
    7    9    2      0.07      0.00
    7    9    3      1.54      0.00
    7    9    4     -1.92      0.00
    7    9    5     -1.74      0.00
    7    9    6      1.06      0.00
    7    9    7     -0.18      0.00
    7    9    8      0.57      0.00
    7    9    9      0.22      0.00
    7    9   10      0.50      0.00
    7    9   11      0.61      0.00
    7    9   12     -0.85      0.00
    7    9   13     -0.79      0.00
    7    9   14     -0.01      0.00
    7    9   15      0.30      0.00
   -7   11   19      0.21      0.00
   -7   11   18     -0.75      0.00
   -7   11   17     -0.75      0.00
   -7   11   16      0.34      0.00
   -7   11   15      0.93      0.00
   -7   11   14     -0.07      0.00
   -7   11   13     -0.64      0.00
   -7   11   12     -1.05      0.00
   -7   11   11     -0.53      0.00
   -7   11   10      1.50      0.00
   -7   11    9      0.60      0.00
   -7   11    8     -0.43      0.00
   -7   11    7     -0.61      0.00
   -7   11    6     -0.48      0.00
   -7   11    5     -0.35      0.00
   -7   11    4      0.91      0.00
   -7   11    3     -2.42      0.00
   -7   11    2      1.27      0.00
   -7   11    1     -0.62      0.00
    7   11    0     -0.36      0.00
    7   11    1      0.62      0.00
    7   11    2     -1.04      0.00
    7   11    3      2.70      0.00
    7   11    4      1.25      0.00
    7   11    5     -1.03      0.00
    7   11    6      0.50      0.00
    7   11    7     -0.33      0.00
    7   11    8     -0.54      0.00
    7   11    9      0.49      0.00
    7   11   10      0.25      0.00
    7   11   11      0.45      0.00
    7   11   12     -0.16      0.00
    7   11   13     -0.32      0.00
    7   11   14     -0.67      0.00
   -7   13   18     -0.60      0.00
   -7   13   17     -0.04      0.00
   -7   13   16      1.20      0.00
   -7   13   15      0.51      0.00
   -7   13   14     -0.66      0.00
   -7   13   13     -0.97      0.00
   -7   13   12      0.34      0.00
   -7   13   11     -0.19      0.00
   -7   13   10      0.76      0.00
   -7   13    9     -0.24      0.00
   -7   13    8     -0.64      0.00
   -7   13    7      0.48      0.00
   -7   13    6      1.35      0.00
   -7   13    5     -0.91      0.00
   -7   13    4     -0.48      0.00
   -7   13    3     -1.12      0.00
   -7   13    2      0.72      0.00
   -7   13    1     -0.38      0.00
    7   13    0      0.64      0.00
    7   13    1      1.69      0.00
    7   13    2     -1.29      0.00
    7   13    3      0.84      0.00
    7   13    4      0.92      0.00
    7   13    5     -1.11      0.00
    7   13    6     -0.57      0.00
    7   13    7      0.85      0.00
    7   13    8     -0.31      0.00
    7   13    9     -0.62      0.00
    7   13   10      0.06      0.00
    7   13   11      0.61      0.00
    7   13   12      0.16      0.00
   -7   15   16      1.24      0.00
   -7   15   15     -0.92      0.00
   -7   15   14     -0.33      0.00
   -7   15   13     -0.14      0.00
   -7   15   12     -0.26      0.00
   -7   15   11     -0.23      0.00
   -7   15   10      1.65      0.00
   -7   15    9     -1.37      0.00
   -7   15    8      0.05      0.00
   -7   15    7      1.98      0.00
   -7   15    6     -0.81      0.00
   -7   15    5     -1.24      0.00
   -7   15    4      0.38      0.00
   -7   15    3      0.05      0.00
   -7   15    2      0.81      0.00
   -7   15    1      0.48      0.00
    7   15    0     -1.37      0.00
    7   15    1      0.83      0.00
    7   15    2     -1.11      0.00
    7   15    3     -0.82      0.00
    7   15    4      1.54      0.00
    7   15    5      1.11      0.00
    7   15    6     -1.86      0.00
    7   15    7     -0.92      0.00
    7   15    8     -0.05      0.00
    7   15    9     -0.56      0.00
    7   15   10      0.33      0.00
   -7   17   15     -0.61      0.00
   -7   17   14      0.40      0.00
   -7   17   13     -1.19      0.00
   -7   17   12      0.44      0.00
   -7   17   11      0.65      0.00
   -7   17   10     -0.93      0.00
   -7   17    9     -1.37      0.00
   -7   17    8      2.19      0.00
   -7   17    7      0.66      0.00
   -7   17    6     -1.91      0.00
   -7   17    5      0.67      0.00
   -7   17    4      0.36      0.00
   -7   17    3      0.49      0.00
   -7   17    2     -0.10      0.00
   -7   17    1     -0.48      0.00
    7   17    0     -0.91      0.00
    7   17    1      0.04      0.00
    7   17    2      0.43      0.00
    7   17    3     -1.32      0.00
    7   17    4     -1.06      0.00
    7   17    5      1.21      0.00
    7   17    6      0.71      0.00
    7   17    7      0.15      0.00
    7   17    8      0.21      0.00
   -7   19   12      0.89      0.00
   -7   19   11     -1.94      0.00
   -7   19   10     -1.05      0.00
   -7   19    9      1.83      0.00
   -7   19    8      0.74      0.00
   -7   19    7     -1.06      0.00
   -7   19    6     -0.70      0.00
   -7   19    5      1.40      0.00
   -7   19    4     -0.38      0.00
   -7   19    3     -0.21      0.00
   -7   19    2     -0.51      0.00
   -7   19    1      0.11      0.00
    7   19    0     -0.20      0.00
    7   19    1     -0.62      0.00
    7   19    2      1.10      0.00
    7   19    3      0.32      0.00
    7   19    4     -0.15      0.00
    7   19    5      0.23      0.00
    7   19    6     -0.44      0.00
   -7   21    8     -1.46      0.00
   -7   21    7      0.09      0.00
   -7   21    6      0.25      0.00
   -7   21    5      0.30      0.00
   -7   21    4     -1.00      0.00
   -7   21    3      0.19      0.00
   -7   21    2     -0.00      0.00
   -7   21    1      0.05      0.00
    7   21    0      0.64      0.00
    7   21    1     -0.92      0.00
    7   21    2      0.41      0.00
    7   21    3      0.35      0.00
    7   21    4     -0.39      0.00
   -7   23    6     -0.21      0.00
   -7   23    5     -0.35      0.00
   -7   23    4      0.06      0.00
   -7   23    3      0.06      0.00
   -7   23    2     -0.26      0.00
   -7   23    1      0.59      0.00
    7   23    0      0.72      0.00
   -8    0   22      0.72      0.00
   -8    0   20      1.68      0.00
   -8    0   18     -0.74      0.00
   -8    0   16     -0.85      0.00
   -8    0   14      1.47      0.00
   -8    0   12      3.11      0.00
   -8    0   10     -5.82      0.00
   -8    0    8     14.57      0.00
   -8    0    6     -4.74      0.00
   -8    0    4     20.27      0.00
   -8    0    2     19.98      0.00
    8    0    0      6.77      0.00
    8    0    2     -1.54      0.00
    8    0    4      0.33      0.00
    8    0    6      2.77      0.00
    8    0    8     -1.19      0.00
    8    0   10      0.39      0.00
    8    0   12     -0.12      0.00
    8    0   14      1.19      0.00
   -8    2   23      0.20      0.00
   -8    2   22      0.96      0.00
   -8    2   21      0.29      0.00
   -8    2   20      0.67      0.00
   -8    2   19     -0.94      0.00
   -8    2   18     -0.27      0.00
   -8    2   17     -0.00      0.00
   -8    2   16     -0.06      0.00
   -8    2   15      0.98      0.00
   -8    2   14      0.89      0.00
   -8    2   13      0.54      0.00
   -8    2   12     -0.32      0.00
   -8    2   11     -3.50      0.00
   -8    2   10     -0.94      0.00
   -8    2    9      8.78      0.00
   -8    2    8      5.87      0.00
   -8    2    7     -9.25      0.00
   -8    2    6      6.54      0.00
   -8    2    5     13.05      0.00
   -8    2    4      4.35      0.00
   -8    2    3      6.83      0.00
   -8    2    2     18.62      0.00
   -8    2    1     -2.29      0.00
    8    2    0      3.55      0.00
    8    2    1      2.66      0.00
    8    2    2     -0.61      0.00
    8    2    3     -0.65      0.00
    8    2    4      0.71      0.00
    8    2    5     -1.79      0.00
    8    2    6      1.42      0.00
    8    2    7      2.26      0.00
    8    2    8      0.03      0.00
    8    2    9     -0.32      0.00
    8    2   10     -0.38      0.00
    8    2   11      0.19      0.00
    8    2   12     -0.20      0.00
    8    2   13     -0.28      0.00
    8    2   14      1.02      0.00
    8    2   15      1.58      0.00
   -8    4   23      0.56      0.00
   -8    4   22      0.67      0.00
   -8    4   21     -0.28      0.00
   -8    4   20      0.48      0.00
   -8    4   19     -0.45      0.00
   -8    4   18      0.16      0.00
   -8    4   17     -0.15      0.00
   -8    4   16     -0.23      0.00
   -8    4   15      0.80      0.00
   -8    4   14     -0.38      0.00
   -8    4   13     -0.35      0.00
   -8    4   12     -1.57      0.00
   -8    4   11     -0.27      0.00
   -8    4   10      3.86      0.00
   -8    4    9      5.60      0.00
   -8    4    8     -6.11      0.00
   -8    4    7     -1.07      0.00
   -8    4    6      8.48      0.00
   -8    4    5      0.58      0.00
   -8    4    4      3.31      0.00
   -8    4    3     18.82      0.00
   -8    4    2     -1.37      0.00
   -8    4    1     -1.84      0.00
    8    4    0      0.29      0.00
    8    4    1      1.32      0.00
    8    4    2      0.81      0.00
    8    4    3     -0.75      0.00
    8    4    4      1.63      0.00
    8    4    5     -0.65      0.00
    8    4    6     -1.53      0.00
    8    4    7      0.72      0.00
    8    4    8      1.16      0.00
    8    4    9      0.87      0.00
    8    4   10      0.27      0.00
    8    4   11      0.14      0.00
    8    4   12      0.23      0.00
    8    4   13     -0.63      0.00
    8    4   14     -1.25      0.00
    8    4   15      1.13      0.00
    8    4   16      0.89      0.00
   -8    6   22     -0.13      0.00
   -8    6   21      0.13      0.00
   -8    6   20      0.15      0.00
   -8    6   19     -0.53      0.00
   -8    6   18     -0.18      0.00
   -8    6   17      0.24      0.00
   -8    6   16      0.69      0.00
   -8    6   15      0.22      0.00
   -8    6   14     -1.04      0.00
   -8    6   13     -0.38      0.00
   -8    6   12     -1.40      0.00
   -8    6   11      2.71      0.00
   -8    6   10      2.58      0.00
   -8    6    9     -2.00      0.00
   -8    6    8     -5.44      0.00
   -8    6    7      3.11      0.00
   -8    6    6     -1.19      0.00
   -8    6    5      3.11      0.00
   -8    6    4      8.26      0.00
   -8    6    3      5.59      0.00
   -8    6    2     -9.76      0.00
   -8    6    1      4.47      0.00
    8    6    0     -3.26      0.00
    8    6    1     -1.32      0.00
    8    6    2     -0.42      0.00
    8    6    3     -1.20      0.00
    8    6    4      0.89      0.00
    8    6    5      0.95      0.00
    8    6    6     -0.19      0.00
    8    6    7     -0.61      0.00
    8    6    8     -0.03      0.00
    8    6    9      0.45      0.00
    8    6   10      0.62      0.00
    8    6   11      0.07      0.00
    8    6   12      0.67      0.00
    8    6   13      1.00      0.00
    8    6   14     -0.87      0.00
    8    6   15     -1.21      0.00
    8    6   16      0.03      0.00
   -8    8   21      0.25      0.00
   -8    8   20     -0.76      0.00
   -8    8   19     -0.12      0.00
   -8    8   18      0.55      0.00
   -8    8   17      0.66      0.00
   -8    8   16     -0.46      0.00
   -8    8   15     -0.65      0.00
   -8    8   14     -0.97      0.00
   -8    8   13     -0.50      0.00
   -8    8   12      1.01      0.00
   -8    8   11      2.18      0.00
   -8    8   10     -1.96      0.00
   -8    8    9     -2.93      0.00
   -8    8    8     -1.61      0.00
   -8    8    7      1.08      0.00
   -8    8    6      0.38      0.00
   -8    8    5      4.94      0.00
   -8    8    4      1.85      0.00
   -8    8    3     -3.54      0.00
   -8    8    2     -4.55      0.00
   -8    8    1      3.66      0.00
    8    8    0     -2.69      0.00
    8    8    1     -0.95      0.00
    8    8    2      1.00      0.00
    8    8    3     -0.81      0.00
    8    8    4     -1.37      0.00
    8    8    5      0.91      0.00
    8    8    6      0.34      0.00
    8    8    7     -0.81      0.00
    8    8    8      0.29      0.00
    8    8    9     -0.39      0.00
    8    8   10      0.75      0.00
    8    8   11      0.36      0.00
    8    8   12     -0.74      0.00
    8    8   13      0.59      0.00
    8    8   14      0.87      0.00
    8    8   15     -0.39      0.00
   -8   10   20     -1.06      0.00
   -8   10   19      0.59      0.00
   -8   10   18     -0.26      0.00
   -8   10   17     -0.43      0.00
   -8   10   16     -0.25      0.00
   -8   10   15     -0.46      0.00
   -8   10   14     -0.23      0.00
   -8   10   13      0.62      0.00
   -8   10   12      0.31      0.00
   -8   10   11     -0.97      0.00
   -8   10   10     -1.27      0.00
   -8   10    9     -0.68      0.00
   -8   10    8      0.33      0.00
   -8   10    7      0.57      0.00
   -8   10    6      1.10      0.00
   -8   10    5      0.90      0.00
   -8   10    4     -1.19      0.00
   -8   10    3     -4.60      0.00
   -8   10    2      2.23      0.00
   -8   10    1      0.71      0.00
    8   10    0     -1.58      0.00
    8   10    1     -1.46      0.00
    8   10    2      0.46      0.00
    8   10    3      3.68      0.00
    8   10    4     -0.50      0.00
    8   10    5     -0.78      0.00
    8   10    6      1.57      0.00
    8   10    7     -1.01      0.00
    8   10    8      0.09      0.00
    8   10    9     -0.26      0.00
    8   10   10     -0.73      0.00
    8   10   11      1.05      0.00
    8   10   12     -0.21      0.00
    8   10   13     -0.57      0.00
    8   10   14      0.15      0.00
   -8   12   19      0.08      0.00
   -8   12   18     -0.58      0.00
   -8   12   17      0.12      0.00
   -8   12   16     -0.06      0.00
   -8   12   15      0.07      0.00
   -8   12   14      0.73      0.00
   -8   12   13     -0.80      0.00
   -8   12   12     -0.40      0.00
   -8   12   11     -0.31      0.00
   -8   12   10     -0.06      0.00
   -8   12    9     -0.27      0.00
   -8   12    8      0.00      0.00
   -8   12    7     -0.28      0.00
   -8   12    6      1.79      0.00
   -8   12    5     -0.35      0.00
   -8   12    4     -1.58      0.00
   -8   12    3     -1.26      0.00
   -8   12    2      2.37      0.00
   -8   12    1     -2.22      0.00
    8   12    0      1.01      0.00
    8   12    1     -0.17      0.00
    8   12    2     -2.53      0.00
    8   12    3      1.55      0.00
    8   12    4      1.64      0.00
    8   12    5     -0.86      0.00
    8   12    6      0.75      0.00
    8   12    7      0.24      0.00
    8   12    8     -0.25      0.00
    8   12    9      0.25      0.00
    8   12   10     -0.49      0.00
    8   12   11      0.02      0.00
    8   12   12     -0.11      0.00
   -8   14   18      0.20      0.00
   -8   14   17     -0.07      0.00
   -8   14   16      0.67      0.00
   -8   14   15      0.36      0.00
   -8   14   14     -0.27      0.00
   -8   14   13     -0.92      0.00
   -8   14   12      0.20      0.00
   -8   14   11     -0.93      0.00
   -8   14   10      0.46      0.00
   -8   14    9     -0.32      0.00
   -8   14    8      0.04      0.00
   -8   14    7      1.73      0.00
   -8   14    6      0.96      0.00
   -8   14    5     -2.10      0.00
   -8   14    4     -1.01      0.00
   -8   14    3      0.44      0.00
   -8   14    2      0.37      0.00
   -8   14    1      0.30      0.00
    8   14    0      0.59      0.00
    8   14    1      1.11      0.00
    8   14    2     -2.14      0.00
    8   14    3     -0.14      0.00
    8   14    4      1.16      0.00
    8   14    5     -0.53      0.00
    8   14    6     -1.12      0.00
    8   14    7     -0.01      0.00
    8   14    8      0.36      0.00
    8   14    9     -0.17      0.00
    8   14   10     -0.10      0.00
   -8   16   16      0.78      0.00
   -8   16   15     -0.22      0.00
   -8   16   14      0.07      0.00
   -8   16   13     -1.19      0.00
   -8   16   12     -0.45      0.00
   -8   16   11      0.10      0.00
   -8   16   10      0.47      0.00
   -8   16    9     -0.86      0.00
   -8   16    8      1.39      0.00
   -8   16    7      1.19      0.00
   -8   16    6     -1.83      0.00
   -8   16    5     -0.58      0.00
   -8   16    4      0.53      0.00
   -8   16    3      1.00      0.00
   -8   16    2      0.01      0.00
   -8   16    1      0.56      0.00
    8   16    0     -0.91      0.00
    8   16    1      1.22      0.00
    8   16    2     -1.09      0.00
    8   16    3     -1.89      0.00
    8   16    4      0.19      0.00
    8   16    5      1.61      0.00
    8   16    6     -0.29      0.00
    8   16    7     -1.34      0.00
    8   16    8     -0.08      0.00
   -8   18   15     -0.21      0.00
   -8   18   14     -0.82      0.00
   -8   18   13     -1.43      0.00
   -8   18   12      1.06      0.00
   -8   18   11     -0.39      0.00
   -8   18   10     -1.26      0.00
   -8   18    9      1.10      0.00
   -8   18    8      1.05      0.00
   -8   18    7     -0.88      0.00
   -8   18    6     -0.62      0.00
   -8   18    5      1.30      0.00
   -8   18    4     -0.22      0.00
   -8   18    3      0.31      0.00
   -8   18    2     -0.49      0.00
   -8   18    1      0.24      0.00
    8   18    0     -0.66      0.00
    8   18    1      0.53      0.00
    8   18    2      1.18      0.00
    8   18    3     -0.18      0.00
    8   18    4     -1.32      0.00
    8   18    5     -0.24      0.00
    8   18    6      0.95      0.00
   -8   20   10      0.65      0.00
   -8   20    9      1.51      0.00
   -8   20    8     -1.68      0.00
   -8   20    7      0.43      0.00
   -8   20    6      0.81      0.00
   -8   20    5     -0.08      0.00
   -8   20    4     -0.79      0.00
   -8   20    3      0.22      0.00
   -8   20    2     -0.03      0.00
   -8   20    1      0.49      0.00
    8   20    0     -0.07      0.00
    8   20    1     -0.22      0.00
    8   20    2      0.77      0.00
    8   20    3      0.74      0.00
    8   20    4      0.53      0.00
   -8   22    8     -0.52      0.00
   -8   22    7      1.59      0.00
   -8   22    6     -0.70      0.00
   -8   22    5     -0.87      0.00
   -8   22    4      0.15      0.00
   -8   22    3      0.49      0.00
   -8   22    2      0.26      0.00
   -8   22    1      0.33      0.00
    8   22    0      0.13      0.00
    8   22    1     -0.30      0.00
   -8   24    4      0.79      0.00
   -8   24    3     -0.13      0.00
   -9    1   23     -0.33      0.00
   -9    1   22      0.57      0.00
   -9    1   21      0.68      0.00
   -9    1   20      1.11      0.00
   -9    1   19     -0.31      0.00
   -9    1   18     -0.02      0.00
   -9    1   17     -0.33      0.00
   -9    1   16     -0.37      0.00
   -9    1   15     -0.25      0.00
   -9    1   14     -0.88      0.00
   -9    1   13      2.16      0.00
   -9    1   12      3.83      0.00
   -9    1   11     -1.86      0.00
   -9    1   10     -1.39      0.00
   -9    1    9      0.37      0.00
   -9    1    8      1.80      0.00
   -9    1    7      2.57      0.00
   -9    1    6     10.83      0.00
   -9    1    5      2.59      0.00
   -9    1    4      6.90      0.00
   -9    1    3      2.38      0.00
   -9    1    2     12.80      0.00
   -9    1    1      0.86      0.00
    9    1    0      5.60      0.00
    9    1    1      2.50      0.00
    9    1    2      0.44      0.00
    9    1    3     -0.40      0.00
    9    1    4     -1.55      0.00
    9    1    5     -0.06      0.00
    9    1    6      0.45      0.00
    9    1    7     -0.33      0.00
    9    1    8      1.10      0.00
    9    1    9      0.33      0.00
    9    1   10      0.60      0.00
    9    1   11      0.63      0.00
    9    1   12     -0.63      0.00
    9    1   13     -0.17      0.00
    9    1   14     -0.07      0.00
   -9    3   23      0.71      0.00
   -9    3   22      1.25      0.00
   -9    3   21      0.14      0.00
   -9    3   20      0.36      0.00
   -9    3   19     -0.41      0.00
   -9    3   18      0.19      0.00
   -9    3   17     -0.23      0.00
   -9    3   16     -0.74      0.00
   -9    3   15     -0.34      0.00
   -9    3   14      0.50      0.00
   -9    3   13      2.90      0.00
   -9    3   12     -0.55      0.00
   -9    3   11     -2.25      0.00
   -9    3   10      0.26      0.00
   -9    3    9      2.33      0.00
   -9    3    8      1.52      0.00
   -9    3    7      6.19      0.00
   -9    3    6      5.63      0.00
   -9    3    5     -1.83      0.00
   -9    3    4      3.23      0.00
   -9    3    3     13.20      0.00
   -9    3    2      4.74      0.00
   -9    3    1      0.41      0.00
    9    3    0      0.48      0.00
    9    3    1      1.63      0.00
    9    3    2      1.97      0.00
    9    3    3      3.21      0.00
    9    3    4      0.02      0.00
    9    3    5     -2.29      0.00
    9    3    6     -0.19      0.00
    9    3    7     -0.52      0.00
    9    3    8      0.09      0.00
    9    3    9      1.11      0.00
    9    3   10      0.32      0.00
    9    3   11      1.38      0.00
    9    3   12      0.68      0.00
    9    3   13     -0.20      0.00
    9    3   14     -0.99      0.00
   -9    5   23      0.98      0.00
   -9    5   22      0.01      0.00
   -9    5   21      0.38      0.00
   -9    5   20      0.33      0.00
   -9    5   19     -0.05      0.00
   -9    5   18     -0.09      0.00
   -9    5   17     -1.21      0.00
   -9    5   16     -0.48      0.00
   -9    5   15      0.77      0.00
   -9    5   14      1.20      0.00
   -9    5   13      1.64      0.00
   -9    5   12     -2.77      0.00
   -9    5   11     -0.00      0.00
   -9    5   10      0.83      0.00
   -9    5    9      1.08      0.00
   -9    5    8      0.48      0.00
   -9    5    7      4.09      0.00
   -9    5    6     -4.91      0.00
   -9    5    5      1.73      0.00
   -9    5    4      9.32      0.00
   -9    5    3      8.14      0.00
   -9    5    2     -6.45      0.00
   -9    5    1      4.04      0.00
    9    5    0     -2.82      0.00
    9    5    1     -0.62      0.00
    9    5    2     -1.29      0.00
    9    5    3      1.03      0.00
    9    5    4      3.39      0.00
    9    5    5      0.38      0.00
    9    5    6     -0.24      0.00
    9    5    7     -0.35      0.00
    9    5    8     -1.39      0.00
    9    5    9      0.02      0.00
    9    5   10      0.37      0.00
    9    5   11      0.56      0.00
    9    5   12      1.17      0.00
    9    5   13      1.39      0.00
    9    5   14     -0.29      0.00
    9    5   15     -1.03      0.00
   -9    7   22      0.01      0.00
   -9    7   21      0.64      0.00
   -9    7   20     -0.60      0.00
   -9    7   19     -0.17      0.00
   -9    7   18     -0.51      0.00
   -9    7   17     -0.07      0.00
   -9    7   16      0.94      0.00
   -9    7   15      1.04      0.00
   -9    7   14      0.09      0.00
   -9    7   13     -1.57      0.00
   -9    7   12     -2.52      0.00
   -9    7   11      1.77      0.00
   -9    7   10      0.21      0.00
   -9    7    9      0.50      0.00
   -9    7    8     -0.63      0.00
   -9    7    7     -1.55      0.00
   -9    7    6     -3.23      0.00
   -9    7    5      7.67      0.00
   -9    7    4      3.79      0.00
   -9    7    3     -1.61      0.00
   -9    7    2     -3.10      0.00
   -9    7    1      3.65      0.00
    9    7    0     -4.56      0.00
    9    7    1     -1.06      0.00
    9    7    2     -0.65      0.00
    9    7    3     -1.69      0.00
    9    7    4      1.15      0.00
    9    7    5      1.06      0.00
    9    7    6      0.04      0.00
    9    7    7      0.54      0.00
    9    7    8     -0.04      0.00
    9    7    9     -0.71      0.00
    9    7   10     -0.24      0.00
    9    7   11     -0.07      0.00
    9    7   12      0.16      0.00
    9    7   13      1.02      0.00
    9    7   14      0.99      0.00
    9    7   15     -0.26      0.00
   -9    9   21      0.03      0.00
   -9    9   20     -1.04      0.00
   -9    9   19      0.38      0.00
   -9    9   18     -0.41      0.00
   -9    9   17      0.37      0.00
   -9    9   16      0.80      0.00
   -9    9   15     -0.68      0.00
   -9    9   14     -1.64      0.00
   -9    9   13     -1.20      0.00
   -9    9   12      0.54      0.00
   -9    9   11      1.54      0.00
   -9    9   10     -0.79      0.00
   -9    9    9     -1.12      0.00
   -9    9    8     -1.38      0.00
   -9    9    7     -1.50      0.00
   -9    9    6      2.04      0.00
   -9    9    5      3.96      0.00
   -9    9    4     -0.89      0.00
   -9    9    3     -3.31      0.00
   -9    9    2      1.17      0.00
   -9    9    1     -0.62      0.00
    9    9    0     -2.18      0.00
    9    9    1     -1.67      0.00
    9    9    2      1.00      0.00
    9    9    3      0.32      0.00
    9    9    4     -0.74      0.00
    9    9    5      0.93      0.00
    9    9    6      0.95      0.00
    9    9    7     -0.55      0.00
    9    9    8      0.30      0.00
    9    9    9     -0.60      0.00
    9    9   10     -0.24      0.00
    9    9   11      0.12      0.00
    9    9   12     -0.81      0.00
    9    9   13      0.12      0.00
   -9   11   20     -0.68      0.00
   -9   11   19     -0.06      0.00
   -9   11   18     -0.42      0.00
   -9   11   17      1.12      0.00
   -9   11   16     -0.20      0.00
   -9   11   15     -1.38      0.00
   -9   11   14      0.06      0.00
   -9   11   13     -0.32      0.00
   -9   11   12      0.34      0.00
   -9   11   11     -0.24      0.00
   -9   11   10     -0.86      0.00
   -9   11    9     -0.55      0.00
   -9   11    8     -0.43      0.00
   -9   11    7     -0.76      0.00
   -9   11    6      2.89      0.00
   -9   11    5     -0.02      0.00
   -9   11    4     -1.48      0.00
   -9   11    3     -1.41      0.00
   -9   11    2      2.17      0.00
   -9   11    1     -2.60      0.00
    9   11    0      0.90      0.00
    9   11    1     -1.03      0.00
    9   11    2     -1.20      0.00
    9   11    3      1.82      0.00
    9   11    4      0.82      0.00
    9   11    5     -0.82      0.00
    9   11    6      0.97      0.00
    9   11    7      0.13      0.00
    9   11    8      0.92      0.00
    9   11    9      0.03      0.00
    9   11   10     -1.16      0.00
    9   11   11      0.27      0.00
    9   11   12     -0.60      0.00
   -9   13   19     -0.24      0.00
   -9   13   18      0.91      0.00
   -9   13   17      0.22      0.00
   -9   13   16     -0.87      0.00
   -9   13   15      0.13      0.00
   -9   13   14      0.21      0.00
   -9   13   13     -1.10      0.00
   -9   13   12      0.77      0.00
   -9   13   11     -0.56      0.00
   -9   13   10     -0.62      0.00
   -9   13    9     -0.78      0.00
   -9   13    8     -0.30      0.00
   -9   13    7      1.03      0.00
   -9   13    6      2.35      0.00
   -9   13    5     -1.50      0.00
   -9   13    4     -1.00      0.00
   -9   13    3      0.34      0.00
   -9   13    2     -0.40      0.00
   -9   13    1     -0.96      0.00
    9   13    0      1.70      0.00
    9   13    1      0.59      0.00
    9   13    2     -1.58      0.00
    9   13    3     -0.44      0.00
    9   13    4      0.48      0.00
    9   13    5     -0.04      0.00
    9   13    6      0.04      0.00
    9   13    7     -0.54      0.00
    9   13    8      0.36      0.00
    9   13    9      0.79      0.00
    9   13   10     -0.04      0.00
   -9   15   18      0.75      0.00
   -9   15   17     -0.95      0.00
   -9   15   16      0.40      0.00
   -9   15   15      0.50      0.00
   -9   15   14     -0.35      0.00
   -9   15   13     -0.51      0.00
   -9   15   12      0.28      0.00
   -9   15   11     -1.75      0.00
   -9   15   10     -0.23      0.00
   -9   15    9      0.27      0.00
   -9   15    8      1.01      0.00
   -9   15    7      1.58      0.00
   -9   15    6     -0.37      0.00
   -9   15    5     -1.70      0.00
   -9   15    4     -0.12      0.00
   -9   15    3      0.87      0.00
   -9   15    2     -0.94      0.00
   -9   15    1      1.74      0.00
    9   15    0     -0.05      0.00
    9   15    1      1.15      0.00
    9   15    2     -1.37      0.00
    9   15    3     -0.45      0.00
    9   15    4      0.05      0.00
    9   15    5     -0.21      0.00
    9   15    6     -0.58      0.00
    9   15    7     -0.76      0.00
    9   15    8      0.21      0.00
    9   15    9     -0.14      0.00
   -9   17   16      1.09      0.00
   -9   17   15     -0.15      0.00
   -9   17   14     -0.59      0.00
   -9   17   13     -0.94      0.00
   -9   17   12     -0.54      0.00
   -9   17   11     -0.97      0.00
   -9   17   10      0.46      0.00
   -9   17    9      0.91      0.00
   -9   17    8      0.58      0.00
   -9   17    7     -0.02      0.00
   -9   17    6     -0.99      0.00
   -9   17    5      0.60      0.00
   -9   17    4      0.35      0.00
   -9   17    3      0.38      0.00
   -9   17    2     -0.49      0.00
   -9   17    1      0.90      0.00
    9   17    0     -1.25      0.00
    9   17    1      0.95      0.00
    9   17    2      0.22      0.00
    9   17    3     -0.91      0.00
    9   17    4     -0.75      0.00
    9   17    5      0.84      0.00
    9   17    6      0.54      0.00
   -9   19   15     -0.55      0.00
   -9   19   12     -0.19      0.00
   -9   19   11     -0.51      0.00
   -9   19   10      0.79      0.00
   -9   19    9      1.06      0.00
   -9   19    8     -1.24      0.00
   -9   19    7      0.42      0.00
   -9   19    6      0.75      0.00
   -9   19    5      0.27      0.00
   -9   19    4     -0.56      0.00
   -9   19    3      0.04      0.00
   -9   19    2     -0.31      0.00
   -9   19    1      0.46      0.00
    9   19    0     -0.09      0.00
    9   19    1      0.17      0.00
    9   19    2      0.94      0.00
    9   19    3      0.95      0.00
    9   19    4     -0.46      0.00
   -9   21    9     -0.68      0.00
   -9   21    8     -0.72      0.00
   -9   21    7      2.09      0.00
   -9   21    6     -0.31      0.00
   -9   21    5     -0.71      0.00
   -9   21    4     -0.06      0.00
   -9   21    3     -0.08      0.00
   -9   21    2      0.46      0.00
   -9   21    1      0.74      0.00
    9   21    0      0.02      0.00
    9   21    1      0.05      0.00
   -9   23    7      0.32      0.00
   -9   23    6     -1.05      0.00
   -9   23    5     -0.22      0.00
   -9   23    4      0.27      0.00
   -9   23    3      0.38      0.00
  -10    0   22      0.18      0.00
  -10    0   20      0.44      0.00
  -10    0   18     -0.06      0.00
  -10    0   16      1.28      0.00
  -10    0   14     -1.95      0.00
  -10    0   12      0.84      0.00
  -10    0   10      6.44      0.00
  -10    0    8     -6.37      0.00
  -10    0    6     13.16      0.00
  -10    0    4      8.15      0.00
  -10    0    2      7.36      0.00
   10    0    0      3.56      0.00
   10    0    2      0.32      0.00
   10    0    4      0.97      0.00
   10    0    6     -2.08      0.00
   10    0    8      0.88      0.00
   10    0   10      0.98      0.00
   10    0   12      0.73      0.00
  -10    2   22      0.93      0.00
  -10    2   21      0.30      0.00
  -10    2   20      0.45      0.00
  -10    2   19     -0.09      0.00
  -10    2   18      0.12      0.00
  -10    2   17      0.49      0.00
  -10    2   16     -0.15      0.00
  -10    2   15     -1.47      0.00
  -10    2   14     -0.54      0.00
  -10    2   13      2.02      0.00
  -10    2   12      0.60      0.00
  -10    2   11      2.72      0.00
  -10    2   10      1.89      0.00
  -10    2    9     -5.61      0.00
  -10    2    8     -0.02      0.00
  -10    2    7     10.27      0.00
  -10    2    6      6.82      0.00
  -10    2    5      0.29      0.00
  -10    2    4      5.76      0.00
  -10    2    3      4.07      0.00
  -10    2    2      4.99      0.00
  -10    2    1      1.05      0.00
   10    2    0      0.99      0.00
   10    2    1      1.09      0.00
   10    2    2      2.67      0.00
   10    2    3      0.89      0.00
   10    2    4     -0.89      0.00
   10    2    5      1.23      0.00
   10    2    6     -0.43      0.00
   10    2    7     -1.41      0.00
   10    2    8      0.01      0.00
   10    2    9     -0.01      0.00
   10    2   10      0.76      0.00
   10    2   11      0.97      0.00
   10    2   12      0.90      0.00
   10    2   13      0.99      0.00
  -10    4   23      0.91      0.00
  -10    4   22      0.28      0.00
  -10    4   21      0.55      0.00
  -10    4   20      0.26      0.00
  -10    4   19     -0.01      0.00
  -10    4   18      0.62      0.00
  -10    4   17     -0.52      0.00
  -10    4   16     -1.22      0.00
  -10    4   15     -0.70      0.00
  -10    4   14      0.54      0.00
  -10    4   13      2.47      0.00
  -10    4   12      0.23      0.00
  -10    4   11      2.37      0.00
  -10    4   10     -3.08      0.00
  -10    4    9     -2.02      0.00
  -10    4    8      4.99      0.00
  -10    4    7      6.36      0.00
  -10    4    6     -2.99      0.00
  -10    4    5      3.04      0.00
  -10    4    4      4.87      0.00
  -10    4    3      6.22      0.00
  -10    4    2     -1.00      0.00
  -10    4    1      1.89      0.00
   10    4    0     -1.38      0.00
   10    4    1     -1.36      0.00
   10    4    2     -0.45      0.00
   10    4    3      2.43      0.00
   10    4    4      1.43      0.00
   10    4    5      0.73      0.00
   10    4    6      1.04      0.00
   10    4    7     -0.45      0.00
   10    4    8     -1.11      0.00
   10    4    9     -0.24      0.00
   10    4   10     -0.45      0.00
   10    4   11      0.16      0.00
   10    4   12      0.75      0.00
   10    4   13      2.27      0.00
   10    4   14      0.51      0.00
  -10    6   23      0.08      0.00
  -10    6   22      0.39      0.00
  -10    6   21      0.84      0.00
  -10    6   20     -0.36      0.00
  -10    6   19      0.64      0.00
  -10    6   18     -0.20      0.00
  -10    6   17     -1.47      0.00
  -10    6   16     -0.71      0.00
  -10    6   15      0.78      0.00
  -10    6   14      1.76      0.00
  -10    6   13      1.58      0.00
  -10    6   12     -1.19      0.00
  -10    6   11     -0.68      0.00
  -10    6   10     -3.82      0.00
  -10    6    9      2.41      0.00
  -10    6    8      2.47      0.00
  -10    6    7     -0.21      0.00
  -10    6    6     -2.61      0.00
  -10    6    5      6.68      0.00
  -10    6    4      2.27      0.00
  -10    6    3      1.04      0.00
  -10    6    2     -2.86      0.00
  -10    6    1      3.25      0.00
   10    6    0     -2.65      0.00
   10    6    1     -1.05      0.00
   10    6    2     -1.27      0.00
   10    6    3     -0.65      0.00
   10    6    4      0.63      0.00
   10    6    5      0.62      0.00
   10    6    6      0.96      0.00
   10    6    7      1.38      0.00
   10    6    8     -0.11      0.00
   10    6    9     -0.63      0.00
   10    6   10     -0.31      0.00
   10    6   11      0.06      0.00
   10    6   12     -0.87      0.00
   10    6   13      0.29      0.00
   10    6   14      1.63      0.00
  -10    8   22      0.42      0.00
  -10    8   21      0.13      0.00
  -10    8   20     -0.35      0.00
  -10    8   19      0.53      0.00
  -10    8   18     -1.31      0.00
  -10    8   17     -0.64      0.00
  -10    8   16      1.23      0.00
  -10    8   15      1.08      0.00
  -10    8   14     -0.15      0.00
  -10    8   13     -1.50      0.00
  -10    8   12     -2.18      0.00
  -10    8   11     -0.18      0.00
  -10    8   10      0.05      0.00
  -10    8    9      1.72      0.00
  -10    8    8     -0.75      0.00
  -10    8    7     -1.62      0.00
  -10    8    6      1.16      0.00
  -10    8    5      3.38      0.00
  -10    8    4     -1.36      0.00
  -10    8    3     -0.77      0.00
  -10    8    2      1.46      0.00
  -10    8    1      0.07      0.00
   10    8    0     -2.00      0.00
   10    8    1     -1.09      0.00
   10    8    2     -0.64      0.00
   10    8    3     -0.31      0.00
   10    8    4      0.14      0.00
   10    8    5      0.16      0.00
   10    8    6      0.32      0.00
   10    8    7      0.11      0.00
   10    8    8      0.58      0.00
   10    8    9      0.25      0.00
   10    8   10     -0.77      0.00
   10    8   11     -0.13      0.00
   10    8   12      0.17      0.00
   10    8   13     -0.53      0.00
  -10   10   21     -0.20      0.00
  -10   10   20     -0.36      0.00
  -10   10   19     -0.55      0.00
  -10   10   18     -1.08      0.00
  -10   10   17      1.16      0.00
  -10   10   16      0.85      0.00
  -10   10   15     -0.92      0.00
  -10   10   14     -0.96      0.00
  -10   10   13     -1.46      0.00
  -10   10   12      0.12      0.00
  -10   10   11      0.37      0.00
  -10   10   10     -0.53      0.00
  -10   10    9     -0.09      0.00
  -10   10    8     -0.71      0.00
  -10   10    7     -1.42      0.00
  -10   10    6      2.78      0.00
  -10   10    5     -0.64      0.00
  -10   10    4     -0.21      0.00
  -10   10    3      0.33      0.00
  -10   10    2      1.09      0.00
  -10   10    1     -2.32      0.00
   10   10    0      0.88      0.00
   10   10    1      0.40      0.00
   10   10    2     -0.18      0.00
   10   10    3      0.25      0.00
   10   10    4      0.41      0.00
   10   10    5     -0.74      0.00
   10   10    6      0.74      0.00
   10   10    7      0.61      0.00
   10   10    8      0.46      0.00
   10   10    9     -0.11      0.00
   10   10   10     -0.30      0.00
   10   10   11     -0.30      0.00
   10   10   12     -0.81      0.00
  -10   12   20     -0.55      0.00
  -10   12   19     -0.73      0.00
  -10   12   18      0.89      0.00
  -10   12   17      1.28      0.00
  -10   12   16     -0.44      0.00
  -10   12   15     -0.76      0.00
  -10   12   14     -0.62      0.00
  -10   12   13     -1.23      0.00
  -10   12   12      0.54      0.00
  -10   12   11     -0.40      0.00
  -10   12   10      0.10      0.00
  -10   12    9     -0.78      0.00
  -10   12    8     -0.84      0.00
  -10   12    7      0.40      0.00
  -10   12    6      2.02      0.00
  -10   12    5     -1.77      0.00
  -10   12    4      0.79      0.00
  -10   12    3      0.44      0.00
  -10   12    2     -0.31      0.00
  -10   12    1     -1.05      0.00
   10   12    0      0.69      0.00
   10   12    1      0.91      0.00
   10   12    2      0.02      0.00
   10   12    3     -0.55      0.00
   10   12    4      1.17      0.00
   10   12    5      0.17      0.00
   10   12    6     -0.62      0.00
   10   12    7     -0.67      0.00
   10   12    8      1.17      0.00
   10   12    9      0.95      0.00
   10   12   10     -0.40      0.00
  -10   14   19      0.22      0.00
  -10   14   18      1.54      0.00
  -10   14   17     -0.53      0.00
  -10   14   16     -0.65      0.00
  -10   14   15     -0.11      0.00
  -10   14   14     -0.64      0.00
  -10   14   13     -0.46      0.00
  -10   14   12      1.32      0.00
  -10   14   11     -1.19      0.00
  -10   14   10     -1.23      0.00
  -10   14    9     -0.38      0.00
  -10   14    8      1.05      0.00
  -10   14    7      0.87      0.00
  -10   14    6      0.05      0.00
  -10   14    5     -0.80      0.00
  -10   14    4      0.53      0.00
  -10   14    3      0.69      0.00
  -10   14    2     -1.99      0.00
  -10   14    1      1.01      0.00
   10   14    0      0.06      0.00
   10   14    1      0.20      0.00
   10   14    2      0.11      0.00
   10   14    3     -0.34      0.00
   10   14    4     -1.15      0.00
   10   14    5      0.12      0.00
   10   14    6      0.65      0.00
   10   14    7     -0.91      0.00
   10   14    8     -0.50      0.00
   10   14    9      0.32      0.00
  -10   16   18      0.19      0.00
  -10   16   17     -0.93      0.00
  -10   16   16      0.88      0.00
  -10   16   15     -0.17      0.00
  -10   16   14     -0.78      0.00
  -10   16   13      0.38      0.00
  -10   16   12     -0.21      0.00
  -10   16   11     -2.77      0.00
  -10   16   10      0.46      0.00
  -10   16    9      1.63      0.00
  -10   16    8      0.09      0.00
  -10   16    7      0.17      0.00
  -10   16    6     -0.39      0.00
  -10   16    5      0.19      0.00
  -10   16    4      0.26      0.00
  -10   16    3      0.22      0.00
  -10   16    2     -0.98      0.00
  -10   16    1      1.86      0.00
   10   16    0     -1.51      0.00
   10   16    1      0.31      0.00
   10   16    2     -0.58      0.00
   10   16    3      0.32      0.00
   10   16    4      0.01      0.00
   10   16    5     -0.57      0.00
   10   16    6     -0.44      0.00
  -10   18   16      0.20      0.00
  -10   18   15     -1.00      0.00
  -10   18   14      0.16      0.00
  -10   18   13     -0.27      0.00
  -10   18   12     -2.00      0.00
  -10   18   11     -0.77      0.00
  -10   18   10      1.95      0.00
  -10   18    9      0.49      0.00
  -10   18    8     -0.92      0.00
  -10   18    7      0.84      0.00
  -10   18    6      0.19      0.00
  -10   18    5      0.54      0.00
  -10   18    4     -0.19      0.00
  -10   18    3     -0.05      0.00
  -10   18    2     -0.35      0.00
  -10   18    1     -0.04      0.00
   10   18    0     -0.56      0.00
   10   18    1      0.20      0.00
   10   18    2      0.34      0.00
   10   18    3     -0.29      0.00
   10   18    4     -0.48      0.00
  -10   20   11      1.29      0.00
  -10   20   10      0.58      0.00
  -10   20    9     -0.64      0.00
  -10   20    8     -0.25      0.00
  -10   20    7      1.61      0.00
  -10   20    6     -0.22      0.00
  -10   20    5     -0.18      0.00
  -10   20    4      0.01      0.00
  -10   20    3     -0.27      0.00
  -10   20    2     -0.03      0.00
  -10   20    1      0.31      0.00
   10   20    0      0.38      0.00
   10   20    1      0.23      0.00
  -10   22    9     -0.04      0.00
  -10   22    8      0.81      0.00
  -10   22    7      0.48      0.00
  -10   22    6     -0.60      0.00
  -10   22    5      0.27      0.00
  -10   22    4     -0.13      0.00
  -10   22    3     -0.22      0.00
  -11    1   22      0.58      0.00
  -11    1   21     -0.06      0.00
  -11    1   20      0.23      0.00
  -11    1   19     -0.34      0.00
  -11    1   18     -0.61      0.00
  -11    1   17      1.04      0.00
  -11    1   16      0.79      0.00
  -11    1   15     -0.44      0.00
  -11    1   14      0.66      0.00
  -11    1   13     -0.63      0.00
  -11    1   12     -2.41      0.00
  -11    1   11      3.01      0.00
  -11    1   10      5.41      0.00
  -11    1    9     -2.68      0.00
  -11    1    8     -1.08      0.00
  -11    1    7      4.23      0.00
  -11    1    6      5.85      0.00
  -11    1    5      0.93      0.00
  -11    1    4      7.07      0.00
  -11    1    3      1.67      0.00
  -11    1    2      4.81      0.00
  -11    1    1     -0.36      0.00
   11    1    0      1.17      0.00
   11    1    1      0.89      0.00
   11    1    2     -0.09      0.00
   11    1    3     -0.74      0.00
   11    1    4      1.09      0.00
   11    1    5      1.11      0.00
   11    1    6     -0.77      0.00
   11    1    7     -0.39      0.00
   11    1    8     -0.07      0.00
   11    1    9      0.13      0.00
   11    1   10      0.18      0.00
   11    1   11     -0.19      0.00
   11    1   12      1.28      0.00
  -11    3   22      0.22      0.00
  -11    3   21      0.38      0.00
  -11    3   20      0.29      0.00
  -11    3   19     -0.36      0.00
  -11    3   18      0.54      0.00
  -11    3   17      0.09      0.00
  -11    3   16     -0.53      0.00
  -11    3   15      0.46      0.00
  -11    3   14     -0.35      0.00
  -11    3   13     -0.39      0.00
  -11    3   12      0.29      0.00
  -11    3   11      5.14      0.00
  -11    3   10     -0.64      0.00
  -11    3    9     -2.68      0.00
  -11    3    8      3.53      0.00
  -11    3    7      4.46      0.00
  -11    3    6     -0.08      0.00
  -11    3    5      5.39      0.00
  -11    3    4      3.80      0.00
  -11    3    3      2.95      0.00
  -11    3    2      1.44      0.00
  -11    3    1      0.32      0.00
   11    3    0     -0.25      0.00
   11    3    1      0.22      0.00
   11    3    2      0.56      0.00
   11    3    3      0.32      0.00
   11    3    4     -0.00      0.00
   11    3    5      1.49      0.00
   11    3    6      0.73      0.00
   11    3    7      0.02      0.00
   11    3    8     -0.40      0.00
   11    3    9     -0.30      0.00
   11    3   10     -0.18      0.00
   11    3   11     -0.47      0.00
   11    3   12      0.38      0.00
  -11    5   22      0.44      0.00
  -11    5   21      0.87      0.00
  -11    5   20     -0.47      0.00
  -11    5   19      0.22      0.00
  -11    5   18      0.58      0.00
  -11    5   17     -0.35      0.00
  -11    5   16     -0.38      0.00
  -11    5   15     -0.26      0.00
  -11    5   14     -0.67      0.00
  -11    5   13      1.51      0.00
  -11    5   12      1.87      0.00
  -11    5   11      2.16      0.00
  -11    5   10     -4.46      0.00
  -11    5    9      1.37      0.00
  -11    5    8      1.31      0.00
  -11    5    7      0.15      0.00
  -11    5    6      0.86      0.00
  -11    5    5      6.15      0.00
  -11    5    4      0.53      0.00
  -11    5    3      3.80      0.00
  -11    5    2     -2.31      0.00
  -11    5    1      0.86      0.00
   11    5    0     -1.41      0.00
   11    5    1     -0.19      0.00
   11    5    2      0.00      0.00
   11    5    3     -0.49      0.00
   11    5    4     -0.22      0.00
   11    5    5      0.74      0.00
   11    5    6      0.77      0.00
   11    5    7      1.21      0.00
   11    5    8      0.01      0.00
   11    5    9      0.16      0.00
   11    5   10      0.28      0.00
   11    5   11     -0.35      0.00
   11    5   12     -1.60      0.00
   11    5   13      0.23      0.00
  -11    7   22      0.56      0.00
  -11    7   21      0.03      0.00
  -11    7   20     -0.11      0.00
  -11    7   19      1.15      0.00
  -11    7   18     -0.35      0.00
  -11    7   17     -1.33      0.00
  -11    7   16     -0.37      0.00
  -11    7   15      0.41      0.00
  -11    7   14      0.56      0.00
  -11    7   13      1.50      0.00
  -11    7   12     -0.70      0.00
  -11    7   11     -1.83      0.00
  -11    7   10     -1.97      0.00
  -11    7    9      1.70      0.00
  -11    7    8     -1.24      0.00
  -11    7    7      1.20      0.00
  -11    7    6      2.72      0.00
  -11    7    5      2.74      0.00
  -11    7    4     -0.82      0.00
  -11    7    3     -0.26      0.00
  -11    7    2     -1.26      0.00
  -11    7    1      1.23      0.00
   11    7    0     -1.18      0.00
   11    7    1     -1.41      0.00
   11    7    2      0.39      0.00
   11    7    3      0.44      0.00
   11    7    4     -1.08      0.00
   11    7    5      0.19      0.00
   11    7    6      0.09      0.00
   11    7    7      0.33      0.00
   11    7    8      0.70      0.00
   11    7    9     -0.08      0.00
   11    7   10     -0.31      0.00
   11    7   11      1.27      0.00
   11    7   12      0.02      0.00
   11    7   13     -1.55      0.00
  -11    9   22     -0.11      0.00
  -11    9   21      0.16      0.00
  -11    9   20      0.38      0.00
  -11    9   19     -0.23      0.00
  -11    9   18     -1.35      0.00
  -11    9   17     -0.15      0.00
  -11    9   16      0.64      0.00
  -11    9   15      0.05      0.00
  -11    9   14     -0.07      0.00
  -11    9   13     -1.14      0.00
  -11    9   12     -1.41      0.00
  -11    9   11     -0.35      0.00
  -11    9   10     -0.25      0.00
  -11    9    9      0.01      0.00
  -11    9    8      0.18      0.00
  -11    9    7      0.16      0.00
  -11    9    6      2.24      0.00
  -11    9    5     -1.54      0.00
  -11    9    4     -0.43      0.00
  -11    9    3      0.72      0.00
  -11    9    2      0.99      0.00
  -11    9    1     -0.94      0.00
   11    9    0      1.36      0.00
   11    9    1      0.32      0.00
   11    9    2     -0.88      0.00
   11    9    3      1.06      0.00
   11    9    4      0.25      0.00
   11    9    5     -1.21      0.00
   11    9    6      0.77      0.00
   11    9    7      0.07      0.00
   11    9    8      0.03      0.00
   11    9    9      0.61      0.00
   11    9   10     -0.82      0.00
   11    9   11     -0.51      0.00
   11    9   12      0.65      0.00
  -11   11   21      0.21      0.00
  -11   11   20     -0.42      0.00
  -11   11   19     -0.89      0.00
  -11   11   18     -0.15      0.00
  -11   11   17      0.51      0.00
  -11   11   16      0.51      0.00
  -11   11   15     -0.10      0.00
  -11   11   14     -0.90      0.00
  -11   11   13     -1.47      0.00
  -11   11   12     -0.01      0.00
  -11   11   11     -0.91      0.00
  -11   11   10      0.14      0.00
  -11   11    9     -0.43      0.00
  -11   11    8     -0.37      0.00
  -11   11    7      0.45      0.00
  -11   11    6      1.88      0.00
  -11   11    5     -2.64      0.00
  -11   11    4      1.73      0.00
  -11   11    3      0.11      0.00
  -11   11    2     -0.09      0.00
  -11   11    1      0.54      0.00
   11   11    0      0.53      0.00
   11   11    1      2.30      0.00
   11   11    2      0.37      0.00
   11   11    3     -0.21      0.00
   11   11    4      2.06      0.00
   11   11    5     -0.64      0.00
   11   11    6     -0.74      0.00
   11   11    7      0.06      0.00
   11   11    8      0.62      0.00
   11   11    9      0.52      0.00
   11   11   10     -0.17      0.00
  -11   13   20     -0.51      0.00
  -11   13   19     -0.25      0.00
  -11   13   18      1.00      0.00
  -11   13   17      0.85      0.00
  -11   13   16      0.17      0.00
  -11   13   15     -1.02      0.00
  -11   13   14     -1.15      0.00
  -11   13   13     -0.98      0.00
  -11   13   12      0.47      0.00
  -11   13   11     -0.38      0.00
  -11   13   10     -0.42      0.00
  -11   13    9     -1.16      0.00
  -11   13    8      1.67      0.00
  -11   13    7      0.93      0.00
  -11   13    6     -1.25      0.00
  -11   13    5     -1.23      0.00
  -11   13    4      1.27      0.00
  -11   13    3      1.08      0.00
  -11   13    2     -0.29      0.00
  -11   13    1      0.56      0.00
   11   13    0     -1.53      0.00
   11   13    1      0.26      0.00
   11   13    2      1.08      0.00
   11   13    3     -1.11      0.00
   11   13    4      0.13      0.00
   11   13    5      1.22      0.00
   11   13    6      0.28      0.00
   11   13    7     -1.24      0.00
   11   13    8     -0.30      0.00
  -11   15   19      0.31      0.00
  -11   15   18      0.84      0.00
  -11   15   17     -0.45      0.00
  -11   15   16     -0.19      0.00
  -11   15   15     -0.45      0.00
  -11   15   14     -0.88      0.00
  -11   15   13     -0.01      0.00
  -11   15   12      0.96      0.00
  -11   15   11     -2.22      0.00
  -11   15   10     -0.80      0.00
  -11   15    9      1.72      0.00
  -11   15    8      0.81      0.00
  -11   15    7     -1.28      0.00
  -11   15    6     -0.76      0.00
  -11   15    5      1.16      0.00
  -11   15    4      0.51      0.00
  -11   15    3      0.87      0.00
  -11   15    2     -1.63      0.00
  -11   15    1      1.30      0.00
   11   15    0     -1.62      0.00
   11   15    1     -0.75      0.00
   11   15    2      0.28      0.00
   11   15    3      0.66      0.00
   11   15    4     -1.32      0.00
   11   15    5     -0.88      0.00
   11   15    6      0.72      0.00
  -11   17   17      0.14      0.00
  -11   17   16      0.23      0.00
  -11   17   15     -1.35      0.00
  -11   17   14     -0.21      0.00
  -11   17   13      0.95      0.00
  -11   17   12     -1.60      0.00
  -11   17   11     -2.26      0.00
  -11   17   10      2.12      0.00
  -11   17    9      1.03      0.00
  -11   17    8     -1.34      0.00
  -11   17    7      0.58      0.00
  -11   17    6      0.34      0.00
  -11   17    5      0.65      0.00
  -11   17    4     -0.19      0.00
  -11   17    3      0.27      0.00
  -11   17    2     -0.41      0.00
  -11   17    1     -0.07      0.00
   11   17    0     -1.18      0.00
   11   17    1     -0.51      0.00
   11   17    2     -0.95      0.00
   11   17    3      0.32      0.00
   11   17    4      0.68      0.00
  -11   19   14      0.89      0.00
  -11   19   13     -1.36      0.00
  -11   19   12     -1.99      0.00
  -11   19   11      1.32      0.00
  -11   19   10      1.28      0.00
  -11   19    9     -0.87      0.00
  -11   19    8      0.15      0.00
  -11   19    7      1.44      0.00
  -11   19    6     -0.28      0.00
  -11   19    5      0.20      0.00
  -11   19    4     -0.08      0.00
  -11   19    3     -0.12      0.00
  -11   19    2     -0.24      0.00
  -11   19    1     -0.66      0.00
   11   19    0      0.47      0.00
   11   19    1      0.66      0.00
  -11   21   11      0.66      0.00
  -11   21   10     -0.87      0.00
  -11   21    9      0.38      0.00
  -11   21    8      0.98      0.00
  -11   21    7      0.19      0.00
  -11   21    6     -0.50      0.00
  -11   21    5      0.32      0.00
  -11   21    4      0.20      0.00
  -11   21    3     -0.13      0.00
  -12    0   22      0.49      0.00
  -12    0   20      0.58      0.00
  -12    0   18     -0.92      0.00
  -12    0   16     -0.26      0.00
  -12    0   14      2.15      0.00
  -12    0   12     -1.19      0.00
  -12    0   10      0.22      0.00
  -12    0    8      4.20      0.00
  -12    0    6      3.66      0.00
  -12    0    4      4.31      0.00
  -12    0    2      4.21      0.00
   12    0    0      1.32      0.00
   12    0    2     -0.59      0.00
   12    0    4      0.02      0.00
   12    0    6      0.11      0.00
   12    0    8      0.25      0.00
   12    0   10      0.35      0.00
  -12    2   22      0.19      0.00
  -12    2   21      0.18      0.00
  -12    2   20      0.27      0.00
  -12    2   19     -0.65      0.00
  -12    2   18      0.48      0.00
  -12    2   17     -0.08      0.00
  -12    2   16     -0.83      0.00
  -12    2   15      1.84      0.00
  -12    2   14      0.71      0.00
  -12    2   13     -0.63      0.00
  -12    2   12     -0.75      0.00
  -12    2   11      1.12      0.00
  -12    2   10      0.97      0.00
  -12    2    9      2.41      0.00
  -12    2    8      3.01      0.00
  -12    2    7      1.04      0.00
  -12    2    6      1.21      0.00
  -12    2    5      3.29      0.00
  -12    2    4      3.99      0.00
  -12    2    3      2.16      0.00
  -12    2    2      1.92      0.00
  -12    2    1     -0.27      0.00
   12    2    0      1.14      0.00
   12    2    1      1.09      0.00
   12    2    2     -0.38      0.00
   12    2    3      0.10      0.00
   12    2    4      0.18      0.00
   12    2    5      0.41      0.00
   12    2    6      0.25      0.00
   12    2    7      0.08      0.00
   12    2    8     -0.02      0.00
   12    2    9      0.08      0.00
   12    2   10      0.22      0.00
   12    2   11      0.02      0.00
  -12    4   22      0.17      0.00
  -12    4   21      0.83      0.00
  -12    4   20     -0.01      0.00
  -12    4   19     -0.40      0.00
  -12    4   18     -0.15      0.00
  -12    4   17     -0.74      0.00
  -12    4   16      1.00      0.00
  -12    4   15      1.68      0.00
  -12    4   14     -1.15      0.00
  -12    4   13      0.36      0.00
  -12    4   12     -0.19      0.00
  -12    4   11      2.25      0.00
  -12    4   10     -0.16      0.00
  -12    4    9      2.67      0.00
  -12    4    8     -0.31      0.00
  -12    4    7     -0.29      0.00
  -12    4    6      2.17      0.00
  -12    4    5      5.13      0.00
  -12    4    4      0.05      0.00
  -12    4    3      3.70      0.00
  -12    4    2     -0.53      0.00
  -12    4    1      0.52      0.00
   12    4    0     -0.66      0.00
   12    4    1      1.36      0.00
   12    4    2      0.22      0.00
   12    4    3      0.02      0.00
   12    4    4      0.08      0.00
   12    4    5      0.39      0.00
   12    4    6      0.23      0.00
   12    4    7      0.58      0.00
   12    4    8     -0.02      0.00
   12    4    9      0.34      0.00
   12    4   10      0.34      0.00
   12    4   11      0.22      0.00
   12    4   12     -0.83      0.00
  -12    6   22      0.44      0.00
  -12    6   21      0.34      0.00
  -12    6   20     -0.59      0.00
  -12    6   19      0.09      0.00
  -12    6   18      0.50      0.00
  -12    6   17      0.11      0.00
  -12    6   16      0.39      0.00
  -12    6   15     -0.16      0.00
  -12    6   14     -1.18      0.00
  -12    6   13      1.09      0.00
  -12    6   12      0.22      0.00
  -12    6   11      0.81      0.00
  -12    6   10     -0.67      0.00
  -12    6    9      0.96      0.00
  -12    6    8     -3.13      0.00
  -12    6    7      1.88      0.00
  -12    6    6      3.14      0.00
  -12    6    5      2.10      0.00
  -12    6    4      1.05      0.00
  -12    6    3      2.01      0.00
  -12    6    2     -2.81      0.00
  -12    6    1      0.64      0.00
   12    6    0     -1.61      0.00
   12    6    1     -0.18      0.00
   12    6    2      0.96      0.00
   12    6    3     -0.33      0.00
   12    6    4     -0.30      0.00
   12    6    5      0.98      0.00
   12    6    6     -0.41      0.00
   12    6    7      0.44      0.00
   12    6    8     -0.09      0.00
   12    6    9     -0.09      0.00
   12    6   10      0.22      0.00
   12    6   11      1.18      0.00
   12    6   12      0.20      0.00
   12    6   13     -0.99      0.00
  -12    8   21      0.19      0.00
  -12    8   20      0.19      0.00
  -12    8   19      0.33      0.00
  -12    8   18     -0.24      0.00
  -12    8   17     -0.52      0.00
  -12    8   16     -0.15      0.00
  -12    8   15     -0.62      0.00
  -12    8   14     -0.12      0.00
  -12    8   13      0.50      0.00
  -12    8   12     -0.90      0.00
  -12    8   11     -0.32      0.00
  -12    8   10     -0.55      0.00
  -12    8    9     -1.14      0.00
  -12    8    8     -0.05      0.00
  -12    8    7      2.06      0.00
  -12    8    6      2.08      0.00
  -12    8    5     -0.20      0.00
  -12    8    4      0.50      0.00
  -12    8    3     -0.76      0.00
  -12    8    2     -0.26      0.00
  -12    8    1     -0.23      0.00
   12    8    0      0.34      0.00
   12    8    1     -0.96      0.00
   12    8    2      0.69      0.00
   12    8    3      1.38      0.00
   12    8    4     -1.41      0.00
   12    8    5     -0.14      0.00
   12    8    6      0.55      0.00
   12    8    7     -0.12      0.00
   12    8    8      0.30      0.00
   12    8    9     -0.07      0.00
   12    8   10     -0.99      0.00
   12    8   11      0.17      0.00
   12    8   12      1.02      0.00
  -12   10   21      0.36      0.00
  -12   10   20     -0.25      0.00
  -12   10   19     -0.16      0.00
  -12   10   18     -0.05      0.00
  -12   10   17     -0.67      0.00
  -12   10   16     -0.17      0.00
  -12   10   15      0.01      0.00
  -12   10   14     -0.20      0.00
  -12   10   13     -1.23      0.00
  -12   10   12     -0.43      0.00
  -12   10   11     -0.54      0.00
  -12   10   10     -0.06      0.00
  -12   10    9     -0.87      0.00
  -12   10    8      0.30      0.00
  -12   10    7      0.06      0.00
  -12   10    6      2.16      0.00
  -12   10    5     -1.64      0.00
  -12   10    4      1.75      0.00
  -12   10    3     -0.63      0.00
  -12   10    2     -0.43      0.00
  -12   10    1      0.50      0.00
   12   10    0      1.68      0.00
   12   10    1      1.16      0.00
   12   10    2     -0.30      0.00
   12   10    3      1.56      0.00
   12   10    4      1.72      0.00
   12   10    5     -1.17      0.00
   12   10    6     -0.15      0.00
   12   10    7     -0.30      0.00
   12   10    8      0.15      0.00
   12   10    9      0.66      0.00
   12   10   10     -0.57      0.00
  -12   12   20     -0.13      0.00
  -12   12   19     -0.08      0.00
  -12   12   18     -0.56      0.00
  -12   12   17      0.17      0.00
  -12   12   16      1.14      0.00
  -12   12   15     -0.56      0.00
  -12   12   14     -1.08      0.00
  -12   12   13     -1.03      0.00
  -12   12   12     -0.02      0.00
  -12   12   11     -0.68      0.00
  -12   12   10     -0.32      0.00
  -12   12    9     -1.93      0.00
  -12   12    8      1.56      0.00
  -12   12    7      1.86      0.00
  -12   12    6      0.14      0.00
  -12   12    5     -1.47      0.00
  -12   12    4      0.29      0.00
  -12   12    3     -0.58      0.00
  -12   12    2      0.99      0.00
  -12   12    1      1.97      0.00
   12   12    0     -1.11      0.00
   12   12    1      0.94      0.00
   12   12    2      0.47      0.00
   12   12    3     -0.51      0.00
   12   12    4      1.63      0.00
   12   12    5      0.80      0.00
   12   12    6      0.31      0.00
   12   12    7     -0.72      0.00
   12   12    8     -0.34      0.00
  -12   14   19     -0.27      0.00
  -12   14   18      0.59      0.00
  -12   14   17      0.97      0.00
  -12   14   16     -0.30      0.00
  -12   14   15     -0.98      0.00
  -12   14   14     -0.56      0.00
  -12   14   13     -0.90      0.00
  -12   14   12      0.41      0.00
  -12   14   11     -1.07      0.00
  -12   14   10     -1.10      0.00
  -12   14    9      0.85      0.00
  -12   14    8      2.53      0.00
  -12   14    7     -1.13      0.00
  -12   14    6     -2.18      0.00
  -12   14    5      0.62      0.00
  -12   14    4     -0.18      0.00
  -12   14    3      2.20      0.00
  -12   14    2     -0.06      0.00
  -12   14    1      0.81      0.00
   12   14    0     -1.94      0.00
   12   14    1     -0.51      0.00
   12   14    2      0.24      0.00
   12   14    3     -0.59      0.00
   12   14    4     -0.63      0.00
   12   14    5      0.17      0.00
   12   14    6      0.79      0.00
  -12   16   17      0.06      0.00
  -12   16   16     -0.10      0.00
  -12   16   15     -0.67      0.00
  -12   16   14     -0.91      0.00
  -12   16   13      0.22      0.00
  -12   16   12      0.04      0.00
  -12   16   11     -2.25      0.00
  -12   16   10      0.67      0.00
  -12   16    9      1.76      0.00
  -12   16    8     -0.83      0.00
  -12   16    7     -0.85      0.00
  -12   16    6      0.27      0.00
  -12   16    5      1.09      0.00
  -12   16    4     -0.62      0.00
  -12   16    3      1.40      0.00
  -12   16    2     -0.72      0.00
  -12   16    1      0.06      0.00
   12   16    0     -1.72      0.00
   12   16    1     -1.03      0.00
   12   16    2     -0.45      0.00
   12   16    3      0.79      0.00
   12   16    4     -0.51      0.00
  -12   18   14      0.64      0.00
  -12   18   13     -0.12      0.00
  -12   18   12     -2.04      0.00
  -12   18   11     -0.24      0.00
  -12   18   10      1.86      0.00
  -12   18    9     -0.07      0.00
  -12   18    8     -0.31      0.00
  -12   18    7      1.01      0.00
  -12   18    6     -0.24      0.00
  -12   18    5      0.06      0.00
  -12   18    4     -0.04      0.00
  -12   18    3      0.55      0.00
  -12   18    2     -0.36      0.00
  -12   18    1     -1.34      0.00
   12   18    0      0.30      0.00
   12   18    1      0.15      0.00
  -12   20   12      0.06      0.00
  -12   20   11      1.18      0.00
  -12   20   10     -0.37      0.00
  -12   20    9      0.15      0.00
  -12   20    8      0.92      0.00
  -12   20    7      0.25      0.00
  -12   20    6     -0.23      0.00
  -12   20    5      0.03      0.00
  -12   20    4      0.17      0.00
  -12   20    3      0.09      0.00
  -13    1   21      0.18      0.00
  -13    1   20      0.27      0.00
  -13    1   19     -0.27      0.00
  -13    1   18      0.69      0.00
  -13    1   17     -0.33      0.00
  -13    1   16     -0.91      0.00
  -13    1   15      0.83      0.00
  -13    1   14     -0.33      0.00
  -13    1   13      1.31      0.00
  -13    1   12      2.18      0.00
  -13    1   11     -2.16      0.00
  -13    1   10     -2.37      0.00
  -13    1    9      3.51      0.00
  -13    1    8      4.61      0.00
  -13    1    7      0.02      0.00
  -13    1    6      2.41      0.00
  -13    1    5      0.79      0.00
  -13    1    4      2.44      0.00
  -13    1    3      1.01      0.00
  -13    1    2      2.02      0.00
  -13    1    1     -0.33      0.00
   13    1    0      0.86      0.00
   13    1    1      0.04      0.00
   13    1    2      0.30      0.00
   13    1    3      0.81      0.00
   13    1    4     -0.42      0.00
   13    1    5     -0.16      0.00
   13    1    6      0.22      0.00
   13    1    7      0.11      0.00
   13    1    8     -0.28      0.00
   13    1    9     -0.65      0.00
   13    1   10      1.41      0.00
  -13    3   21      0.47      0.00
  -13    3   20      0.36      0.00
  -13    3   19      0.08      0.00
  -13    3   18      0.05      0.00
  -13    3   17     -1.39      0.00
  -13    3   16      0.21      0.00
  -13    3   15      1.42      0.00
  -13    3   14     -0.26      0.00
  -13    3   13      2.82      0.00
  -13    3   12     -1.20      0.00
  -13    3   11     -1.34      0.00
  -13    3   10      1.75      0.00
  -13    3    9      4.31      0.00
  -13    3    8     -0.15      0.00
  -13    3    7     -0.01      0.00
  -13    3    6      2.13      0.00
  -13    3    5      3.17      0.00
  -13    3    4      0.92      0.00
  -13    3    3      2.33      0.00
  -13    3    2      0.01      0.00
  -13    3    1      0.18      0.00
   13    3    0      0.37      0.00
   13    3    1      0.98      0.00
   13    3    2     -0.05      0.00
   13    3    3      0.90      0.00
   13    3    4      0.32      0.00
   13    3    5      0.13      0.00
   13    3    6      0.06      0.00
   13    3    7      0.14      0.00
   13    3    8      0.00      0.00
   13    3    9     -0.45      0.00
   13    3   10      0.16      0.00
  -13    5   21      0.86      0.00
  -13    5   20     -0.12      0.00
  -13    5   19     -0.84      0.00
  -13    5   18     -0.35      0.00
  -13    5   17     -0.14      0.00
  -13    5   16      1.09      0.00
  -13    5   15      1.13      0.00
  -13    5   14      0.16      0.00
  -13    5   13      1.02      0.00
  -13    5   12     -2.59      0.00
  -13    5   11      1.21      0.00
  -13    5   10      1.59      0.00
  -13    5    9      1.37      0.00
  -13    5    8     -2.50      0.00
  -13    5    7      2.22      0.00
  -13    5    6      2.60      0.00
  -13    5    5      1.33      0.00
  -13    5    4      0.64      0.00
  -13    5    3      2.45      0.00
  -13    5    2     -1.77      0.00
  -13    5    1      0.65      0.00
   13    5    0     -1.01      0.00
   13    5    1      0.29      0.00
   13    5    2     -0.24      0.00
   13    5    3      0.60      0.00
   13    5    4      0.82      0.00
   13    5    5      0.71      0.00
   13    5    6     -0.24      0.00
   13    5    7      0.38      0.00
   13    5    8     -0.25      0.00
   13    5    9     -0.24      0.00
   13    5   10     -0.65      0.00
   13    5   11      1.09      0.00
  -13    7   21      0.48      0.00
  -13    7   20     -0.54      0.00
  -13    7   19     -0.12      0.00
  -13    7   18      0.34      0.00
  -13    7   17      0.15      0.00
  -13    7   16      0.57      0.00
  -13    7   15     -0.31      0.00
  -13    7   14     -0.93      0.00
  -13    7   13     -0.32      0.00
  -13    7   12     -0.71      0.00
  -13    7   11      1.53      0.00
  -13    7   10     -0.08      0.00
  -13    7    9     -1.17      0.00
  -13    7    8     -0.18      0.00
  -13    7    7      2.39      0.00
  -13    7    6      0.97      0.00
  -13    7    5      0.34      0.00
  -13    7    4      1.80      0.00
  -13    7    3     -0.29      0.00
  -13    7    2     -0.90      0.00
  -13    7    1      0.16      0.00
   13    7    0     -0.72      0.00
   13    7    1      0.23      0.00
   13    7    2      0.39      0.00
   13    7    3     -0.52      0.00
   13    7    4     -0.75      0.00
   13    7    5      1.13      0.00
   13    7    6      0.03      0.00
   13    7    7      0.42      0.00
   13    7    8     -0.09      0.00
   13    7    9      0.06      0.00
   13    7   10     -0.69      0.00
   13    7   11     -0.64      0.00
  -13    9   20     -0.59      0.00
  -13    9   19      0.00      0.00
  -13    9   18      0.46      0.00
  -13    9   17     -0.34      0.00
  -13    9   16     -0.60      0.00
  -13    9   15     -0.75      0.00
  -13    9   14     -0.04      0.00
  -13    9   13     -0.60      0.00
  -13    9   12     -0.50      0.00
  -13    9   11     -0.35      0.00
  -13    9   10      0.04      0.00
  -13    9    9     -0.51      0.00
  -13    9    8      1.16      0.00
  -13    9    7     -0.72      0.00
  -13    9    6      1.34      0.00
  -13    9    5     -0.06      0.00
  -13    9    4      1.88      0.00
  -13    9    3     -0.73      0.00
  -13    9    2      0.00      0.00
  -13    9    1     -0.82      0.00
   13    9    0      0.49      0.00
   13    9    1     -0.07      0.00
   13    9    2      1.05      0.00
   13    9    3      1.68      0.00
   13    9    4     -0.17      0.00
   13    9    5     -0.57      0.00
   13    9    6     -0.27      0.00
   13    9    7     -0.16      0.00
   13    9    8      0.39      0.00
   13    9    9     -0.05      0.00
   13    9   10     -0.27      0.00
  -13   11   19      0.76      0.00
  -13   11   18     -0.35      0.00
  -13   11   17     -0.84      0.00
  -13   11   16      0.41      0.00
  -13   11   15     -0.20      0.00
  -13   11   14     -0.77      0.00
  -13   11   13     -1.54      0.00
  -13   11   12      0.14      0.00
  -13   11   11      0.16      0.00
  -13   11   10      0.30      0.00
  -13   11    9     -2.08      0.00
  -13   11    8      0.28      0.00
  -13   11    7      0.12      0.00
  -13   11    6      2.04      0.00
  -13   11    5      0.33      0.00
  -13   11    4      0.77      0.00
  -13   11    3     -1.36      0.00
  -13   11    2     -0.22      0.00
  -13   11    1      0.75      0.00
   13   11    0      0.58      0.00
   13   11    1      0.04      0.00
   13   11    2      0.37      0.00
   13   11    3      0.64      0.00
   13   11    4      1.43      0.00
   13   11    5      0.72      0.00
   13   11    6      0.48      0.00
   13   11    7     -1.00      0.00
   13   11    8     -0.13      0.00
  -13   13   18     -0.49      0.00
  -13   13   17      0.91      0.00
  -13   13   16      0.21      0.00
  -13   13   15     -1.04      0.00
  -13   13   14     -0.54      0.00
  -13   13   13     -0.71      0.00
  -13   13   12      0.39      0.00
  -13   13   11     -0.98      0.00
  -13   13   10     -1.14      0.00
  -13   13    9     -0.65      0.00
  -13   13    8      2.22      0.00
  -13   13    7      0.46      0.00
  -13   13    6     -0.61      0.00
  -13   13    5      0.35      0.00
  -13   13    4     -1.65      0.00
  -13   13    3      1.07      0.00
  -13   13    2      0.48      0.00
  -13   13    1      1.39      0.00
   13   13    0     -0.46      0.00
   13   13    1     -0.61      0.00
   13   13    2     -0.46      0.00
   13   13    3      0.17      0.00
   13   13    4      0.22      0.00
   13   13    5     -0.18      0.00
   13   13    6      1.06      0.00
  -13   15   17      0.41      0.00
  -13   15   16     -0.51      0.00
  -13   15   15     -0.23      0.00
  -13   15   14     -0.54      0.00
  -13   15   13     -0.90      0.00
  -13   15   12      0.12      0.00
  -13   15   11     -1.01      0.00
  -13   15   10     -0.15      0.00
  -13   15    9      0.98      0.00
  -13   15    8      0.20      0.00
  -13   15    7     -1.06      0.00
  -13   15    6     -0.37      0.00
  -13   15    5      1.23      0.00
  -13   15    4     -1.53      0.00
  -13   15    3      2.35      0.00
  -13   15    2     -0.59      0.00
  -13   15    1      0.89      0.00
   13   15    0     -1.31      0.00
   13   15    1     -0.04      0.00
   13   15    2     -0.75      0.00
   13   15    3     -0.46      0.00
   13   15    4     -0.30      0.00
  -13   17   14     -0.42      0.00
  -13   17   13     -0.02      0.00
  -13   17   12     -0.39      0.00
  -13   17   11     -1.21      0.00
  -13   17   10      0.38      0.00
  -13   17    9      0.77      0.00
  -13   17    8     -0.14      0.00
  -13   17    7      0.60      0.00
  -13   17    6      0.18      0.00
  -13   17    5     -0.36      0.00
  -13   17    4     -0.87      0.00
  -13   17    3      1.38      0.00
  -13   17    2     -0.33      0.00
  -13   17    1     -0.80      0.00
   13   17    0     -0.66      0.00
   13   17    1     -0.33      0.00
  -13   19   13     -0.86      0.00
  -13   19   12     -0.66      0.00
  -13   19   11      0.27      0.00
  -13   19   10      0.79      0.00
  -13   19    9      0.70      0.00
  -13   19    8      0.31      0.00
  -13   19    7      0.17      0.00
  -13   19    6     -0.37      0.00
  -13   19    5     -0.50      0.00
  -13   19    4      0.48      0.00
  -13   19    3      0.35      0.00
  -14    0   20     -0.40      0.00
  -14    0   18      1.12      0.00
  -14    0   16      0.50      0.00
  -14    0   14     -3.11      0.00
  -14    0   12      3.51      0.00
  -14    0   10     -2.10      0.00
  -14    0    8      3.73      0.00
  -14    0    6      2.28      0.00
  -14    0    4      1.62      0.00
  -14    0    2      1.53      0.00
   14    0    0      0.09      0.00
   14    0    2      0.85      0.00
   14    0    4     -0.31      0.00
   14    0    6      0.52      0.00
   14    0    8     -1.13      0.00
   14    0   10      1.91      0.00
  -14    2   21     -0.10      0.00
  -14    2   20      0.16      0.00
  -14    2   19      0.51      0.00
  -14    2   18      0.30      0.00
  -14    2   17     -0.29      0.00
  -14    2   16      0.50      0.00
  -14    2   15     -0.72      0.00
  -14    2   14     -1.60      0.00
  -14    2   13      3.87      0.00
  -14    2   12      0.53      0.00
  -14    2   11     -1.98      0.00
  -14    2   10      0.69      0.00
  -14    2    9      3.35      0.00
  -14    2    8      1.30      0.00
  -14    2    7      0.18      0.00
  -14    2    6      2.04      0.00
  -14    2    5      1.37      0.00
  -14    2    4      0.73      0.00
  -14    2    3      1.42      0.00
  -14    2    2      0.99      0.00
  -14    2    1     -0.47      0.00
   14    2    0      0.17      0.00
   14    2    1      0.19      0.00
   14    2    2      0.23      0.00
   14    2    3      0.96      0.00
   14    2    4      0.14      0.00
   14    2    5     -0.08      0.00
   14    2    6      0.27      0.00
   14    2    7      0.38      0.00
   14    2    8     -0.08      0.00
   14    2    9     -1.24      0.00
   14    2   10      0.23      0.00
  -14    4   21      0.56      0.00
  -14    4   20      0.50      0.00
  -14    4   19     -0.55      0.00
  -14    4   18     -0.02      0.00
  -14    4   17      0.06      0.00
  -14    4   16     -0.34      0.00
  -14    4   15     -0.06      0.00
  -14    4   14      1.23      0.00
  -14    4   13      3.16      0.00
  -14    4   12     -2.57      0.00
  -14    4   11      0.46      0.00
  -14    4   10      1.66      0.00
  -14    4    9      1.24      0.00
  -14    4    8     -1.31      0.00
  -14    4    7      1.85      0.00
  -14    4    6      2.20      0.00
  -14    4    5      1.41      0.00
  -14    4    4      0.72      0.00
  -14    4    3      1.92      0.00
  -14    4    2     -1.31      0.00
  -14    4    1     -0.15      0.00
   14    4    0     -0.51      0.00
   14    4    1     -0.08      0.00
   14    4    2      0.06      0.00
   14    4    3      1.16      0.00
   14    4    4      0.61      0.00
   14    4    5      0.34      0.00
   14    4    6      0.01      0.00
   14    4    7      0.35      0.00
   14    4    8     -0.05      0.00
   14    4    9     -0.44      0.00
   14    4   10     -0.84      0.00
  -14    6   20     -0.46      0.00
  -14    6   19     -0.36      0.00
  -14    6   18      0.24      0.00
  -14    6   17     -0.33      0.00
  -14    6   16      0.33      0.00
  -14    6   15      1.10      0.00
  -14    6   14      0.57      0.00
  -14    6   13     -0.58      0.00
  -14    6   12     -1.89      0.00
  -14    6   11      2.10      0.00
  -14    6   10     -0.14      0.00
  -14    6    9     -0.58      0.00
  -14    6    8      0.56      0.00
  -14    6    7      2.65      0.00
  -14    6    6      1.05      0.00
  -14    6    5      0.30      0.00
  -14    6    4      0.94      0.00
  -14    6    3     -0.00      0.00
  -14    6    2     -1.10      0.00
  -14    6    1      0.25      0.00
   14    6    0      0.04      0.00
   14    6    1     -0.10      0.00
   14    6    2     -1.31      0.00
   14    6    3      0.15      0.00
   14    6    4      0.33      0.00
   14    6    5      0.87      0.00
   14    6    6     -0.05      0.00
   14    6    7      0.54      0.00
   14    6    8     -0.01      0.00
   14    6    9      0.53      0.00
   14    6   10     -1.20      0.00
   14    6   11     -0.70      0.00
  -14    8   20     -0.47      0.00
  -14    8   19     -0.22      0.00
  -14    8   18      0.11      0.00
  -14    8   17      0.10      0.00
  -14    8   16     -0.08      0.00
  -14    8   15     -0.68      0.00
  -14    8   14     -0.56      0.00
  -14    8   13     -0.49      0.00
  -14    8   12      0.41      0.00
  -14    8   11     -0.21      0.00
  -14    8   10     -0.72      0.00
  -14    8    9      0.33      0.00
  -14    8    8      2.10      0.00
  -14    8    7     -0.36      0.00
  -14    8    6      0.58      0.00
  -14    8    5      0.04      0.00
  -14    8    4      1.43      0.00
  -14    8    3     -0.64      0.00
  -14    8    2      0.42      0.00
  -14    8    1     -0.18      0.00
   14    8    0     -0.02      0.00
   14    8    1      1.45      0.00
   14    8    2      0.34      0.00
   14    8    3     -0.19      0.00
   14    8    4     -0.55      0.00
   14    8    5     -0.03      0.00
   14    8    6     -0.34      0.00
   14    8    7      0.54      0.00
   14    8    8     -0.36      0.00
   14    8    9      0.17      0.00
  -14   10   19      0.27      0.00
  -14   10   18      0.26      0.00
  -14   10   17     -0.61      0.00
  -14   10   16     -0.29      0.00
  -14   10   15     -0.20      0.00
  -14   10   14      0.02      0.00
  -14   10   13     -1.39      0.00
  -14   10   12     -0.71      0.00
  -14   10   11     -0.41      0.00
  -14   10   10      1.41      0.00
  -14   10    9     -0.51      0.00
  -14   10    8      0.65      0.00
  -14   10    7     -1.58      0.00
  -14   10    6      1.68      0.00
  -14   10    5      0.57      0.00
  -14   10    4      1.05      0.00
  -14   10    3     -0.17      0.00
  -14   10    2      0.40      0.00
  -14   10    1     -0.87      0.00
   14   10    0     -0.22      0.00
   14   10    1      0.46      0.00
   14   10    2      1.48      0.00
   14   10    3      0.48      0.00
   14   10    4      0.73      0.00
   14   10    5      0.42      0.00
   14   10    6     -0.54      0.00
   14   10    7     -0.44      0.00
   14   10    8      0.44      0.00
  -14   12   18     -0.26      0.00
  -14   12   17      0.18      0.00
  -14   12   16      0.19      0.00
  -14   12   15     -0.74      0.00
  -14   12   14     -0.96      0.00
  -14   12   13     -1.32      0.00
  -14   12   12      0.87      0.00
  -14   12   11     -0.08      0.00
  -14   12   10     -0.27      0.00
  -14   12    9     -1.08      0.00
  -14   12    8      0.64      0.00
  -14   12    7     -0.30      0.00
  -14   12    6      0.93      0.00
  -14   12    5      0.98      0.00
  -14   12    4     -0.50      0.00
  -14   12    3      0.93      0.00
  -14   12    2     -0.80      0.00
  -14   12    1     -0.12      0.00
   14   12    0      0.24      0.00
   14   12    1     -1.24      0.00
   14   12    2      1.03      0.00
   14   12    3      0.67      0.00
   14   12    4     -0.18      0.00
   14   12    5      0.38      0.00
   14   12    6      1.06      0.00
  -14   14   16     -0.42      0.00
  -14   14   15     -0.42      0.00
  -14   14   14     -0.27      0.00
  -14   14   13     -0.65      0.00
  -14   14   12     -0.19      0.00
  -14   14   11     -0.76      0.00
  -14   14   10      0.24      0.00
  -14   14    9     -0.01      0.00
  -14   14    8     -0.18      0.00
  -14   14    7     -0.30      0.00
  -14   14    6     -0.36      0.00
  -14   14    5      1.64      0.00
  -14   14    4     -1.48      0.00
  -14   14    3      1.77      0.00
  -14   14    2     -1.52      0.00
  -14   14    1      1.33      0.00
   14   14    0      0.35      0.00
   14   14    1     -0.64      0.00
   14   14    2     -1.42      0.00
   14   14    3      0.49      0.00
  -14   16   14     -0.62      0.00
  -14   16   13     -0.92      0.00
  -14   16   12      0.40      0.00
  -14   16   11      0.02      0.00
  -14   16   10     -0.68      0.00
  -14   16    9     -0.22      0.00
  -14   16    8     -0.29      0.00
  -14   16    7      0.27      0.00
  -14   16    6      0.48      0.00
  -14   16    5      0.77      0.00
  -14   16    4     -1.62      0.00
  -14   16    3      1.14      0.00
  -14   16    2     -0.84      0.00
  -14   16    1      0.79      0.00
   14   16    0     -0.85      0.00
  -14   18   11     -1.07      0.00
  -14   18   10      0.02      0.00
  -14   18    9      1.27      0.00
  -14   18    8      0.13      0.00
  -14   18    7      0.53      0.00
  -14   18    6      0.07      0.00
  -14   18    5     -1.19      0.00
  -14   18    4     -0.18      0.00
  -15    1   20     -0.28      0.00
  -15    1   19      0.49      0.00
  -15    1   18      0.00      0.00
  -15    1   17      0.32      0.00
  -15    1   16      1.41      0.00
  -15    1   15     -0.88      0.00
  -15    1   14     -2.47      0.00
  -15    1   13      1.49      0.00
  -15    1   12      0.39      0.00
  -15    1   11      0.30      0.00
  -15    1   10      1.01      0.00
  -15    1    9      0.68      0.00
  -15    1    8      1.85      0.00
  -15    1    7      0.05      0.00
  -15    1    6      1.59      0.00
  -15    1    5      0.86      0.00
  -15    1    4      0.56      0.00
  -15    1    3      0.14      0.00
  -15    1    2      1.06      0.00
  -15    1    1      0.01      0.00
   15    1    0      0.24      0.00
   15    1    1      0.14      0.00
   15    1    2      0.60      0.00
   15    1    3      0.32      0.00
   15    1    4     -0.00      0.00
   15    1    5      0.06      0.00
   15    1    6      0.25      0.00
   15    1    7      0.05      0.00
   15    1    8     -0.04      0.00
   15    1    9     -0.62      0.00
  -15    3   20      0.67      0.00
  -15    3   19     -0.71      0.00
  -15    3   18     -0.03      0.00
  -15    3   17      1.51      0.00
  -15    3   16     -0.23      0.00
  -15    3   15     -1.01      0.00
  -15    3   14     -0.17      0.00
  -15    3   13      2.45      0.00
  -15    3   12     -0.71      0.00
  -15    3   11      1.18      0.00
  -15    3   10      0.81      0.00
  -15    3    9      1.05      0.00
  -15    3    8      0.23      0.00
  -15    3    7      0.90      0.00
  -15    3    6      1.70      0.00
  -15    3    5      0.65      0.00
  -15    3    4      0.18      0.00
  -15    3    3      1.89      0.00
  -15    3    2     -0.00      0.00
  -15    3    1     -0.46      0.00
   15    3    0     -0.40      0.00
   15    3    1      0.28      0.00
   15    3    2      0.44      0.00
   15    3    3      0.96      0.00
   15    3    4      0.32      0.00
   15    3    5      0.00      0.00
   15    3    6      0.18      0.00
   15    3    7     -0.11      0.00
   15    3    8      0.13      0.00
  -15    5   20     -0.27      0.00
  -15    5   19     -0.43      0.00
  -15    5   18      1.23      0.00
  -15    5   17      0.01      0.00
  -15    5   16     -1.06      0.00
  -15    5   15      0.69      0.00
  -15    5   14      0.97      0.00
  -15    5   13      0.86      0.00
  -15    5   12     -1.16      0.00
  -15    5   11      1.86      0.00
  -15    5   10     -0.43      0.00
  -15    5    9     -0.15      0.00
  -15    5    8      0.54      0.00
  -15    5    7      1.89      0.00
  -15    5    6      1.37      0.00
  -15    5    5      0.81      0.00
  -15    5    4      0.76      0.00
  -15    5    3      0.35      0.00
  -15    5    2     -1.33      0.00
  -15    5    1     -0.41      0.00
   15    5    0     -0.45      0.00
   15    5    1     -0.71      0.00
   15    5    2     -0.38      0.00
   15    5    3      0.84      0.00
   15    5    4      0.20      0.00
   15    5    5      0.64      0.00
   15    5    6      0.07      0.00
   15    5    7      0.31      0.00
   15    5    8     -0.23      0.00
   15    5    9      0.40      0.00
  -15    7   19      0.14      0.00
  -15    7   18      0.01      0.00
  -15    7   17     -0.40      0.00
  -15    7   16      0.06      0.00
  -15    7   15      0.30      0.00
  -15    7   14     -0.46      0.00
  -15    7   13     -0.69      0.00
  -15    7   12      0.82      0.00
  -15    7   11      0.44      0.00
  -15    7   10     -1.24      0.00
  -15    7    9      0.76      0.00
  -15    7    8      2.08      0.00
  -15    7    7      0.40      0.00
  -15    7    6      0.96      0.00
  -15    7    5     -0.10      0.00
  -15    7    4      0.67      0.00
  -15    7    3     -0.59      0.00
  -15    7    2     -0.51      0.00
  -15    7    1     -0.25      0.00
   15    7    0      0.99      0.00
   15    7    1      0.57      0.00
   15    7    2     -1.43      0.00
   15    7    3      0.26      0.00
   15    7    4     -0.49      0.00
   15    7    5      0.03      0.00
   15    7    6      0.07      0.00
   15    7    7      0.46      0.00
   15    7    8     -0.55      0.00
   15    7    9      0.67      0.00
  -15    9   19     -0.33      0.00
  -15    9   18      0.05      0.00
  -15    9   17     -0.44      0.00
  -15    9   16     -0.41      0.00
  -15    9   15     -0.61      0.00
  -15    9   14     -0.02      0.00
  -15    9   13      0.12      0.00
  -15    9   12      0.18      0.00
  -15    9   11     -1.61      0.00
  -15    9   10      1.09      0.00
  -15    9    9      0.28      0.00
  -15    9    8      1.09      0.00
  -15    9    7     -1.00      0.00
  -15    9    6      1.65      0.00
  -15    9    5      0.26      0.00
  -15    9    4      0.40      0.00
  -15    9    3     -0.76      0.00
  -15    9    2      0.60      0.00
  -15    9    1      0.20      0.00
   15    9    0      0.18      0.00
   15    9    1      2.34      0.00
   15    9    2      0.57      0.00
   15    9    3     -0.07      0.00
   15    9    4      0.16      0.00
   15    9    5     -0.61      0.00
   15    9    6     -0.63      0.00
   15    9    7      0.54      0.00
  -15   11   18      0.13      0.00
  -15   11   17     -0.02      0.00
  -15   11   16      0.09      0.00
  -15   11   15     -0.44      0.00
  -15   11   14     -0.11      0.00
  -15   11   13     -1.40      0.00
  -15   11   12     -0.24      0.00
  -15   11   11     -0.15      0.00
  -15   11   10      0.82      0.00
  -15   11    9     -0.76      0.00
  -15   11    8      1.08      0.00
  -15   11    7     -0.41      0.00
  -15   11    6      0.99      0.00
  -15   11    5     -0.17      0.00
  -15   11    4     -0.44      0.00
  -15   11    3      1.60      0.00
  -15   11    2      0.33      0.00
  -15   11    1     -0.52      0.00
   15   11    0     -0.93      0.00
   15   11    1      0.39      0.00
   15   11    2      2.08      0.00
   15   11    3      0.22      0.00
   15   11    4      0.59      0.00
   15   11    5      0.28      0.00
  -15   13   16     -0.38      0.00
  -15   13   15     -0.47      0.00
  -15   13   14     -0.44      0.00
  -15   13   13     -0.72      0.00
  -15   13   12      0.24      0.00
  -15   13   11     -0.64      0.00
  -15   13   10      0.41      0.00
  -15   13    9      0.12      0.00
  -15   13    8     -0.37      0.00
  -15   13    7     -0.27      0.00
  -15   13    6     -0.87      0.00
  -15   13    5      1.26      0.00
  -15   13    4      0.09      0.00
  -15   13    3      2.19      0.00
  -15   13    2     -2.00      0.00
  -15   13    1      0.10      0.00
   15   13    0     -0.10      0.00
   15   13    1     -1.59      0.00
   15   13    2      0.43      0.00
   15   13    3      0.92      0.00
  -15   15   13     -0.96      0.00
  -15   15   12     -0.23      0.00
  -15   15   11      0.38      0.00
  -15   15   10      0.02      0.00
  -15   15    9     -0.61      0.00
  -15   15    8     -0.76      0.00
  -15   15    7     -0.06      0.00
  -15   15    6     -0.72      0.00
  -15   15    5      2.19      0.00
  -15   15    4     -0.79      0.00
  -15   15    3      0.84      0.00
  -15   15    2     -1.76      0.00
  -15   15    1      1.18      0.00
   15   15    0     -0.14      0.00
  -15   17   10     -0.74      0.00
  -15   17    9      0.57      0.00
  -15   17    8     -0.52      0.00
  -15   17    7     -0.03      0.00
  -15   17    6      0.60      0.00
  -15   17    5      0.31      0.00
  -15   17    4     -0.70      0.00
  -16    0   20     -0.02      0.00
  -16    0   18     -0.18      0.00
  -16    0   16      0.40      0.00
  -16    0   14     -0.91      0.00
  -16    0   12     -1.75      0.00
  -16    0   10      2.65      0.00
  -16    0    8      1.41      0.00
  -16    0    6      0.51      0.00
  -16    0    4      1.08      0.00
  -16    0    2      0.35      0.00
   16    0    0      0.50      0.00
   16    0    2      0.57      0.00
   16    0    4      0.75      0.00
   16    0    6     -0.72      0.00
   16    0    8      0.55      0.00
  -16    2   20      0.73      0.00
  -16    2   19     -0.49      0.00
  -16    2   18     -0.36      0.00
  -16    2   17      0.97      0.00
  -16    2   16     -0.17      0.00
  -16    2   15      0.22      0.00
  -16    2   14     -0.69      0.00
  -16    2   13      0.08      0.00
  -16    2   12     -0.25      0.00
  -16    2   11      2.40      0.00
  -16    2   10      0.74      0.00
  -16    2    9     -0.07      0.00
  -16    2    8      1.10      0.00
  -16    2    7      0.20      0.00
  -16    2    6      1.39      0.00
  -16    2    5      0.98      0.00
  -16    2    4     -0.18      0.00
  -16    2    3      0.44      0.00
  -16    2    2      0.61      0.00
  -16    2    1      0.02      0.00
   16    2    0     -0.01      0.00
   16    2    1      0.22      0.00
   16    2    2      0.88      0.00
   16    2    3      0.32      0.00
   16    2    4      0.22      0.00
   16    2    5      0.47      0.00
   16    2    6     -0.06      0.00
   16    2    7     -0.74      0.00
   16    2    8      0.07      0.00
  -16    4   19     -1.09      0.00
  -16    4   18      1.15      0.00
  -16    4   17      0.82      0.00
  -16    4   16     -0.61      0.00
  -16    4   15      0.74      0.00
  -16    4   14     -0.66      0.00
  -16    4   13      0.97      0.00
  -16    4   12      0.38      0.00
  -16    4   11      1.60      0.00
  -16    4   10     -0.54      0.00
  -16    4    9      0.39      0.00
  -16    4    8      0.89      0.00
  -16    4    7      0.99      0.00
  -16    4    6      1.21      0.00
  -16    4    5      0.49      0.00
  -16    4    4      0.20      0.00
  -16    4    3      0.90      0.00
  -16    4    2     -0.62      0.00
  -16    4    1     -0.23      0.00
   16    4    0     -0.48      0.00
   16    4    1     -0.06      0.00
   16    4    2      0.18      0.00
   16    4    3      0.50      0.00
   16    4    4      0.29      0.00
   16    4    5      0.68      0.00
   16    4    6      0.19      0.00
   16    4    7     -0.20      0.00
   16    4    8     -0.47      0.00
  -16    6   19      0.27      0.00
  -16    6   18      0.82      0.00
  -16    6   17     -0.47      0.00
  -16    6   16     -0.34      0.00
  -16    6   15      0.40      0.00
  -16    6   14     -0.17      0.00
  -16    6   13      0.34      0.00
  -16    6   12      0.51      0.00
  -16    6   11      0.58      0.00
  -16    6   10     -1.01      0.00
  -16    6    9      1.08      0.00
  -16    6    8      1.70      0.00
  -16    6    7      0.50      0.00
  -16    6    6      1.16      0.00
  -16    6    5     -0.06      0.00
  -16    6    4      0.23      0.00
  -16    6    3     -0.03      0.00
  -16    6    2     -0.67      0.00
  -16    6    1     -0.73      0.00
   16    6    0     -0.19      0.00
   16    6    1     -0.56      0.00
   16    6    2     -0.41      0.00
   16    6    3      0.55      0.00
   16    6    4     -1.00      0.00
   16    6    5      0.53      0.00
   16    6    6      0.29      0.00
   16    6    7      0.51      0.00
   16    6    8     -0.52      0.00
  -16    8   18     -0.01      0.00
  -16    8   17     -0.71      0.00
  -16    8   16     -0.00      0.00
  -16    8   15     -0.29      0.00
  -16    8   14     -0.55      0.00
  -16    8   13      0.10      0.00
  -16    8   12      0.98      0.00
  -16    8   11     -1.04      0.00
  -16    8   10      1.19      0.00
  -16    8    9      0.92      0.00
  -16    8    8      0.59      0.00
  -16    8    7     -0.70      0.00
  -16    8    6      1.31      0.00
  -16    8    5      0.19      0.00
  -16    8    4      0.82      0.00
  -16    8    3     -0.83      0.00
  -16    8    2     -0.79      0.00
  -16    8    1     -0.45      0.00
   16    8    0      1.26      0.00
   16    8    1      1.16      0.00
   16    8    2     -0.84      0.00
   16    8    3      0.58      0.00
   16    8    4     -0.72      0.00
   16    8    5     -0.74      0.00
   16    8    6     -0.23      0.00
   16    8    7      0.46      0.00
  -16   10   17     -0.22      0.00
  -16   10   16      0.21      0.00
  -16   10   15     -1.07      0.00
  -16   10   14      0.23      0.00
  -16   10   13      0.09      0.00
  -16   10   12     -0.01      0.00
  -16   10   11     -0.47      0.00
  -16   10   10      1.29      0.00
  -16   10    9     -1.57      0.00
  -16   10    8      0.85      0.00
  -16   10    7      0.46      0.00
  -16   10    6      1.78      0.00
  -16   10    5      0.13      0.00
  -16   10    4     -0.96      0.00
  -16   10    3     -0.36      0.00
  -16   10    2      0.18      0.00
  -16   10    1      0.58      0.00
   16   10    0      0.01      0.00
   16   10    1      1.78      0.00
   16   10    2      1.06      0.00
   16   10    3      0.63      0.00
   16   10    4      0.56      0.00
   16   10    5     -0.80      0.00
  -16   12   16     -0.54      0.00
  -16   12   15     -0.57      0.00
  -16   12   14      0.33      0.00
  -16   12   13     -0.88      0.00
  -16   12   12      0.10      0.00
  -16   12   11     -0.27      0.00
  -16   12   10     -0.04      0.00
  -16   12    9     -0.20      0.00
  -16   12    8      0.90      0.00
  -16   12    7      0.53      0.00
  -16   12    6     -0.77      0.00
  -16   12    5     -0.13      0.00
  -16   12    4     -0.50      0.00
  -16   12    3      1.99      0.00
  -16   12    2     -0.46      0.00
  -16   12    1      0.48      0.00
   16   12    0     -1.02      0.00
   16   12    1     -0.16      0.00
   16   12    2      1.04      0.00
  -16   14   15      0.15      0.00
  -16   14   14     -0.41      0.00
  -16   14   13     -0.53      0.00
  -16   14   12      0.10      0.00
  -16   14   11     -0.31      0.00
  -16   14   10     -0.20      0.00
  -16   14    9     -0.14      0.00
  -16   14    8     -0.48      0.00
  -16   14    7      0.35      0.00
  -16   14    6     -1.89      0.00
  -16   14    5      1.84      0.00
  -16   14    4     -0.20      0.00
  -16   14    3      1.36      0.00
  -16   14    2     -1.28      0.00
  -16   14    1      0.60      0.00
  -16   16   13     -0.35      0.00
  -16   16   12     -0.15      0.00
  -16   16   11     -0.36      0.00
  -16   16   10     -0.37      0.00
  -16   16    9      0.53      0.00
  -16   16    8     -0.39      0.00
  -16   16    7     -0.67      0.00
  -16   16    6     -0.87      0.00
  -16   18   12      0.09      0.00
  -16   18   11     -0.20      0.00
  -17    1   19     -0.12      0.00
  -17    1   18      0.46      0.00
  -17    1   17     -0.09      0.00
  -17    1   16     -1.46      0.00
  -17    1   15      0.97      0.00
  -17    1   14     -0.05      0.00
  -17    1   13     -0.87      0.00
  -17    1   12     -1.30      0.00
  -17    1   11      1.92      0.00
  -17    1   10      2.08      0.00
  -17    1    9     -0.35      0.00
  -17    1    8      1.32      0.00
  -17    1    7     -0.40      0.00
  -17    1    6     -0.10      0.00
  -17    1    5      0.95      0.00
  -17    1    4      0.77      0.00
  -17    1    3     -0.02      0.00
  -17    1    2      0.57      0.00
  -17    1    1      0.08      0.00
   17    1    0      0.35      0.00
   17    1    1      0.41      0.00
   17    1    2      0.39      0.00
   17    1    3     -0.45      0.00
   17    1    4      1.01      0.00
   17    1    5      0.46      0.00
   17    1    6     -0.32      0.00
   17    1    7     -0.51      0.00
  -17    3   19     -0.49      0.00
  -17    3   18      0.48      0.00
  -17    3   17     -0.28      0.00
  -17    3   16     -0.26      0.00
  -17    3   15      1.69      0.00
  -17    3   14     -1.57      0.00
  -17    3   13      0.26      0.00
  -17    3   12      1.16      0.00
  -17    3   11      1.86      0.00
  -17    3   10     -0.33      0.00
  -17    3    9     -0.05      0.00
  -17    3    8      1.05      0.00
  -17    3    7     -0.02      0.00
  -17    3    6      1.15      0.00
  -17    3    5      1.24      0.00
  -17    3    4     -0.24      0.00
  -17    3    3      0.51      0.00
  -17    3    2     -0.10      0.00
  -17    3    1     -0.28      0.00
   17    3    0      0.11      0.00
   17    3    1     -0.03      0.00
   17    3    2      0.46      0.00
   17    3    3     -0.04      0.00
   17    3    4      0.41      0.00
   17    3    5      0.50      0.00
   17    3    6      0.11      0.00
  -17    5   18      0.65      0.00
  -17    5   17      0.05      0.00
  -17    5   16      0.24      0.00
  -17    5   15     -0.05      0.00
  -17    5   14     -0.81      0.00
  -17    5   13      1.70      0.00
  -17    5   12      0.61      0.00
  -17    5   11      0.37      0.00
  -17    5   10     -0.79      0.00
  -17    5    9      0.94      0.00
  -17    5    8      1.45      0.00
  -17    5    7      0.40      0.00
  -17    5    6      1.46      0.00
  -17    5    5      0.04      0.00
  -17    5    4     -0.49      0.00
  -17    5    3      0.26      0.00
  -17    5    2     -0.59      0.00
  -17    5    1      0.21      0.00
   17    5    0     -0.43      0.00
   17    5    1      0.29      0.00
   17    5    2      0.15      0.00
   17    5    3     -0.29      0.00
   17    5    4     -0.64      0.00
   17    5    5      0.91      0.00
   17    5    6      0.12      0.00
   17    5    7      0.46      0.00
  -17    7   18      0.34      0.00
  -17    7   17     -0.87      0.00
  -17    7   16     -0.35      0.00
  -17    7   15      0.04      0.00
  -17    7   14      0.62      0.00
  -17    7   13      0.40      0.00
  -17    7   12      0.03      0.00
  -17    7   11     -0.66      0.00
  -17    7   10      1.02      0.00
  -17    7    9      1.68      0.00
  -17    7    8      0.92      0.00
  -17    7    7     -0.25      0.00
  -17    7    6      0.74      0.00
  -17    7    5     -0.61      0.00
  -17    7    4      0.44      0.00
  -17    7    3     -0.03      0.00
  -17    7    2     -0.31      0.00
  -17    7    1     -0.98      0.00
   17    7    0     -0.30      0.00
   17    7    1     -0.17      0.00
   17    7    2     -0.20      0.00
   17    7    3      0.68      0.00
   17    7    4     -1.31      0.00
   17    7    5     -0.21      0.00
   17    7    6     -0.34      0.00
  -17    9   17     -0.65      0.00
  -17    9   16      0.84      0.00
  -17    9   15     -0.53      0.00
  -17    9   14     -0.16      0.00
  -17    9   13     -0.37      0.00
  -17    9   12      0.38      0.00
  -17    9   11      0.24      0.00
  -17    9   10      2.27      0.00
  -17    9    9     -1.00      0.00
  -17    9    8      0.03      0.00
  -17    9    7     -0.08      0.00
  -17    9    6      1.05      0.00
  -17    9    5      0.61      0.00
  -17    9    4      0.20      0.00
  -17    9    3     -0.54      0.00
  -17    9    2     -0.92      0.00
  -17    9    1     -0.90      0.00
   17    9    0      0.84      0.00
   17    9    1      0.79      0.00
   17    9    2      0.08      0.00
   17    9    3      0.66      0.00
   17    9    4     -0.34      0.00
  -17   11   16     -0.22      0.00
  -17   11   15     -1.19      0.00
  -17   11   14      0.52      0.00
  -17   11   13     -0.26      0.00
  -17   11   12      0.51      0.00
  -17   11   11      0.30      0.00
  -17   11   10      0.03      0.00
  -17   11    9     -1.33      0.00
  -17   11    8      0.99      0.00
  -17   11    7      0.86      0.00
  -17   11    6      0.33      0.00
  -17   11    5      0.51      0.00
  -17   11    4     -0.98      0.00
  -17   11    3      0.08      0.00
  -17   11    2     -0.98      0.00
  -17   11    1      0.74      0.00
   17   11    0      0.46      0.00
   17   11    1      0.50      0.00
   17   11    2      0.51      0.00
  -17   13   15      0.19      0.00
  -17   13   14     -0.14      0.00
  -17   13   13     -0.54      0.00
  -17   13   12      0.66      0.00
  -17   13   11     -0.08      0.00
  -17   13   10     -0.77      0.00
  -17   13    9     -0.16      0.00
  -17   13    8     -0.17      0.00
  -17   13    7      0.80      0.00
  -17   13    6     -1.22      0.00
  -17   13    5      1.24      0.00
  -17   13    4     -1.05      0.00
  -17   13    3      0.80      0.00
  -17   13    2     -0.41      0.00
  -17   13    1      1.28      0.00
  -17   15   14     -0.67      0.00
  -17   15   13      0.65      0.00
  -17   15   12     -0.04      0.00
  -17   15   11     -1.07      0.00
  -17   15   10     -0.95      0.00
  -17   15    9      0.23      0.00
  -17   17   12     -1.03      0.00
  -18    0   18      1.08      0.00
  -18    0   16     -2.17      0.00
  -18    0   14     -0.01      0.00
  -18    0   12     -1.08      0.00
  -18    0   10      1.86      0.00
  -18    0    8      1.84      0.00
  -18    0    6     -0.62      0.00
  -18    0    4      0.46      0.00
  -18    0    2      0.72      0.00
   18    0    0      1.19      0.00
   18    0    2     -0.19      0.00
   18    0    4      0.54      0.00
   18    0    6      0.40      0.00
  -18    2   18      0.74      0.00
  -18    2   17     -0.96      0.00
  -18    2   16     -0.81      0.00
  -18    2   15      1.68      0.00
  -18    2   14     -1.42      0.00
  -18    2   13     -0.29      0.00
  -18    2   12      0.59      0.00
  -18    2   11      1.69      0.00
  -18    2   10      0.76      0.00
  -18    2    9      0.01      0.00
  -18    2    8      1.39      0.00
  -18    2    7     -0.90      0.00
  -18    2    6     -0.09      0.00
  -18    2    5      1.22      0.00
  -18    2    4      0.41      0.00
  -18    2    3      0.53      0.00
  -18    2    2      0.28      0.00
  -18    2    1     -0.01      0.00
   18    2    0      0.57      0.00
   18    2    1      0.45      0.00
   18    2    2      0.26      0.00
   18    2    3     -0.27      0.00
   18    2    4      0.40      0.00
   18    2    5     -0.33      0.00
   18    2    6      0.45      0.00
  -18    4   18     -0.14      0.00
  -18    4   17     -0.12      0.00
  -18    4   16      0.79      0.00
  -18    4   15     -0.03      0.00
  -18    4   14     -1.55      0.00
  -18    4   13      1.96      0.00
  -18    4   12      1.02      0.00
  -18    4   11      0.57      0.00
  -18    4   10     -0.35      0.00
  -18    4    9      0.60      0.00
  -18    4    8      0.96      0.00
  -18    4    7     -0.59      0.00
  -18    4    6      1.59      0.00
  -18    4    5      1.04      0.00
  -18    4    4     -0.62      0.00
  -18    4    3      0.39      0.00
  -18    4    2     -0.69      0.00
  -18    4    1      0.40      0.00
   18    4    0      0.35      0.00
   18    4    1      0.54      0.00
   18    4    2      0.01      0.00
   18    4    3     -0.44      0.00
   18    4    4      0.19      0.00
   18    4    5      0.37      0.00
   18    4    6     -0.44      0.00
  -18    6   17      0.04      0.00
  -18    6   16     -0.74      0.00
  -18    6   15     -0.95      0.00
  -18    6   14      1.18      0.00
  -18    6   13      1.76      0.00
  -18    6   12     -0.31      0.00
  -18    6   11     -0.28      0.00
  -18    6   10      0.58      0.00
  -18    6    9      1.25      0.00
  -18    6    8      0.71      0.00
  -18    6    7      0.26      0.00
  -18    6    6      1.24      0.00
  -18    6    5     -0.67      0.00
  -18    6    4     -0.36      0.00
  -18    6    3     -0.13      0.00
  -18    6    2     -0.19      0.00
  -18    6    1      0.49      0.00
   18    6    0     -0.96      0.00
   18    6    1      0.40      0.00
   18    6    2      0.16      0.00
   18    6    3      0.08      0.00
   18    6    4     -1.09      0.00
   18    6    5      0.27      0.00
   18    6    6     -0.14      0.00
  -18    8   17     -1.32      0.00
  -18    8   16      0.01      0.00
  -18    8   15      0.61      0.00
  -18    8   14      1.42      0.00
  -18    8   13     -0.74      0.00
  -18    8   12     -0.31      0.00
  -18    8   11      0.39      0.00
  -18    8   10      1.87      0.00
  -18    8    9      0.11      0.00
  -18    8    8      0.48      0.00
  -18    8    7      0.15      0.00
  -18    8    6      0.26      0.00
  -18    8    5     -0.24      0.00
  -18    8    4     -0.22      0.00
  -18    8    3     -0.02      0.00
  -18    8    2      0.23      0.00
  -18    8    1     -1.45      0.00
   18    8    0     -0.42      0.00
   18    8    1      0.05      0.00
   18    8    2     -0.37      0.00
   18    8    3      0.31      0.00
   18    8    4     -0.50      0.00
  -18   10   16      0.64      0.00
  -18   10   15     -0.31      0.00
  -18   10   14     -0.01      0.00
  -18   10   13     -0.83      0.00
  -18   10   12      0.98      0.00
  -18   10   11      0.60      0.00
  -18   10   10      0.79      0.00
  -18   10    9     -0.85      0.00
  -18   10    8      0.66      0.00
  -18   10    7      0.23      0.00
  -18   10    6     -0.04      0.00
  -18   10    5      0.48      0.00
  -18   10    4     -0.28      0.00
  -18   10    3      0.54      0.00
  -18   10    2     -1.47      0.00
  -18   10    1     -1.13      0.00
   18   10    0      0.98      0.00
   18   10    1      0.35      0.00
   18   10    3      0.17      0.00
  -18   12   15     -0.12      0.00
  -18   12   14     -0.16      0.00
  -18   12   13     -0.25      0.00
  -18   12   12      0.72      0.00
  -18   12   11      0.14      0.00
  -18   12   10     -0.31      0.00
  -18   12    9     -0.16      0.00
  -18   12    8     -0.15      0.00
  -18   12    7      0.39      0.00
  -18   12    6     -0.58      0.00
  -18   12    5      1.40      0.00
  -18   12    4     -0.78      0.00
  -18   12    3     -0.05      0.00
  -18   14   14     -0.80      0.00
  -18   14   13      0.65      0.00
  -18   14   12      0.38      0.00
  -18   14   11     -0.46      0.00
  -18   14   10     -0.95      0.00
  -19    1   17     -0.42      0.00
  -19    1   16     -1.01      0.00
  -19    1   15      0.61      0.00
  -19    1   14     -1.10      0.00
  -19    1   13      0.20      0.00
  -19    1   12      0.48      0.00
  -19    1   11      0.34      0.00
  -19    1   10      0.81      0.00
  -19    1    9      0.11      0.00
  -19    1    8      1.61      0.00
  -19    1    7     -0.12      0.00
  -19    1    6     -0.09      0.00
  -19    1    5      0.08      0.00
  -19    1    4      0.45      0.00
  -19    1    3      0.35      0.00
  -19    1    2      0.08      0.00
  -19    1    1      0.29      0.00
   19    1    0      1.32      0.00
   19    1    1      0.03      0.00
   19    1    2      0.40      0.00
   19    1    3      0.23      0.00
   19    1    4     -0.23      0.00
   19    1    5     -0.36      0.00
  -19    3   17     -0.04      0.00
  -19    3   16      0.45      0.00
  -19    3   15      0.18      0.00
  -19    3   14     -1.44      0.00
  -19    3   13      1.34      0.00
  -19    3   12      0.85      0.00
  -19    3   11      0.46      0.00
  -19    3   10      0.25      0.00
  -19    3    9      0.58      0.00
  -19    3    8      1.31      0.00
  -19    3    7     -1.07      0.00
  -19    3    6      0.32      0.00
  -19    3    5      1.37      0.00
  -19    3    4      0.13      0.00
  -19    3    3      0.16      0.00
  -19    3    2     -0.21      0.00
  -19    3    1      0.77      0.00
   19    3    0      0.78      0.00
   19    3    1      0.38      0.00
   19    3    2     -0.09      0.00
   19    3    3      0.09      0.00
   19    3    4      0.42      0.00
   19    3    5     -0.34      0.00
  -19    5   17      0.91      0.00
  -19    5   16     -0.32      0.00
  -19    5   15     -1.21      0.00
  -19    5   14      0.40      0.00
  -19    5   13      2.13      0.00
  -19    5   12     -0.15      0.00
  -19    5   11     -0.12      0.00
  -19    5   10      0.86      0.00
  -19    5    9      1.12      0.00
  -19    5    8      0.18      0.00
  -19    5    7     -0.41      0.00
  -19    5    6      1.48      0.00
  -19    5    5      0.21      0.00
  -19    5    4     -0.62      0.00
  -19    5    3      0.15      0.00
  -19    5    2     -0.28      0.00
  -19    5    1      0.88      0.00
   19    5    0     -0.44      0.00
   19    5    1      0.54      0.00
   19    5    2     -0.05      0.00
   19    5    3     -0.14      0.00
   19    5    4     -0.45      0.00
  -19    7   16     -1.18      0.00
  -19    7   15     -0.02      0.00
  -19    7   14      2.17      0.00
  -19    7   13      0.15      0.00
  -19    7   12     -0.51      0.00
  -19    7   11      1.00      0.00
  -19    7   10      1.38      0.00
  -19    7    9     -0.16      0.00
  -19    7    8      0.11      0.00
  -19    7    7      0.46      0.00
  -19    7    6      0.52      0.00
  -19    7    5     -0.10      0.00
  -19    7    4     -0.52      0.00
  -19    7    3     -0.53      0.00
  -19    7    2      0.29      0.00
  -19    7    1     -0.27      0.00
   19    7    0     -0.92      0.00
   19    7    1      0.02      0.00
   19    7    2     -0.60      0.00
   19    7    3      0.31      0.00
  -19    9   16      0.19      0.00
  -19    9   15      1.01      0.00
  -19    9   14      0.83      0.00
  -19    9   13     -1.12      0.00
  -19    9   12      1.09      0.00
  -19    9   11      0.53      0.00
  -19    9   10      0.27      0.00
  -19    9    9     -0.27      0.00
  -19    9    8      0.75      0.00
  -19    9    7      0.48      0.00
  -19    9    6      0.08      0.00
  -19    9    5     -0.17      0.00
  -19    9    4     -1.27      0.00
  -19    9    3      0.56      0.00
  -19    9    2     -0.07      0.00
  -19    9    1     -1.45      0.00
   19    9    0      0.23      0.00
   19    9    1      0.52      0.00
   19    9    2     -0.23      0.00
  -19   11   15      0.42      0.00
  -19   11   14     -0.48      0.00
  -19   11   13     -0.08      0.00
  -19   11   12      0.85      0.00
  -19   11   11     -0.30      0.00
  -19   11   10      0.26      0.00
  -19   11    9      0.20      0.00
  -19   11    8      0.06      0.00
  -19   11    7      0.48      0.00
  -19   11    6     -0.76      0.00
  -19   11    5      0.24      0.00
  -19   11    4     -0.36      0.00
  -19   13   14     -0.60      0.00
  -19   13   13      0.60      0.00
  -19   13   12     -0.07      0.00
  -19   13   11     -0.13      0.00
  -19   13   10     -0.38      0.00
  -20    0   16     -0.33      0.00
  -20    0   14     -1.76      0.00
  -20    0   12      1.46      0.00
  -20    0   10      0.87      0.00
  -20    0    8      0.65      0.00
  -20    0    6      0.44      0.00
  -20    0    4      0.92      0.00
  -20    0    2     -0.20      0.00
   20    0    0      0.64      0.00
   20    0    2      0.87      0.00
  -20    2   16     -0.20      0.00
  -20    2   15     -0.23      0.00
  -20    2   14     -0.87      0.00
  -20    2   13      1.38      0.00
  -20    2   12      0.77      0.00
  -20    2   11     -0.05      0.00
  -20    2   10      0.57      0.00
  -20    2    9     -0.27      0.00
  -20    2    8      1.39      0.00
  -20    2    7      0.09      0.00
  -20    2    6     -0.26      0.00
  -20    2    5      0.87      0.00
  -20    2    4      0.91      0.00
  -20    2    3     -0.31      0.00
  -20    2    2     -0.20      0.00
  -20    2    1      0.66      0.00
   20    2    0      1.01      0.00
   20    2    1     -0.38      0.00
   20    2    2      0.18      0.00
   20    2    3      0.13      0.00
  -20    4   16     -0.25      0.00
  -20    4   15     -0.37      0.00
  -20    4   14      0.03      0.00
  -20    4   13      1.67      0.00
  -20    4   12      0.17      0.00
  -20    4   11     -0.38      0.00
  -20    4   10      0.53      0.00
  -20    4    9      0.88      0.00
  -20    4    8      0.95      0.00
  -20    4    7     -0.80      0.00
  -20    4    6      0.71      0.00
  -20    4    5      1.30      0.00
  -20    4    4     -0.67      0.00
  -20    4    3     -0.16      0.00
  -20    4    2      0.50      0.00
  -20    4    1      1.03      0.00
   20    4    0     -0.02      0.00
   20    4    1      0.28      0.00
   20    4    2     -0.12      0.00
   20    4    3     -0.18      0.00
  -20    6   16     -0.74      0.00
  -20    6   15     -0.28      0.00
  -20    6   14      1.33      0.00
  -20    6   13      0.77      0.00
  -20    6   12     -0.89      0.00
  -20    6   11      0.78      0.00
  -20    6   10      1.79      0.00
  -20    6    9      0.24      0.00
  -20    6    8     -0.23      0.00
  -20    6    7     -0.05      0.00
  -20    6    6      0.59      0.00
  -20    6    5      0.12      0.00
  -20    6    4     -0.52      0.00
  -20    6    3      0.34      0.00
  -20    6    2      0.11      0.00
  -20    6    1     -0.16      0.00
   20    6    0     -0.82      0.00
   20    6    1     -0.14      0.00
  -20    8   15      0.57      0.00
  -20    8   14      1.22      0.00
  -20    8   13     -0.70      0.00
  -20    8   12      0.91      0.00
  -20    8   11      1.46      0.00
  -20    8   10      0.10      0.00
  -20    8    9     -0.60      0.00
  -20    8    8      0.15      0.00
  -20    8    7      0.28      0.00
  -20    8    6      0.24      0.00
  -20    8    5      0.47      0.00
  -20    8    4     -0.98      0.00
  -20    8    3     -0.36      0.00
  -20    8    2     -0.18      0.00
  -20    8    1     -0.74      0.00
   20    8    0     -0.08      0.00
   20    8    1      0.18      0.00
  -20   10   14     -0.03      0.00
  -20   10   13     -0.05      0.00
  -20   10   12      1.16      0.00
  -20   10   11     -0.39      0.00
  -20   10   10      0.02      0.00
  -20   10    9      0.22      0.00
  -20   10    8     -0.14      0.00
  -20   10    7      0.81      0.00
  -20   10    6     -0.01      0.00
   20   10    0      0.35      0.00
  -20   12   14     -0.51      0.00
  -20   12   13      0.73      0.00
  -20   12   12     -0.00      0.00
  -20   12   11     -0.09      0.00
  -21    1   15     -0.72      0.00
  -21    1   14     -1.35      0.00
  -21    1   13      1.15      0.00
  -21    1   12      1.08      0.00
  -21    1   11     -0.02      0.00
  -21    1   10      1.39      0.00
  -21    1    9     -0.61      0.00
  -21    1    8      0.66      0.00
  -21    1    7      0.20      0.00
  -21    1    6     -0.29      0.00
  -21    1    5      0.66      0.00
  -21    1    4      1.20      0.00
  -21    1    3     -0.19      0.00
  -21    1    2      0.14      0.00
  -21    1    1      0.14      0.00
   21    1    0      0.39      0.00
  -21    3   15     -0.14      0.00
  -21    3   14      0.35      0.00
  -21    3   13      1.17      0.00
  -21    3   12      0.32      0.00
  -21    3   11      0.11      0.00
  -21    3   10      0.40      0.00
  -21    3    9     -0.45      0.00
  -21    3    8      1.38      0.00
  -21    3    7     -0.30      0.00
  -21    3    6      0.06      0.00
  -21    3    5      1.75      0.00
  -21    3    4     -0.00      0.00
  -21    3    3     -0.42      0.00
  -21    3    2      0.52      0.00
  -21    3    1      0.81      0.00
   21    3    0      0.32      0.00
   21    3    1      0.02      0.00
  -21    5   15      0.26      0.00
  -21    5   14      0.53      0.00
  -21    5   13      1.01      0.00
  -21    5   12     -0.35      0.00
  -21    5   11     -0.06      0.00
  -21    5   10      0.91      0.00
  -21    5    9      0.47      0.00
  -21    5    8      0.52      0.00
  -21    5    7     -0.38      0.00
  -21    5    6      0.73      0.00
  -21    5    5      0.75      0.00
  -21    5    4     -1.10      0.00
  -21    5    3      0.65      0.00
  -21    5    2      0.82      0.00
  -21    5    1      0.10      0.00
   21    5    0     -0.70      0.00
  -21    7   15      0.11      0.00
  -21    7   14      0.91      0.00
  -21    7   13     -0.11      0.00
  -21    7   12     -0.14      0.00
  -21    7   11      1.37      0.00
  -21    7   10      0.70      0.00
  -21    7    9     -0.25      0.00
  -21    7    8     -0.05      0.00
  -21    7    7      0.11      0.00
  -21    7    6     -0.06      0.00
  -21    7    5      0.09      0.00
  -21    7    4     -0.28      0.00
  -21    9   14      0.50      0.00
  -21    9   13     -0.15      0.00
  -21    9   12      0.98      0.00
  -21    9   11      0.37      0.00
  -21    9   10     -0.20      0.00
  -21    9    7      0.20      0.00
  -21    9    6     -0.16      0.00
  -21   11   13      0.27      0.00
  -21   11   12      0.28      0.00
  -22    0   14     -1.20      0.00
  -22    0   12      0.77      0.00
  -22    0   10      1.49      0.00
  -22    0    8      1.15      0.00
  -22    0    6     -0.59      0.00
  -22    0    2      0.17      0.00
  -22    2   14      0.28      0.00
  -22    2   13      0.84      0.00
  -22    2   12      0.12      0.00
  -22    2   11      0.26      0.00
  -22    2   10      1.17      0.00
  -22    2    9     -0.53      0.00
  -22    2    8      0.93      0.00
  -22    2    7     -0.33      0.00
  -22    2    6      0.05      0.00
  -22    2    5      1.16      0.00
  -22    2    4      0.24      0.00
  -22    2    3      0.07      0.00
  -22    2    2      0.44      0.00
  -22    2    1      0.65      0.00
  -22    4   14      0.34      0.00
  -22    4   13      0.21      0.00
  -22    4   12      0.26      0.00
  -22    4   11      0.37      0.00
  -22    4   10      0.36      0.00
  -22    4    9     -0.29      0.00
  -22    4    8      0.86      0.00
  -22    4    7     -0.15      0.00
  -22    4    6      0.51      0.00
  -22    4    5      1.15      0.00
  -22    4    4     -0.47      0.00
  -22    4    3      0.47      0.00
  -22    6   14      0.31      0.00
  -22    6   13      0.50      0.00
  -22    6   12      0.06      0.00
  -22    6   11      0.40      0.00
  -22    6   10      0.29      0.00
  -22    6    9      0.07      0.00
  -22    6    8      0.14      0.00
  -22    6    7      0.20      0.00
  -22    6    6      0.41      0.00
  -22    6    5      0.15      0.00
  -22    8   13      0.11      0.00
  -22    8   12      0.22      0.00
  -22    8   11      0.46      0.00
  -23    1   12      0.47      0.00
  -23    1   11     -0.29      0.00
  -23    1   10      0.91      0.00
  -23    1    9      0.25      0.00
  -23    1    8      1.03      0.00
  -23    1    7     -0.35      0.00
  -23    1    6      0.16      0.00
  -23    1    3      0.06      0.00
  -23    3   13     -0.14      0.00
  -23    3   12     -0.10      0.00
  -23    3   11      0.18      0.00
  -23    3   10      1.05      0.00
  -23    3    9     -0.35      0.00
  -23    3    8      0.35      0.00
  -23    3    7      0.36      0.00
  -23    3    6      0.46      0.00
  -23    3    5      0.46      0.00
  -23    5   13     -0.18      0.00
  -23    5   12      0.53      0.00
  -23    5   11      0.36      0.00
  -23    5   10      0.10      0.00
  -23    5    8      0.45      0.00
  -23    5    7      0.40      0.00
  -23    5    6      0.12      0.00
  -23    5    5      0.66      0.00
  -23    7   12      0.28      0.00
  -24    0   10      0.52      0.00
  -24    0    8      0.63      0.00
  -24    2   11     -0.62      0.00
  -24    2   10      1.15      0.00
  -24    2    8      0.01      0.00
    2    0    0     45.92      0.00
    1    1    0     96.75      0.00
    0    2    0     51.60      0.00
    2    2    0     32.19      0.00
    0   12    0      5.46      0.00
   18   12    0      0.48      0.00
   17   13    0     -0.86      0.00
   16   14    0     -0.78      0.00
    0   24    0     -0.79      0.00
   -1    1    1     51.05      0.00
    1    1    1     37.10      0.00
   -2    2    1      4.87      0.00
    0    2    1     86.65      0.00
  -18   12    1      1.23      0.00
   17   13    1     -0.19      0.00
   16   14    1     -1.05      0.00
   15   15    1     -0.17      0.00
   14   16    1      0.47      0.00
  -15   17    1      0.09      0.00
  -14   18    1     -0.71      0.00
  -13   19    1     -1.20      0.00
  -12   20    1     -0.79      0.00
   -2   24    1      0.24      0.00
    0   24    1     -0.90      0.00
   -2    0    2     37.66      0.00
    0    0    2    -36.41      0.00
   -1    1    2    -12.88      0.00
  -19   11    2     -1.68      0.00
  -18   12    2     -1.47      0.00
  -17   15    2     -0.15      0.00
   15   15    2     -1.35      0.00
  -16   16    2     -0.68      0.00
   14   16    2     -0.68      0.00
  -15   17    2     -0.39      0.00
   13   17    2     -0.72      0.00
  -14   18    2      0.05      0.00
   12   18    2     -0.97      0.00
  -13   19    2     -0.23      0.00
   11   19    2      0.51      0.00
  -12   20    2     -0.12      0.00
   10   20    2      0.76      0.00
    9   21    2      0.15      0.00
   -2   24    2     -0.60      0.00
  -20   10    3      0.50      0.00
  -19   11    3      0.78      0.00
   17   11    3      0.80      0.00
   16   12    3      0.39      0.00
  -18   14    3      0.45      0.00
  -17   15    3      0.96      0.00
  -16   16    3      0.32      0.00
   14   16    3     -0.58      0.00
  -15   17    3     -0.29      0.00
   13   17    3      0.31      0.00
  -14   18    3      0.32      0.00
   12   18    3     -0.34      0.00
   11   19    3     -0.48      0.00
   10   20    3      0.74      0.00
  -22    0    4      0.71      0.00
  -20   10    4     -1.35      0.00
   15   13    4      0.12      0.00
  -18   14    4     -1.47      0.00
   14   14    4      0.39      0.00
  -17   15    4     -1.04      0.00
  -16   16    4     -0.38      0.00
    6   22    4     -0.39      0.00
  -20   10    5     -0.27      0.00
  -19   13    5      1.15      0.00
  -18   14    5      1.23      0.00
   14   14    5     -0.57      0.00
  -17   15    5      1.10      0.00
   13   15    5     -0.23      0.00
  -16   16    5      1.50      0.00
   12   16    5     -1.05      0.00
   11   17    5     -0.44      0.00
   10   18    5      0.41      0.00
    9   19    5     -0.93      0.00
    8   20    5     -0.26      0.00
    7   21    5      0.28      0.00
   -5   23    5      0.88      0.00
   15   11    6     -0.36      0.00
  -19   13    6     -0.83      0.00
  -18   14    6     -0.53      0.00
  -17   15    6     -1.38      0.00
   11   17    6     -0.50      0.00
   10   18    6      0.81      0.00
    9   19    6      0.91      0.00
    4   22    6     -1.00      0.00
  -19   13    7      0.52      0.00
   13   13    7      0.39      0.00
  -18   14    7      0.87      0.00
   12   14    7      0.03      0.00
  -17   15    7      0.50      0.00
   11   15    7      0.05      0.00
   10   16    7     -0.60      0.00
    9   17    7     -1.40      0.00
    8   18    7      0.00      0.00
    7   19    7     -0.58      0.00
    6   20    7     -1.54      0.00
    5   21    7     -0.10      0.00
  -21    9    8     -0.31      0.00
  -19   13    8     -0.84      0.00
  -18   14    8     -1.01      0.00
  -17   15    8     -0.16      0.00
   11   15    8     -0.58      0.00
   10   16    8      0.11      0.00
    9   17    8     -0.09      0.00
    8   18    8      0.56      0.00
    7   19    8      1.88      0.00
    3   21    8      1.17      0.00
   15    3    9     -0.15      0.00
  -21    9    9      0.19      0.00
   12   12    9      0.73      0.00
  -19   13    9      0.20      0.00
   11   13    9      0.86      0.00
  -18   14    9     -0.12      0.00
    8   16    9     -0.49      0.00
    7   17    9     -1.94      0.00
    6   18    9     -1.08      0.00
    5   19    9      0.58      0.00
    4   20    9     -0.39      0.00
   -7   21    9      0.78      0.00
    9   15   10      0.16      0.00
    8   16   10      0.37      0.00
    7   17   10      0.01      0.00
    6   18   10     -0.92      0.00
    3   19   10      1.20      0.00
    2   20   10     -0.27      0.00
   -7   21   10      1.50      0.00
   13    1   11      0.80      0.00
   13    3   11      1.02      0.00
   10   12   11      0.10      0.00
    9   13   11     -0.04      0.00
    8   14   11     -0.04      0.00
    7   15   11     -0.40      0.00
    6   16   11      0.20      0.00
  -15   17   11     -0.38      0.00
    5   17   11     -0.27      0.00
    4   18   11     -1.29      0.00
    3   19   11      0.20      0.00
   -8   20   11     -1.71      0.00
    0   20   11     -0.62      0.00
   12    0   12      0.02      0.00
   12    2   12      0.04      0.00
    3   17   12     -0.08      0.00
    2   18   12     -0.93      0.00
    1   19   12      0.49      0.00
   -8   20   12      0.30      0.00
   -2   20   12     -0.46      0.00
   11    1   13      0.49      0.00
   11    3   13      1.77      0.00
    7   13   13     -0.23      0.00
    6   14   13      0.13      0.00
    5   15   13      0.03      0.00
    4   16   13     -0.57      0.00
    1   17   13     -0.33      0.00
    0   18   13     -1.06      0.00
   -9   19   13     -0.87      0.00
   -7   19   13     -0.21      0.00
   -3   19   13      0.04      0.00
   10    0   14     -0.94      0.00
   10    2   14     -1.21      0.00
    6   12   14     -0.61      0.00
    5   13   14     -0.79      0.00
    4   14   14      0.55      0.00
  -15   15   14     -0.40      0.00
    3   15   14      0.69      0.00
    2   16   14     -0.23      0.00
   -1   17   14     -0.15      0.00
    1   17   14      0.58      0.00
   -4   18   14      0.56      0.00
   -2   18   14     -0.92      0.00
    2   14   15      0.62      0.00
    1   15   15      0.17      0.00
   -2   16   15      0.46      0.00
    0   16   15     -0.68      0.00
   -5   17   15     -0.88      0.00
   -3   17   15     -0.08      0.00
  -21    1   16     -0.04      0.00
    7    1   16     -1.14      0.00
  -21    3   16     -0.70      0.00
    1   13   16     -0.69      0.00
    0   14   16      1.48      0.00
   -3   15   16     -0.08      0.00
   -1   15   16      0.50      0.00
   -6   16   16      0.79      0.00
   -4   16   16      0.79      0.00
  -20    2   17      0.34      0.00
    6    2   17     -0.26      0.00
  -20    4   17      0.91      0.00
  -19    7   17     -0.78      0.00
  -16   12   17      0.21      0.00
   -5   13   17     -0.23      0.00
   -1   13   17     -1.23      0.00
   -6   14   17     -0.09      0.00
   -4   14   17     -0.34      0.00
   -2   14   17      0.52      0.00
   -7   15   17      0.32      0.00
   -5   15   17     -0.34      0.00
  -20    0   18     -0.45      0.00
    4    0   18     -0.79      0.00
  -19    1   18      0.42      0.00
    4    2   18     -0.14      0.00
  -19    3   18     -0.30      0.00
  -19    5   18      0.16      0.00
  -18    6   18      0.47      0.00
  -17    9   18     -0.63      0.00
  -16   10   18     -0.26      0.00
   -6   14   18     -0.17      0.00
  -19    1   19      0.27      0.00
  -18    2   19      0.35      0.00
  -18    4   19      0.40      0.00
    2    4   19     -0.28      0.00
  -17    5   19     -0.08      0.00
  -17    7   19      0.18      0.00
  -16    8   19     -0.04      0.00
    0    0   20      0.03      0.00
  -17    1   20      0.48      0.00
  -17    3   20      0.26      0.00
  -16    4   20     -0.07      0.00
  -16    6   20     -0.07      0.00
  -15    7   20     -0.01      0.00
  -15    1   21     -0.42      0.00
  -16    2   21     -0.35      0.00
  -15    3   21     -0.12      0.00
  -14    6   21      0.71      0.00
  -13    1   22     -0.00      0.00
    0    0    0      0.00      0.00
# SQUEEZE RESULTS (Version = 130220)
# Note: Data are Listed for all Voids in the P1 Unit Cell
# i.e. Centre of Gravity, Solvent Accessible Volume,
# Recovered number of Electrons in the Void and
# Details about the Squeezed Material
loop_
  _platon_squeeze_void_nr
  _platon_squeeze_void_average_x
  _platon_squeeze_void_average_y
  _platon_squeeze_void_average_z
  _platon_squeeze_void_volume
  _platon_squeeze_void_count_electrons
  _platon_squeeze_void_content
   1 -0.000 -0.000 -0.010       414        74 ' '
   2  0.500  0.500 -0.010       414        74 ' '
# Missing Reflections Below sin(th)/lambda = 0.25
loop_
  _platon_missing_refln_index_h
  _platon_missing_refln_index_k
  _platon_missing_refln_index_l
  _platon_missing_refln_theta
    2    0    0     2.562
    1    1    0     1.689
    0    2    0     2.201
    2    2    0     3.379
   -1    1    1     1.777
    1    1    1     2.444
   -2    2    1     3.212
    0    2    1     2.561
   -2    0    2     2.792
    0    0    2     2.618
   -1    1    2     2.626
_platon_squeeze_void_probe_radius                  1.20
_platon_squeeze_details
)
TITL dsmsalndc2 in C2/c; 130K; Xcalibur
CELL   17.5140   18.5021   17.1380     90.00    114.78     90.00
SPGR C2/c
# Solvent Accessible Volume =       829
# Electrons Found in S.A.V. =       147
# Note: Atoms in Void are Labelled as Cxxx and Qxxx for all Others
C101 0.667 0.398 0.285 !       1.82 eA-3
Q102 0.721 0.417 0.343 !       1.75 eA-3
Q103 0.504 0.454 0.487 !       1.31 eA-3
Q104 0.331 0.339 0.801 !       1.31 eA-3
Q105 0.812 0.089 0.321 !       1.26 eA-3
Q106 0.785 0.348 0.063 !       1.08 eA-3
Q107 0.339 0.131 0.233 !       0.86 eA-3
C108 0.956 0.097 0.764 !       0.84 eA-3
C109 0.392 0.329 0.289 !       0.82 eA-3
C110 0.470 0.420 0.342 !       0.82 eA-3
C111 1.000 0.094 0.742 !       0.81 eA-3
Q112 0.320 0.191 0.270 !       0.80 eA-3
Q113 0.486 0.170 0.257 !       0.80 eA-3
Q114 0.720 0.381 0.091 !       0.76 eA-3
Q115 0.490 0.440 0.406 !       0.75 eA-3
Q116 0.614 0.248 0.201 !       0.74 eA-3
Q117 0.542 0.230 0.204 !       0.65 eA-3
Q118 0.777 0.183 0.233 !       0.62 eA-3
Q119 0.423 0.113 0.243 !       0.59 eA-3
Q120 0.986 0.498 0.420 !       0.59 eA-3
Q121 0.923 0.497 0.485 !       0.59 eA-3
Q122 0.261 0.421 0.408 !       0.57 eA-3
Q123 0.191 0.390 0.433 !       0.56 eA-3
Q124 0.967 0.456 0.438 !       0.54 eA-3
Q125 0.248 0.379 0.078 !       0.54 eA-3
Q126 0.032 0.153 0.026 !       0.52 eA-3
Q127 0.982 0.349 0.504 !       0.52 eA-3
)
;
_shelx_fab_checksum              45023
loop_
_space_group_symop_operation_xyz
'x, y, z'
'-x, y, -z+1/2'
'x+1/2, y+1/2, z'
'-x+1/2, y+1/2, -z+1/2'
'-x, -y, -z'
'x, -y, z-1/2'
'-x+1/2, -y+1/2, -z'
'x+1/2, -y+1/2, z-1/2'
loop_
_atom_site_label
_atom_site_type_symbol
_atom_site_fract_x
_atom_site_fract_y
_atom_site_fract_z
_atom_site_U_iso_or_equiv
_atom_site_adp_type
_atom_site_occupancy
_atom_site_site_symmetry_order
_atom_site_calc_flag
_atom_site_refinement_flags_posn
_atom_site_refinement_flags_adp
_atom_site_refinement_flags_occupancy
_atom_site_disorder_assembly
_atom_site_disorder_group
Zn1 Zn 0.74186(2) 0.12508(2) 0.92146(2) 0.03354(17) Uani 1 1 d . . . . .
Li1 Li 0.5779(3) 0.1119(3) 0.7480(4) 0.0378(12) Uani 1 1 d . . . . .
N1 N 0.83815(18) 0.13186(15) 1.04127(19) 0.0362(6) Uani 1 1 d . . . . .
C11 C 0.8847(2) 0.19083(19) 1.0719(2) 0.0399(7) Uani 1 1 d . . . . .
H11 H 0.873262 0.232529 1.036459 0.048 Uiso 1 1 calc R U . . .
C12 C 0.9489(2) 0.19339(19) 1.1534(2) 0.0429(8) Uani 1 1 d . . . . .
H12 H 0.981160 0.236225 1.173548 0.051 Uiso 1 1 calc R U . . .
C13 C 0.9660(2) 0.13282(18) 1.2056(2) 0.0392(8) Uani 1 1 d . . . . .
C14 C 0.9173(2) 0.0719(2) 1.1731(2) 0.0499(10) Uani 1 1 d . . . . .
H14 H 0.927487 0.029340 1.206936 0.060 Uiso 1 1 calc R U . . .
C15 C 0.8545(2) 0.0735(2) 1.0920(2) 0.0495(9) Uani 1 1 d . . . . .
H15 H 0.820971 0.031508 1.070660 0.059 Uiso 1 1 calc R U . . .
O11 O 0.75344(17) 0.21412(15) 0.87049(16) 0.0467(6) Uani 1 1 d . . . . .
O12 O 0.63620(17) 0.19848(15) 0.75258(16) 0.0462(6) Uani 1 1 d . . . . .
O13 O 0.7232(12) 0.5421(8) 0.6183(14) 0.059(3) Uani 0.563(6) 1 d . U P A 1
O14 O 0.8509(16) 0.5296(11) 0.7185(9) 0.049(2) Uani 0.563(6) 1 d . U P A 1
O15 O 0.7348(15) 0.5261(8) 0.6118(16) 0.052(3) Uani 0.437(6) 1 d . U P A 2
O16 O 0.852(2) 0.5355(15) 0.7377(12) 0.053(3) Uani 0.437(6) 1 d . U P A 2
C101 C 0.7014(2) 0.23166(19) 0.7950(2) 0.0388(7) Uani 1 1 d D . . . .
C102 C 0.7299(3) 0.2955(3) 0.7601(4) 0.0386(14) Uani 0.563(6) 1 d D U P A 1
C103 C 0.7668(2) 0.3512(2) 0.8173(2) 0.0543(9) Uani 0.563(6) 1 d D U P A 1
H103 H 0.779107 0.344368 0.876323 0.065 Uiso 0.563(6) 1 calc R U P A 1
C104 C 0.7866(3) 0.4170(2) 0.7912(2) 0.0563(9) Uani 0.563(6) 1 d D U P A 1
H104 H 0.811926 0.454231 0.832027 0.068 Uiso 0.563(6) 1 calc R U P A 1
C105 C 0.7691(5) 0.4282(3) 0.7045(4) 0.0483(17) Uani 0.563(6) 1 d D U P A 1
C106 C 0.7838(3) 0.5043(2) 0.6820(3) 0.0517(9) Uani 1 1 d D U . . .
C107 C 0.7306(6) 0.3717(4) 0.6458(5) 0.0631(18) Uani 0.563(6) 1 d D U P A 1
C108 C 0.7098(5) 0.3050(4) 0.6725(4) 0.0610(18) Uani 0.563(6) 1 d D U P A 1
C109 C 0.6736(7) 0.2489(5) 0.6132(5) 0.082(2) Uani 0.563(6) 1 d D U P A 1
H109 H 0.661147 0.203919 0.632063 0.098 Uiso 0.563(6) 1 calc R U P A 1
C110 C 0.6559(8) 0.2589(5) 0.5268(5) 0.098(3) Uani 0.563(6) 1 d D U P A 1
H110 H 0.630259 0.221175 0.486669 0.118 Uiso 0.563(6) 1 calc R U P A 1
C111 C 0.6758(7) 0.3243(5) 0.4992(6) 0.098(3) Uani 0.563(6) 1 d D U P A 1
H111 H 0.663345 0.331254 0.440195 0.118 Uiso 0.563(6) 1 calc R U P A 1
C112 C 0.7137(7) 0.3792(5) 0.5582(5) 0.084(2) Uani 0.563(6) 1 d D U P A 1
H112 H 0.728711 0.422892 0.538964 0.101 Uiso 0.563(6) 1 calc R U P A 1
C113 C 0.7123(4) 0.3027(3) 0.7587(5) 0.0426(18) Uani 0.437(6) 1 d D U P A 2
C114 C 0.7668(2) 0.3512(2) 0.8173(2) 0.0543(9) Uani 0.437(6) 1 d D U P A 2
H114 H 0.791270 0.339279 0.876704 0.065 Uiso 0.437(6) 1 calc R U P A 2
C115 C 0.7866(3) 0.4170(2) 0.7912(2) 0.0563(9) Uani 0.437(6) 1 d D U P A 2
H115 H 0.823469 0.449560 0.832705 0.068 Uiso 0.437(6) 1 calc R U P A 2
C116 C 0.7527(6) 0.4352(4) 0.7047(4) 0.051(2) Uani 0.437(6) 1 d D U P A 2
C117 C 0.6940(6) 0.3888(5) 0.6444(6) 0.072(2) Uani 0.437(6) 1 d D U P A 2
C118 C 0.6751(6) 0.3209(5) 0.6706(5) 0.066(2) Uani 0.437(6) 1 d D U P A 2
C119 C 0.6209(8) 0.2727(7) 0.6071(6) 0.086(3) Uani 0.437(6) 1 d D U P A 2
H119 H 0.608903 0.227087 0.624878 0.103 Uiso 0.437(6) 1 calc R U P A 2
C120 C 0.5841(9) 0.2894(7) 0.5190(7) 0.103(3) Uani 0.437(6) 1 d D U P A 2
H120 H 0.547709 0.255826 0.478568 0.123 Uiso 0.437(6) 1 calc R U P A 2
C121 C 0.6016(9) 0.3563(7) 0.4912(8) 0.102(3) Uani 0.437(6) 1 d D U P A 2
H121 H 0.577182 0.369597 0.432192 0.123 Uiso 0.437(6) 1 calc R U P A 2
C122 C 0.6567(8) 0.4023(7) 0.5545(6) 0.093(3) Uani 0.437(6) 1 d D U P A 2
H122 H 0.670501 0.446746 0.535736 0.112 Uiso 0.437(6) 1 calc R U P A 2
O21 O 0.65388(16) 0.10360(17) 0.95865(15) 0.0477(7) Uani 1 1 d . . . . .
O22 O 0.53564(14) 0.11022(14) 0.83994(15) 0.0379(5) Uani 1 1 d . . . . .
C201 C 0.5771(2) 0.09014(19) 0.91503(19) 0.0352(7) Uani 1 1 d . . . . .
C202 C 0.5362(2) 0.0440(2) 0.9587(2) 0.0469(9) Uani 1 1 d D U . . .
C203 C 0.5157(3) -0.0284(3) 0.9313(3) 0.0675(18) Uani 0.593(6) 1 d D U P B 1
C204 C 0.4793(4) -0.0731(4) 0.9740(4) 0.0705(19) Uani 0.593(6) 1 d D U P B 1
C205 C 0.4604(7) -0.1454(6) 0.9425(8) 0.082(4) Uani 0.297(3) 1 d D U P B 1
H205 H 0.435829 -0.175113 0.970950 0.098 Uiso 0.297(3) 1 calc R U P B 1
C206 C 0.4731(8) -0.1786(6) 0.8748(8) 0.089(4) Uani 0.297(3) 1 d D U P B 1
H206 H 0.458136 -0.227534 0.858987 0.107 Uiso 0.297(3) 1 calc R U P B 1
C207 C 0.5094(8) -0.1349(7) 0.8319(8) 0.089(4) Uani 0.297(3) 1 d D U P B 1
H207 H 0.520484 -0.152037 0.785369 0.107 Uiso 0.297(3) 1 calc R U P B 1
C208 C 0.5279(7) -0.0637(7) 0.8637(6) 0.077(3) Uani 0.297(3) 1 d D U P B 1
H208 H 0.552741 -0.034354 0.835145 0.093 Uiso 0.297(3) 1 calc R U P B 1
C209 C 0.5731(5) -0.0235(3) 0.9930(4) 0.066(2) Uani 0.407(6) 1 d D U P B 2
C210 C 0.5364(6) -0.0683(5) 1.0349(5) 0.070(2) Uani 0.407(6) 1 d D U P B 2
C211 C 0.5783(10) -0.1347(8) 1.0667(9) 0.076(4) Uani 0.203(3) 1 d D U P B 2
H211 H 0.553321 -0.164683 1.094618 0.091 Uiso 0.203(3) 1 calc R U P B 2
C212 C 0.6515(10) -0.1628(7) 1.0630(10) 0.080(5) Uani 0.203(3) 1 d D U P B 2
H212 H 0.674118 -0.208443 1.086883 0.096 Uiso 0.203(3) 1 calc R U P B 2
C213 C 0.6890(9) -0.1187(9) 1.0214(10) 0.080(5) Uani 0.203(3) 1 d D U P B 2
H213 H 0.738523 -0.132267 1.015319 0.096 Uiso 0.203(3) 1 calc R U P B 2
C214 C 0.6466(7) -0.0526(9) 0.9896(9) 0.077(5) Uani 0.203(3) 1 d D U P B 2
H214 H 0.671410 -0.022832 0.961356 0.092 Uiso 0.203(3) 1 calc R U P B 2
loop_
_atom_site_aniso_label
_atom_site_aniso_U_11
_atom_site_aniso_U_22
_atom_site_aniso_U_33
_atom_site_aniso_U_23
_atom_site_aniso_U_13
_atom_site_aniso_U_12
Zn1 0.0335(2) 0.0347(3) 0.0229(2) -0.00164(13) 0.00251(16) -0.00534(14)
Li1 0.028(2) 0.040(3) 0.036(3) -0.005(2) 0.004(2) -0.002(2)
N1 0.0343(13) 0.0350(14) 0.0280(13) -0.0012(11) 0.0019(11) -0.0044(11)
C11 0.0422(17) 0.0333(16) 0.0290(15) 0.0033(13) -0.0001(13) -0.0056(14)
C12 0.0421(17) 0.0320(16) 0.0344(17) -0.0002(14) -0.0037(14) -0.0065(14)
C13 0.0314(15) 0.0350(17) 0.0328(17) -0.0013(13) -0.0047(14) 0.0004(13)
C14 0.046(2) 0.0355(18) 0.0388(18) 0.0069(15) -0.0109(16) -0.0051(15)
C15 0.0464(19) 0.0372(18) 0.0392(18) 0.0028(15) -0.0073(15) -0.0128(16)
O11 0.0517(14) 0.0459(14) 0.0323(12) 0.0083(11) 0.0077(11) -0.0142(12)
O12 0.0466(13) 0.0458(14) 0.0392(13) 0.0028(11) 0.0111(11) -0.0131(12)
O13 0.066(5) 0.048(6) 0.051(4) 0.013(5) 0.013(3) 0.001(4)
O14 0.058(3) 0.039(3) 0.039(5) 0.002(4) 0.011(5) -0.011(3)
O15 0.071(6) 0.028(5) 0.044(4) 0.010(4) 0.010(4) -0.007(5)
O16 0.055(4) 0.049(6) 0.047(7) 0.014(6) 0.014(6) -0.013(4)
C101 0.0465(18) 0.0376(17) 0.0310(15) 0.0010(13) 0.0149(14) -0.0067(15)
C102 0.045(3) 0.038(3) 0.032(3) 0.003(2) 0.016(2) -0.009(2)
C103 0.063(2) 0.0535(19) 0.0389(17) 0.0021(16) 0.0134(16) -0.0092(18)
C104 0.064(2) 0.0514(19) 0.0428(18) 0.0018(16) 0.0122(16) -0.0122(17)
C105 0.058(3) 0.045(3) 0.039(3) 0.005(3) 0.016(2) -0.013(3)
C106 0.060(2) 0.0451(19) 0.0452(19) 0.0120(16) 0.0175(17) -0.0068(17)
C107 0.083(4) 0.060(3) 0.047(3) 0.003(3) 0.028(3) -0.014(3)
C108 0.082(4) 0.056(3) 0.044(3) -0.005(3) 0.026(3) -0.015(3)
C109 0.117(5) 0.068(4) 0.054(3) -0.001(3) 0.030(4) -0.026(4)
C110 0.140(6) 0.084(5) 0.059(4) -0.007(4) 0.031(4) -0.033(5)
C111 0.139(5) 0.087(5) 0.056(4) -0.003(4) 0.028(4) -0.030(4)
C112 0.114(5) 0.078(4) 0.056(4) 0.002(3) 0.032(4) -0.020(4)
C113 0.051(3) 0.046(4) 0.034(3) 0.001(3) 0.021(3) -0.007(3)
C114 0.063(2) 0.0535(19) 0.0389(17) 0.0021(16) 0.0134(16) -0.0092(18)
C115 0.064(2) 0.0514(19) 0.0428(18) 0.0018(16) 0.0122(16) -0.0122(17)
C116 0.066(4) 0.051(4) 0.038(3) 0.008(3) 0.023(3) -0.012(3)
C117 0.079(4) 0.068(4) 0.057(3) 0.018(3) 0.017(4) -0.027(4)
C118 0.071(4) 0.066(4) 0.055(3) 0.014(3) 0.020(3) -0.031(3)
C119 0.109(5) 0.077(5) 0.056(4) 0.003(4) 0.019(4) -0.031(4)
C120 0.136(6) 0.089(5) 0.060(4) -0.001(4) 0.019(5) -0.034(5)
C121 0.132(6) 0.094(5) 0.063(5) 0.000(5) 0.023(5) -0.036(5)
C122 0.113(5) 0.086(5) 0.065(4) 0.005(4) 0.021(5) -0.028(5)
O21 0.0370(12) 0.0746(18) 0.0208(10) 0.0030(11) 0.0014(9) -0.0226(13)
O22 0.0288(10) 0.0502(13) 0.0281(11) 0.0110(10) 0.0054(9) -0.0017(10)
C201 0.0327(14) 0.0433(18) 0.0237(13) 0.0013(13) 0.0060(12) -0.0064(13)
C202 0.0354(16) 0.068(2) 0.0285(15) 0.0099(15) 0.0053(13) -0.0145(17)
C203 0.079(4) 0.079(4) 0.054(3) -0.001(3) 0.038(3) -0.023(3)
C204 0.085(4) 0.083(4) 0.057(3) -0.001(3) 0.043(3) -0.028(4)
C205 0.100(7) 0.089(7) 0.071(7) -0.010(6) 0.050(6) -0.028(7)
C206 0.109(8) 0.086(8) 0.081(7) -0.015(7) 0.050(7) -0.014(7)
C207 0.116(8) 0.083(8) 0.081(8) -0.010(7) 0.053(7) -0.014(7)
C208 0.101(7) 0.074(7) 0.073(6) -0.004(6) 0.052(6) -0.023(6)
C209 0.064(4) 0.077(4) 0.063(4) 0.027(4) 0.031(3) -0.009(4)
C210 0.072(5) 0.078(5) 0.066(4) 0.028(4) 0.035(4) -0.009(4)
C211 0.080(8) 0.082(8) 0.076(8) 0.031(7) 0.042(7) 0.010(7)
C212 0.082(9) 0.078(9) 0.089(9) 0.035(8) 0.045(8) 0.023(8)
C213 0.078(9) 0.074(9) 0.092(9) 0.034(8) 0.039(8) 0.028(7)
C214 0.074(8) 0.072(8) 0.082(8) 0.037(7) 0.030(7) 0.016(7)
loop_
_atom_type_symbol
_atom_type_description
_atom_type_scat_dispersion_real
_atom_type_scat_dispersion_imag
_atom_type_scat_source
C C 0.0033 0.0016 'International Tables Vol C Tables 4.2.6.8 and 6.1.1.4'
H H 0.0000 0.0000 'International Tables Vol C Tables 4.2.6.8 and 6.1.1.4'
Li Li -0.0003 0.0001 'International Tables Vol C Tables 4.2.6.8 and 6.1.1.4'
N N 0.0061 0.0033 'International Tables Vol C Tables 4.2.6.8 and 6.1.1.4'
O O 0.0106 0.0060 'International Tables Vol C Tables 4.2.6.8 and 6.1.1.4'
Zn Zn 0.2839 1.4301 'International Tables Vol C Tables 4.2.6.8 and 6.1.1.4'
loop_
_geom_angle_atom_site_label_1
_geom_angle_atom_site_label_2
_geom_angle_atom_site_label_3
_geom_angle
_geom_angle_site_symmetry_1
_geom_angle_site_symmetry_3
_geom_angle_publ_flag
N1 Zn1 Li1 172.81(14) . . ?
O11 Zn1 Li1 82.27(13) . . ?
O11 Zn1 N1 101.83(11) . . ?
O11 Zn1 O15 125.6(7) . 4_646 ?
O11 Zn1 O21 125.24(13) . . ?
O13 Zn1 Li1 84.4(6) 4_646 . ?
O13 Zn1 N1 99.0(6) 4_646 . ?
O13 Zn1 O11 115.0(5) 4_646 . ?
O13 Zn1 O15 11.2(11) 4_646 4_646 ?
O13 Zn1 O21 112.1(5) 4_646 . ?
O15 Zn1 Li1 82.9(7) 4_646 . ?
O15 Zn1 N1 99.2(7) 4_646 . ?
O21 Zn1 Li1 76.10(13) . . ?
O21 Zn1 N1 96.72(11) . . ?
O21 Zn1 O15 101.0(7) . 4_646 ?
Li1 Li1 Zn1 119.6(3) 2_656 . ?
O12 Li1 Zn1 68.42(18) . . ?
O12 Li1 Li1 121.6(2) . 2_656 ?
O12 Li1 O14 113.2(8) . 4_646 ?
O12 Li1 O22 110.7(3) . . ?
O12 Li1 O22 114.2(3) . 2_656 ?
O14 Li1 Zn1 63.6(6) 4_646 . ?
O14 Li1 Li1 121.6(8) 4_646 2_656 ?
O14 Li1 O22 99.3(6) 4_646 . ?
O14 Li1 O22 123.7(7) 4_646 2_656 ?
O16 Li1 Zn1 68.7(8) 4_646 . ?
O16 Li1 O12 109.3(11) 4_646 . ?
O16 Li1 O22 109.5(8) 4_646 . ?
O22 Li1 Zn1 165.8(3) 2_656 . ?
O22 Li1 Zn1 75.56(19) . . ?
O22 Li1 Li1 44.29(19) . 2_656 ?
O22 Li1 Li1 46.54(18) 2_656 2_656 ?
O22 Li1 O22 90.8(3) 2_656 . ?
C11 N1 Zn1 123.9(2) . . ?
C11 N1 C15 118.4(3) . . ?
C15 N1 Zn1 117.7(2) . . ?
N1 C11 H11 118.9 . . ?
N1 C11 C12 122.2(3) . . ?
C12 C11 H11 118.9 . . ?
C11 C12 H12 120.3 . . ?
C11 C12 C13 119.3(3) . . ?
C13 C12 H12 120.3 . . ?
C12 C13 C13 121.6(2) . 2_757 ?
C14 C13 C12 118.0(3) . . ?
C14 C13 C13 120.4(2) . 2_757 ?
C13 C14 H14 120.3 . . ?
C15 C14 C13 119.4(3) . . ?
C15 C14 H14 120.3 . . ?
N1 C15 C14 122.7(3) . . ?
N1 C15 H15 118.7 . . ?
C14 C15 H15 118.7 . . ?
C101 O11 Zn1 121.0(2) . . ?
C101 O12 Li1 143.3(3) . . ?
C106 O13 Zn1 116.6(12) . 4_656 ?
C106 O14 Li1 150.0(17) . 4_656 ?
C106 O15 Zn1 116.1(14) . 4_656 ?
C106 O16 Li1 143.0(17) . 4_656 ?
O11 C101 C102 112.9(3) . . ?
O11 C101 C113 118.9(4) . . ?
O12 C101 O11 124.4(3) . . ?
O12 C101 C102 122.6(3) . . ?
O12 C101 C113 116.1(4) . . ?
C103 C102 C101 116.0(4) . . ?
C103 C102 C108 120.0(5) . . ?
C108 C102 C101 123.3(5) . . ?
C102 C103 H103 119.0 . . ?
C102 C103 C104 122.0(4) . . ?
C104 C103 H103 119.0 . . ?
C103 C104 H104 120.0 . . ?
C103 C104 C105 120.0(4) . . ?
C105 C104 H104 120.0 . . ?
C104 C105 C106 115.2(5) . . ?
C104 C105 C107 118.2(5) . . ?
C107 C105 C106 126.1(5) . . ?
O13 C106 C105 121.8(9) . . ?
O14 C106 O13 119.7(13) . . ?
O14 C106 C105 118.4(11) . . ?
O15 C106 O16 128.6(15) . . ?
O15 C106 C116 110.9(11) . . ?
O16 C106 C116 120.3(12) . . ?
C105 C107 C108 121.7(6) . . ?
C112 C107 C105 120.7(6) . . ?
C112 C107 C108 117.6(6) . . ?
C102 C108 C107 118.2(6) . . ?
C102 C108 C109 121.2(6) . . ?
C109 C108 C107 120.6(6) . . ?
C108 C109 H109 119.9 . . ?
C110 C109 C108 120.2(8) . . ?
C110 C109 H109 119.9 . . ?
C109 C110 H110 120.0 . . ?
C109 C110 C111 120.0(9) . . ?
C111 C110 H110 120.0 . . ?
C110 C111 H111 120.0 . . ?
C112 C111 C110 119.9(9) . . ?
C112 C111 H111 120.0 . . ?
C107 C112 H112 119.2 . . ?
C111 C112 C107 121.6(8) . . ?
C111 C112 H112 119.2 . . ?
C114 C113 C101 115.8(5) . . ?
C114 C113 C118 119.2(6) . . ?
C118 C113 C101 124.9(6) . . ?
C113 C114 H114 119.2 . . ?
C113 C114 C115 121.5(4) . . ?
C115 C114 H114 119.2 . . ?
C114 C115 H115 119.8 . . ?
C116 C115 C114 120.4(4) . . ?
C116 C115 H115 119.8 . . ?
C115 C116 C106 116.4(6) . . ?
C115 C116 C117 119.3(6) . . ?
C117 C116 C106 124.3(6) . . ?
C116 C117 C118 120.3(8) . . ?
C116 C117 C122 123.5(8) . . ?
C118 C117 C122 116.0(9) . . ?
C113 C118 C117 119.2(7) . . ?
C113 C118 C119 122.0(8) . . ?
C117 C118 C119 118.8(8) . . ?
C118 C119 H119 118.5 . . ?
C120 C119 C118 122.9(11) . . ?
C120 C119 H119 118.5 . . ?
C119 C120 H120 120.3 . . ?
C121 C120 C119 119.5(12) . . ?
C121 C120 H120 120.3 . . ?
C120 C121 H121 121.6 . . ?
C122 C121 C120 116.8(13) . . ?
C122 C121 H121 121.6 . . ?
C117 C122 H122 117.0 . . ?
C121 C122 C117 126.0(12) . . ?
C121 C122 H122 117.0 . . ?
C201 O21 Zn1 130.0(2) . . ?
Li1 O22 Li1 89.2(3) 2_656 . ?
C201 O22 Li1 124.9(3) . . ?
C201 O22 Li1 141.2(3) . 2_656 ?
O21 C201 C202 115.5(3) . . ?
O22 C201 O21 124.9(3) . . ?
O22 C201 C202 119.6(3) . . ?
C203 C202 C201 118.7(4) . . ?
C204 C202 C201 119.4(4) 5_657 . ?
C204 C202 C203 121.9(4) 5_657 . ?
C209 C202 C201 118.6(4) . . ?
C210 C202 C201 119.8(5) 5_657 . ?
C210 C202 C209 121.6(5) 5_657 . ?
C202 C203 C204 119.1(6) . . ?
C202 C203 C208 127.0(7) . . ?
C204 C203 C208 113.9(8) . . ?
C202 C204 C203 119.0(6) 5_657 . ?
C202 C204 C205 125.3(7) 5_657 . ?
C203 C204 C205 115.7(9) . . ?
C204 C205 H205 115.6 . . ?
C206 C205 C204 128.8(12) . . ?
C206 C205 H205 115.6 . . ?
C205 C206 H206 121.9 . . ?
C207 C206 C205 116.1(10) . . ?
C207 C206 H206 121.9 . . ?
C206 C207 H207 122.8 . . ?
C206 C207 C208 114.5(9) . . ?
C208 C207 H207 122.8 . . ?
C203 C208 H208 114.5 . . ?
C207 C208 C203 131.0(12) . . ?
C207 C208 H208 114.5 . . ?
C202 C209 C210 120.1(8) . . ?
C202 C209 C214 125.6(9) . . ?
C210 C209 C214 114.3(11) . . ?
C202 C210 C209 118.2(8) 5_657 . ?
C202 C210 C211 126.2(10) 5_657 . ?
C209 C210 C211 115.5(12) . . ?
C210 C211 H211 115.2 . . ?
C212 C211 C210 129.5(16) . . ?
C212 C211 H211 115.2 . . ?
C211 C212 H212 122.1 . . ?
C211 C212 C213 115.7(12) . . ?
C213 C212 H212 122.1 . . ?
C212 C213 H213 122.8 . . ?
C212 C213 C214 114.4(12) . . ?
C214 C213 H213 122.8 . . ?
C209 C214 H214 114.7 . . ?
C213 C214 C209 130.6(15) . . ?
C213 C214 H214 114.7 . . ?
loop_
_geom_bond_atom_site_label_1
_geom_bond_atom_site_label_2
_geom_bond_distance
_geom_bond_site_symmetry_2
_geom_bond_publ_flag
Zn1 Li1 3.160(6) . ?
Zn1 N1 2.043(3) . ?
Zn1 O11 1.915(3) . ?
Zn1 O13 1.88(2) 4_646 ?
Zn1 O15 2.01(2) 4_646 ?
Zn1 O21 1.940(3) . ?
Li1 Li1 2.760(12) 2_656 ?
Li1 O12 1.883(6) . ?
Li1 O14 1.90(2) 4_646 ?
Li1 O16 1.82(3) 4_646 ?
Li1 O22 1.927(6) 2_656 ?
Li1 O22 2.003(7) . ?
N1 C11 1.331(4) . ?
N1 C15 1.340(5) . ?
C11 H11 0.9500 . ?
C11 C12 1.379(4) . ?
C12 H12 0.9500 . ?
C12 C13 1.386(5) . ?
C13 C13 1.489(6) 2_757 ?
C13 C14 1.381(5) . ?
C14 H14 0.9500 . ?
C14 C15 1.364(5) . ?
C15 H15 0.9500 . ?
O11 C101 1.273(4) . ?
O12 C101 1.230(4) . ?
O13 C106 1.355(18) . ?
O14 C106 1.17(2) . ?
O15 C106 1.22(2) . ?
O16 C106 1.31(3) . ?
C101 C102 1.502(6) . ?
C101 C113 1.499(7) . ?
C102 C103 1.382(6) . ?
C102 C108 1.401(6) . ?
C103 H103 0.9500 . ?
C103 C104 1.389(5) . ?
C104 H104 0.9500 . ?
C104 C105 1.400(6) . ?
C105 C106 1.509(6) . ?
C105 C107 1.412(6) . ?
C106 C116 1.501(7) . ?
C107 C108 1.417(6) . ?
C107 C112 1.410(6) . ?
C108 C109 1.405(6) . ?
C109 H109 0.9500 . ?
C109 C110 1.391(7) . ?
C110 H110 0.9500 . ?
C110 C111 1.396(7) . ?
C111 H111 0.9500 . ?
C111 C112 1.390(7) . ?
C112 H112 0.9500 . ?
C113 C114 1.388(6) . ?
C113 C118 1.412(6) . ?
C114 H114 0.9500 . ?
C114 C115 1.389(5) . ?
C115 H115 0.9500 . ?
C115 C116 1.388(6) . ?
C116 C117 1.405(7) . ?
C117 C118 1.419(7) . ?
C117 C122 1.420(7) . ?
C118 C119 1.421(7) . ?
C119 H119 0.9500 . ?
C119 C120 1.405(7) . ?
C120 H120 0.9500 . ?
C120 C121 1.405(7) . ?
C121 H121 0.9500 . ?
C121 C122 1.400(7) . ?
C122 H122 0.9500 . ?
O21 C201 1.260(4) . ?
O22 C201 1.240(4) . ?
C201 C202 1.500(5) . ?
C202 C203 1.415(6) . ?
C202 C204 1.400(8) 5_657 ?
C202 C209 1.415(6) . ?
C202 C210 1.396(12) 5_657 ?
C203 C204 1.420(6) . ?
C203 C208 1.421(7) . ?
C204 C205 1.427(7) . ?
C205 H205 0.9500 . ?
C205 C206 1.411(7) . ?
C206 H206 0.9500 . ?
C206 C207 1.410(7) . ?
C207 H207 0.9500 . ?
C207 C208 1.411(7) . ?
C208 H208 0.9500 . ?
C209 C210 1.417(7) . ?
C209 C214 1.418(7) . ?
C210 C211 1.417(7) . ?
C211 H211 0.9500 . ?
C211 C212 1.409(7) . ?
C212 H212 0.9500 . ?
C212 C213 1.414(7) . ?
C213 H213 0.9500 . ?
C213 C214 1.417(7) . ?
C214 H214 0.9500 . ?
