#------------------------------------------------------------------------------
#$Date: 2021-04-04 12:56:42 +0300 (Sun, 04 Apr 2021) $
#$Revision: 263575 $
#$URL: file:///home/coder/svn-repositories/cod/cif/4/51/85/4518557.cif $
#------------------------------------------------------------------------------
#
# This file is available in the Crystallography Open Database (COD),
# http://www.crystallography.net/
#
# All data on this site have been placed in the public domain by the
# contributors.
#
data_4518557
loop_
_publ_author_name
'Sapianik, Aleksandr A.'
'Dudko, Evgeny R.'
'Kovalenko, Konstantin A.'
'Barsukova, Marina O.'
'Samsonenko, Denis G.'
'Dybtsev, Danil N.'
'Fedin, Vladimir P.'
_publ_section_title
;
 Metal-Organic Frameworks for Highly Selective Separation of Xylene
 Isomers and Single-Crystal X-ray Study of Aromatic Guest-Host Inclusion
 Compounds.
;
_journal_issue                   12
_journal_name_full               'ACS applied materials &amp; interfaces'
_journal_page_first              14768
_journal_page_last               14777
_journal_paper_doi               10.1021/acsami.1c02812
_journal_volume                  13
_journal_year                    2021
_chemical_formula_sum            'C52 H32 Li2 N2 O12 Zn2'
_chemical_formula_weight         1021.41
_space_group_crystal_system      monoclinic
_space_group_IT_number           15
_space_group_name_Hall           '-C 2yc'
_space_group_name_H-M_alt        'C 1 2/c 1'
_atom_sites_solution_hydrogens   geom
_atom_sites_solution_primary     dual
_atom_sites_solution_secondary   difmap
_audit_creation_method           SHELXL-2018/3
_cell_angle_alpha                90
_cell_angle_beta                 119.979(5)
_cell_angle_gamma                90
_cell_formula_units_Z            4
_cell_length_a                   19.2232(11)
_cell_length_b                   17.0530(11)
_cell_length_c                   18.2386(13)
_cell_measurement_reflns_used    16237
_cell_measurement_temperature    100(2)
_cell_measurement_theta_max      31.0
_cell_measurement_theta_min      2.6
_cell_volume                     5178.9(6)
_computing_cell_refinement       'XDS (Kabsch, 2010)'
_computing_data_collection       'Marccd (Doyle, 2011)'
_computing_data_reduction        'XDS (Kabsch, 2010)'
_computing_molecular_graphics    'ShelXle (H\"ubschle, 2011)'
_computing_publication_material  'CIFTAB (Sheldrick, 2015)'
_computing_structure_refinement  'SHELXL-2018 (Sheldrick, 2015)'
_computing_structure_solution    'SHELXT-2018 (Sheldrick, 2015)'
_diffrn_ambient_temperature      100(2)
_diffrn_detector_area_resol_mean 12.4
_diffrn_measured_fraction_theta_full 0.985
_diffrn_measured_fraction_theta_max 0.977
_diffrn_measurement_device_type  'Rayonix SX-165 CCD'
_diffrn_measurement_method       '\f scan'
_diffrn_radiation_monochromator  'Double Crystal Monochromator'
_diffrn_radiation_source         synchrotron
_diffrn_radiation_type           synchrotron
_diffrn_radiation_wavelength     0.79272
_diffrn_reflns_av_R_equivalents  0.0361
_diffrn_reflns_av_unetI/netI     0.0292
_diffrn_reflns_Laue_measured_fraction_full 0.985
_diffrn_reflns_Laue_measured_fraction_max 0.977
_diffrn_reflns_limit_h_max       24
_diffrn_reflns_limit_h_min       -21
_diffrn_reflns_limit_k_max       22
_diffrn_reflns_limit_k_min       -22
_diffrn_reflns_limit_l_max       22
_diffrn_reflns_limit_l_min       -23
_diffrn_reflns_number            20633
_diffrn_reflns_point_group_measured_fraction_full 0.985
_diffrn_reflns_point_group_measured_fraction_max 0.977
_diffrn_reflns_theta_full        28.500
_diffrn_reflns_theta_max         30.950
_diffrn_reflns_theta_min         2.664
_diffrn_source                   synchrotron
_exptl_absorpt_coefficient_mu    1.320
_exptl_absorpt_correction_T_max  1.000
_exptl_absorpt_correction_T_min  0.834
_exptl_absorpt_correction_type   multi-scan
_exptl_absorpt_process_details   'XDS (Kabsch, 2010)'
_exptl_crystal_colour            yellow
_exptl_crystal_density_diffrn    1.310
_exptl_crystal_description       needle
_exptl_crystal_F_000             2080
_exptl_crystal_size_max          0.10
_exptl_crystal_size_mid          0.05
_exptl_crystal_size_min          0.05
_refine_diff_density_max         0.659
_refine_diff_density_min         -0.755
_refine_diff_density_rms         0.079
_refine_ls_extinction_method     none
_refine_ls_goodness_of_fit_ref   1.067
_refine_ls_hydrogen_treatment    constr
_refine_ls_matrix_type           full
_refine_ls_number_parameters     469
_refine_ls_number_reflns         5797
_refine_ls_number_restraints     310
_refine_ls_restrained_S_all      1.049
_refine_ls_R_factor_all          0.0499
_refine_ls_R_factor_gt           0.0432
_refine_ls_shift/su_max          0.001
_refine_ls_shift/su_mean         0.000
_refine_ls_structure_factor_coef Fsqd
_refine_ls_weighting_details
'w=1/[\s^2^(Fo^2^)+(0.0809P)^2^+7.2583P] where P=(Fo^2^+2Fc^2^)/3'
_refine_ls_weighting_scheme      calc
_refine_ls_wR_factor_gt          0.1262
_refine_ls_wR_factor_ref         0.1304
_reflns_Friedel_coverage         0.000
_reflns_number_gt                5038
_reflns_number_total             5797
_reflns_threshold_expression     'I > 2\s(I)'
_cod_data_source_file            benzene.cif
_cod_data_source_block           ndc2ben
_cod_depositor_comments
'Adding full bibliography for 4518556--4518560.cif.'
_cod_original_sg_symbol_H-M      'C 2/c'
_cod_database_code               4518557
_shelx_shelxl_version_number     2018/3
_shelx_space_group_comment
;
The symmetry employed for this shelxl refinement is uniquely defined
by the following loop, which should always be used as a source of
symmetry information in preference to the above space-group names.
They are only intended as comments.
;
_shelx_estimated_absorpt_t_min   0.879
_shelx_estimated_absorpt_t_max   0.937
_shelx_res_file
;
TITL ndc2ben in C2/c; 100K; Xcalibur
    ndc2ben.res
    created by SHELXL-2018/3 at 14:13:53 on 15-Jun-2020
CELL 0.79272   19.2232   17.0530   18.2386   90.00  119.979  90.00
ZERR   4.000    0.0011    0.0011    0.0013    0.00    0.005   0.00
LATT 7
SYMM -X,+Y,0.5-Z
SFAC C   H   Li N O  Zn
DISP C  0.00462  0.00217 14.30827
DISP H -0.00002  0.00000  0.66622
DISP Li  0.00004  0.00008  2.37391
DISP N  0.00867  0.00437 25.32012
DISP O  0.01465  0.00795 42.69540
DISP Zn  0.20841  1.73713 7878.40585
UNIT 208 128 8  8 48 8
 
LIST 4 ! automatically inserted. Change 6 to 4 for CHECKCIF!!
TEMP -173
 
L.S. 6
BOND $H
FMAP 2
PLAN 5
 
OMIT 0
 
OMIT  0 2 2
OMIT -6 0 4
OMIT -2 0 2
 
OMIT -4   0   2
OMIT  1   1   1
OMIT  0   0   2
OMIT  1   1   0
OMIT -2   2   2
 
EQIV $1 1-x, 2-y, 1-z
 
SADI 0.01 C11A C12A  C12A C13A  C13A C14A  C14A C15A  C15A C16A =
          C16A C11A  C21A C22A  C22A C23A  C23A C24A  C24A C25A =
          C25A C26A  C26A C21A  C41A C42A  C42A C43A  C43A C41A_$1
 
SADI 0.01 C21A C24A  C22A C25A  C23A C26A  C42A C42A_$1
SADI 0.01 C21A C25A  C22A C24A
 
FLAT 0.02 C21A > C26A
FLAT 0.02 C41A C42A C43A C41A_$1 C42A_$1  C43A_$1
 
SIMU 0.01 0.01 C41A C42A C43A C21A > C26A
SIMU 0.01 0.01 C31A C32A C33A C11A > C16A
 
ISOR 0.01 0.01 C21A
 
ACTA 57
 
SIZE 0.10 0.05 0.05
 
WGHT    0.080900    7.258340
FVAR       0.25943
ZN1   6    0.770815    0.889490    0.570521    11.00000    0.02147    0.02379 =
         0.01984   -0.00011    0.00924   -0.00007
LI1   3    0.927821    0.910991    0.748739    11.00000    0.02509    0.02968 =
         0.02327   -0.00055    0.01135   -0.00050
N1    4    0.670998    0.878232    0.453578    11.00000    0.02356    0.02739 =
         0.02206   -0.00138    0.00788   -0.00333
C11   1    0.625253    0.813661    0.425227    11.00000    0.02709    0.02500 =
         0.02615    0.00037    0.01157   -0.00056
AFIX  43
H11   2    0.640036    0.768945    0.460994    11.00000   -1.20000
AFIX   0
C12   1    0.557395    0.809666    0.345934    11.00000    0.02510    0.02695 =
         0.02581   -0.00074    0.00932   -0.00220
AFIX  43
H12   2    0.525818    0.763288    0.328030    11.00000   -1.20000
AFIX   0
C13   1    0.536042    0.874556    0.292766    11.00000    0.02547    0.02873 =
         0.02351    0.00010    0.00676    0.00145
C14   1    0.583742    0.941072    0.322202    11.00000    0.03550    0.02879 =
         0.03128    0.00651    0.00468   -0.00311
AFIX  43
H14   2    0.570838    0.986397    0.287507    11.00000   -1.20000
AFIX   0
C15   1    0.650092    0.940693    0.402368    11.00000    0.03219    0.02936 =
         0.03105    0.00436    0.00493   -0.00513
AFIX  43
H15   2    0.682277    0.986596    0.422072    11.00000   -1.20000
AFIX   0
O11   5    0.764972    0.797508    0.627913    11.00000    0.03019    0.03120 =
         0.02603    0.00448    0.01272   -0.00141
O12   5    0.883082    0.812624    0.747421    11.00000    0.03074    0.03062 =
         0.03517    0.00303    0.01645   -0.00455
O13   5    0.756244    0.491576    0.903059    11.00000    0.04903    0.03426 =
         0.03066    0.00640    0.01490   -0.00966
O14   5    0.649569    0.485890    0.775279    11.00000    0.04348    0.04409 =
         0.03868    0.00704    0.01063   -0.01905
C101  1    0.816424    0.780506    0.704937    11.00000    0.02994    0.02430 =
         0.02862    0.00182    0.01656   -0.00149
C102  1    0.791393    0.715499    0.742027    11.00000    0.02957    0.02754 =
         0.02663    0.00408    0.01324   -0.00245
C103  1    0.749303    0.654462    0.690146    11.00000    0.03759    0.03195 =
         0.02407    0.00126    0.01323   -0.00577
AFIX  43
H103  2    0.736817    0.654833    0.632746    11.00000   -1.20000
AFIX   0
C104  1    0.724295    0.591210    0.720676    11.00000    0.03769    0.03084 =
         0.02847   -0.00178    0.01391   -0.01139
AFIX  43
H104  2    0.695671    0.549026    0.683817    11.00000   -1.20000
AFIX   0
C105  1    0.740662    0.589483    0.803180    11.00000    0.03353    0.02888 =
         0.02768    0.00223    0.01405   -0.00569
C106  1    0.712221    0.517837    0.828838    11.00000    0.03748    0.02780 =
         0.02984    0.00131    0.01704   -0.00549
C107  1    0.781567    0.653100    0.858615    11.00000    0.03666    0.03093 =
         0.02813    0.00045    0.01577   -0.00676
C108  1    0.808224    0.717306    0.828072    11.00000    0.03792    0.03031 =
         0.02716   -0.00038    0.01677   -0.00607
C109  1    0.846084    0.781902    0.882412    11.00000    0.06267    0.03799 =
         0.03788   -0.00662    0.03001   -0.01853
AFIX  43
H109  2    0.864294    0.824610    0.862983    11.00000   -1.20000
AFIX   0
C110  1    0.856848    0.783831    0.962195    11.00000    0.08174    0.04697 =
         0.04028   -0.01560    0.03465   -0.02912
AFIX  43
H110  2    0.881454    0.828227    0.997185    11.00000   -1.20000
AFIX   0
C111  1    0.831819    0.720591    0.993245    11.00000    0.07773    0.05143 =
         0.03393   -0.01055    0.03315   -0.02335
AFIX  43
H111  2    0.840768    0.721855    1.049387    11.00000   -1.20000
AFIX   0
C112  1    0.794619    0.657410    0.942335    11.00000    0.05703    0.04143 =
         0.03390   -0.00205    0.02701   -0.01462
AFIX  43
H112  2    0.777118    0.615469    0.963450    11.00000   -1.20000
AFIX   0
O21   5    0.851430    0.902663    0.535485    11.00000    0.02494    0.04296 =
         0.02188   -0.00117    0.01124   -0.00700
O22   5    0.960314    0.917772    0.662302    11.00000    0.02309    0.03664 =
         0.02055    0.00397    0.00982   -0.00159
C201  1    0.923461    0.924184    0.583693    11.00000    0.02077    0.03506 =
         0.02067    0.00136    0.00946   -0.00039
C202  1    0.964611    0.961936    0.541323    11.00000    0.02266    0.06147 =
         0.01942    0.00424    0.00804   -0.00969
C203  1    0.999713    1.036100    0.569621    11.00000    0.02814    0.07835 =
         0.02056    0.00633    0.00819   -0.01526
C204  1    1.035679    1.075042    0.527651    11.00000    0.03156    0.08378 =
         0.02383    0.00550    0.01196   -0.01724
PART 1
C205  1    1.062144    1.163183    0.553880    10.50000    0.03232    0.03095 =
         0.02929    0.00175    0.01698   -0.00198
AFIX  43
H205  2    1.080792    1.192110    0.522571    10.50000   -1.20000
AFIX   0
C206  1    1.059671    1.199762    0.618677    10.50000    0.04379    0.02770 =
         0.04173   -0.00430    0.02426   -0.00312
AFIX  43
H206  2    1.080658    1.251281    0.634791    10.50000   -1.20000
AFIX   0
C207  1    1.026058    1.161403    0.661918    10.50000    0.04922    0.03400 =
         0.03458   -0.00311    0.02671    0.00183
AFIX  43
H207  2    1.024954    1.186905    0.707635    10.50000   -1.20000
AFIX   0
C208  1    0.994645    1.086858    0.638280    10.50000    0.03376    0.03288 =
         0.02825    0.00370    0.01754    0.00270
AFIX  43
H208  2    0.968121    1.064860    0.665587    10.50000   -1.20000
AFIX   0
PART -1  10.25
C11A  1    0.603409    0.918501    0.661730    10.25000    0.02991    0.02639 =
         0.04517   -0.00686    0.02939   -0.00444
AFIX  43
H11A  2    0.615732    0.944129    0.623361    10.25000   -1.20000
AFIX   0
C12A  1    0.524685    0.905993    0.640132    10.25000    0.03554    0.03266 =
         0.04666   -0.01501    0.01634   -0.00187
AFIX  43
H12A  2    0.482354    0.921288    0.585979    10.25000   -1.20000
AFIX   0
C13A  1    0.507714    0.871272    0.697336    10.25000    0.03528    0.02343 =
         0.05614   -0.01964    0.02956   -0.00837
AFIX  43
H13A  2    0.453382    0.863224    0.682720    10.25000   -1.20000
AFIX   0
C14A  1    0.567969    0.848217    0.774884    10.25000    0.03549    0.02041 =
         0.04704   -0.00641    0.02864   -0.00695
AFIX  43
H14A  2    0.555873    0.824230    0.814210    10.25000   -1.20000
AFIX   0
C15A  1    0.646477    0.860090    0.795520    10.25000    0.03364    0.01961 =
         0.04803   -0.00393    0.02153   -0.00344
AFIX  43
H15A  2    0.688949    0.844745    0.849570    10.25000   -1.20000
AFIX   0
C16A  1    0.663376    0.893922    0.738342    10.25000    0.02429    0.01618 =
         0.05027   -0.00913    0.02514   -0.00359
AFIX  43
H16A  2    0.717718    0.900360    0.752283    10.25000   -1.20000
AFIX   0
PART -2  10.125
C21A  1    0.377072    1.068450    0.345579    10.12500    0.01894    0.05338 =
         0.03993   -0.00525    0.02323   -0.00647
AFIX  43
H21A  2    0.326499    1.073030    0.295218    10.12500   -1.20000
AFIX   0
C22A  1    0.416643    0.998547    0.366356    10.12500    0.02376    0.06377 =
         0.03756   -0.01139    0.02314   -0.00729
AFIX  43
H22A  2    0.393283    0.954260    0.330738    10.12500   -1.20000
AFIX   0
C23A  1    0.489667    0.991886    0.438093    10.12500    0.02633    0.06489 =
         0.04352   -0.00933    0.02010   -0.01122
AFIX  43
H23A  2    0.517056    0.943016    0.452640    10.12500   -1.20000
AFIX   0
C24A  1    0.523180    1.055629    0.488818    10.12500    0.03044    0.06507 =
         0.04652   -0.01053    0.02151   -0.00845
AFIX  43
H24A  2    0.574212    1.051314    0.538632    10.12500   -1.20000
AFIX   0
C25A  1    0.483561    1.125578    0.468160    10.12500    0.02723    0.06321 =
         0.04650   -0.01702    0.02191   -0.00783
AFIX  43
H25A  2    0.507178    1.170076    0.503339    10.12500   -1.20000
AFIX   0
C26A  1    0.410022    1.131698    0.396997    10.12500    0.02047    0.05809 =
         0.04793   -0.00639    0.02464   -0.00451
AFIX  43
H26A  2    0.381825    1.180111    0.383347    10.12500   -1.20000
AFIX   0
PART 3  10.125
C31A  1    0.536119    0.671808    0.749111    10.12500    0.03574    0.01027 =
         0.02167   -0.00780    0.00436    0.00490
AFIX  43
H31A  2    0.561575    0.623720    0.750217    10.12500   -1.20000
AFIX   0
C32A  1    0.570606    0.743933    0.745666    10.12500    0.04230    0.01935 =
         0.02999   -0.00872    0.01593    0.00091
AFIX  43
H32A  2    0.617356    0.744484    0.740435    10.12500   -1.20000
AFIX   0
C33A  1    0.535569    0.814808    0.749999    10.12500    0.04401    0.01942 =
         0.04257   -0.00482    0.02733   -0.00484
AFIX  43
H33A  2    0.561490    0.863097    0.752950    10.12500   -1.20000
AFIX   0
PART 4  10.125
C41A  1    0.509296    1.078738    0.512047    10.12500    0.02811    0.06484 =
         0.04662   -0.01718    0.02437   -0.00745
AFIX  43
H41A  2    0.515747    1.133834    0.520410    10.12500   -1.20000
AFIX   0
C42A  1    0.459503    1.049640    0.433271    10.12500    0.02957    0.06672 =
         0.04995   -0.00777    0.01969   -0.01015
AFIX  43
H42A  2    0.431348    1.084368    0.386852    10.12500   -1.20000
AFIX   0
C43A  1    0.450068    0.970589    0.421037    10.12500    0.03595    0.06908 =
         0.04975   -0.00943    0.02074   -0.01062
AFIX  43
H43A  2    0.415349    0.950047    0.366154    10.12500   -1.20000
PART 0
AFIX   0
HKLF 4
 
 
 
 
REM  ndc2ben in C2/c; 100K; Xcalibur
REM wR2 = 0.1304, GooF = S = 1.067, Restrained GooF = 1.049 for all data
REM R1 = 0.0432 for 5038 Fo > 4sig(Fo) and 0.0499 for all 5797 data
REM 469 parameters refined using 310 restraints
 
END
 
WGHT      0.0809      7.2583
 
REM Highest difference peak  0.659,  deepest hole -0.755,  1-sigma level  0.079
Q1    1   0.6326  0.9085  0.6952  11.00000  0.05    0.66
Q2    1   1.0557  1.3071  0.6085  11.00000  0.05    0.45
Q3    1   0.6513  0.8796  0.7595  11.00000  0.05    0.44
Q4    1   1.0657  1.1126  0.5476  11.00000  0.05    0.42
Q5    1   1.0054  1.0563  0.6139  11.00000  0.05    0.41
;
_shelx_res_checksum              32993
_shelx_hkl_file
;
   0   0  -1    0.10    0.48
   0   0   1    1.24    0.48
   0   0  -2    3.54    1.15
   0   0   2    4.40    1.05
   0   0  -3   -0.48    1.63
   0   0   3    1.15    1.53
   0   0  -4    7.46    1.82
   0   0   4    6.50    1.72
   0   0  -5    2.96    1.72
   0   0   5   -1.53    1.63
   0   0  -6 1978.77   58.69
   0   0   6 1575.37   46.84
   0   0  -7   -0.96    1.82
   0   0   7    1.91    1.63
   0   0  -8 2194.81   65.10
   0   0   8 2302.83   68.25
   0   0  -9    1.15    1.72
   0   0   9   -1.24    1.63
   0   0 -10 1077.33   32.41
   0   0  10 1098.36   33.08
   0   0 -11    0.57    1.63
   0   0  11   -0.67    1.43
   0   0 -12  248.06    8.22
   0   0  12  249.02    8.32
   0   0 -13    3.25    1.72
   0   0 -13    1.34    1.53
   0   0 -14  216.90    7.17
   0   0 -14  211.83    7.07
   0   0 -15    0.38    1.43
   0   0 -15   -1.63    1.43
   1  -1 -15  170.35    5.64
   1  -1 -15  170.63    5.74
   1  -1 -14   24.09    2.01
   1  -1 -14   27.72    2.10
   1  -1 -13  328.93   10.61
   1  -1 -13  310.96    9.94
   1  -1 -12  538.28   16.63
   1  -1 -12  537.14   16.54
   1  -1 -11  206.67    6.98
   1  -1 -11  194.15    6.60
   1  -1 -10   47.80    2.68
   1  -1 -10   52.10    2.68
   1  -1  -9   78.67    3.44
   1  -1  -9   76.19    3.44
  -1   1   8   71.89    3.25
   1  -1  -8   57.83    2.87
  -1   1   7 1418.60   42.25
   1  -1  -7 1431.98   42.73
  -1   1   6  574.70   17.49
   1  -1  -6  621.74   18.93
   1  -1  -5   93.59    3.82
   1  -1  -4  475.77   14.63
   1  -1  -4  480.45   14.72
   1  -1  -3    1.24    1.72
   1  -1  -3    0.86    1.72
  -1   1   0  528.53   15.96
   1  -1   0  568.39   17.11
  -1   1  -1  300.64    9.46
   1  -1   1  289.45    9.18
  -1   1  -3  590.67   18.07
   1  -1   3  628.62   19.21
  -1   1  -4 2231.13   66.05
   1  -1   4 2200.54   65.19
  -1   1  -5  882.80   26.67
   1  -1   5  989.38   29.73
  -1   1  -6    7.17    1.91
   1  -1   6    9.94    2.20
  -1   1  -7 2692.85   79.72
   1  -1   7 3027.42   89.67
  -1   1  -8  118.82    4.59
   1  -1   8  123.41    4.78
  -1   1  -9   99.13    4.11
   1  -1   9   86.61    3.92
  -1   1 -10 1563.90   46.74
   1  -1  10 1308.66   39.19
  -1   1 -11    5.26    1.91
   1  -1  11    9.27    2.01
  -1   1 -12  229.04    7.74
   1  -1  12  217.28    7.55
  -1   1 -13  112.61    4.59
   1  -1  13   92.44    3.82
  -1   1 -14   -1.15    1.82
   1  -1  14    0.00    1.72
  -1   1 -15  108.31    4.11
  -1   1 -15  122.26    4.49
   2  -2 -15   72.36    3.15
   2  -2 -15   64.05    2.96
   2  -2 -14   24.38    2.20
   2  -2 -14   20.17    2.10
   2  -2 -13  564.38   17.40
   2  -2 -13  557.31   17.30
   2  -2 -11  300.64    9.75
   2  -2 -11  295.96    9.65
   2  -2 -10  227.03    7.65
   2  -2 -10  222.44    7.46
   2  -2  -9  181.24    6.31
   2  -2  -9  198.64    6.88
   2  -2  -8    0.19    1.72
   2  -2  -8    1.15    1.91
   2  -2  -7    1.91    1.91
   2  -2  -7   -0.19    1.91
   2  -2  -6  132.30    5.07
   2  -2  -6  120.26    4.78
   2  -2  -5  555.11   17.21
   2  -2  -5  547.94   17.02
  -2   2   4    1.24    2.29
   2  -2  -4    3.63    2.68
  -2   2   3 1623.16   48.37
   2  -2  -3 1642.28   48.94
  -2   2   2  171.30    6.40
   2  -2  -2  175.41    6.50
  -2   2   1  635.88   19.60
   2  -2  -1  687.60   21.13
  -2   2   0 1222.63   36.71
   2  -2   0 1242.71   37.38
  -2   2  -1  140.43    5.64
   2  -2   1  151.90    6.02
  -2   2  -2 2211.06   65.67
   2  -2   2 2153.70   63.95
  -2   2  -4  105.06    4.59
   2  -2   4   99.70    4.49
  -2   2  -5 1267.56   38.14
   2  -2   5 1278.07   38.62
  -2   2  -6  689.03   21.22
   2  -2   6  669.24   20.74
  -2   2  -7  304.85   10.13
   2  -2   7  288.50    9.56
  -2   2  -8   96.26    4.21
   2  -2   8   90.53    4.30
  -2   2  -9  583.12   18.16
   2  -2   9  588.18   18.35
  -2   2 -10   66.44    3.54
   2  -2  10   79.06    3.82
  -2   2 -11  606.63   18.83
   2  -2  11  626.71   19.50
  -2   2 -12    8.79    2.29
   2  -2  12    6.02    2.10
  -2   2 -13   71.79    3.63
   2  -2  13   71.89    3.92
  -2   2 -14   -1.05    2.10
   2  -2  14    0.10    2.20
  -2   2 -15  166.04    6.02
   2  -2  15  193.96    6.60
  -2   2 -16    1.34    1.82
  -2   2 -16    1.15    1.63
   3  -3 -16  150.65    5.35
   3  -3 -16  139.37    4.97
   3  -3 -15  645.06   19.79
   3  -3 -15  627.85   19.31
   3  -3 -13  311.15   10.13
   3  -3 -13  299.97    9.85
   3  -3 -12  680.14   21.03
   3  -3 -12  661.69   20.36
   3  -3 -11   28.01    2.68
   3  -3 -11   30.21    2.58
   3  -3 -10  111.17    4.68
   3  -3 -10  121.21    4.88
   3  -3  -9  260.01    8.79
   3  -3  -9  248.35    8.41
   3  -3  -8   74.85    3.73
   3  -3  -8   65.96    3.63
   3  -3  -7  911.29   27.82
   3  -3  -7  935.09   28.49
  -3   3   6  538.57   17.02
   3  -3  -6  555.20   17.49
  -3   3   5   16.16    2.77
   3  -3  -5   13.19    2.77
  -3   3   4 1676.70   50.19
   3  -3  -4 1700.59   51.05
  -3   3   2 1128.95   34.32
   3  -3  -2 1111.74   33.94
  -3   3   1 1026.67   31.55
   3  -3  -1  989.38   30.40
  -3   3   0    0.19    3.06
   3  -3   0    1.15    3.25
  -3   3  -1  574.13   18.35
   3  -3   1  551.95   17.78
  -3   3  -2 2597.25   77.24
   3  -3   2 2630.71   78.39
  -3   3  -3  629.57   19.79
   3  -3   3  604.62   19.12
  -3   3  -4  319.09   10.80
   3  -3   4  325.97   10.99
  -3   3  -5 2860.13   84.98
   3  -3   5 2771.23   82.40
  -3   3  -6   15.58    2.58
   3  -3   6   12.33    2.58
  -3   3  -7 1389.92   41.87
   3  -3   7 1428.16   43.21
  -3   3  -8    7.27    2.29
   3  -3   8   11.28    2.87
  -3   3  -9   51.24    3.35
   3  -3   9   44.74    3.15
  -3   3 -10    1.53    2.49
   3  -3  10    3.54    2.29
  -3   3 -11   99.99    4.68
   3  -3  11   97.31    4.59
  -3   3 -12  726.70   22.56
   3  -3  12  744.86   23.13
  -3   3 -13  770.96   23.80
   3  -3  13  880.41   26.96
  -3   3 -14   26.86    2.77
   3  -3  14   30.02    3.15
  -3   3 -15  163.65    6.21
   3  -3  15  152.37    5.83
  -3   3 -16   95.02    4.40
   3  -3  16  102.76    4.30
   4  -4 -17   73.61    3.35
   4  -4 -17   76.47    3.44
   4  -4 -16  212.02    7.36
   4  -4 -16  188.41    6.69
   4  -4 -15  127.14    5.07
   4  -4 -15  138.13    5.35
   4  -4 -14  706.14   21.80
   4  -4 -14  711.31   21.99
   4  -4 -13  114.71    4.88
   4  -4 -13  116.15    4.97
   4  -4 -12   36.80    3.06
   4  -4 -12   30.02    2.68
   4  -4 -11  107.26    4.68
   4  -4 -11  105.25    4.68
   4  -4 -10  422.14   13.57
   4  -4 -10  424.43   13.77
   4  -4  -9   75.52    4.01
   4  -4  -9   86.13    4.21
  -4   4   8  120.73    5.26
   4  -4  -8  129.24    5.54
  -4   4   7  143.01    6.12
   4  -4  -7  149.41    6.21
  -4   4   6    1.63    2.68
   4  -4  -6    6.02    2.58
  -4   4   5  145.87    6.21
   4  -4  -5  136.51    6.02
  -4   4   4 3287.43   97.60
   4  -4  -4 3414.57  101.23
  -4   4   3  138.51    6.31
   4  -4  -3  144.15    6.60
  -4   4   2   25.81    3.73
   4  -4  -2   21.13    3.82
  -4   4   1 1519.92   45.98
   4  -4  -1 1543.82   46.84
  -4   4   0 2710.05   80.78
   4  -4   0 2782.70   82.88
  -4   4  -1   13.67    3.25
   4  -4   1    9.94    3.15
  -4   4  -2  175.22    7.17
   4  -4   2  168.24    6.98
  -4   4  -3  114.04    5.64
   4  -4   3   97.31    4.97
  -4   4  -4 1653.75   49.90
   4  -4   4 1705.37   51.62
  -4   4  -5    6.12    2.87
   4  -4   5    4.78    2.58
  -4   4  -6  562.47   18.07
   4  -4   6  585.60   18.64
  -4   4  -7  278.27    9.75
   4  -4   7  261.16    9.56
  -4   4  -8 1143.29   34.99
   4  -4   8 1049.61   32.02
  -4   4  -9   -1.63    2.49
   4  -4   9    4.40    2.77
  -4   4 -10  129.24    5.74
   4  -4  10  148.65    6.31
  -4   4 -11  315.07   10.90
   4  -4  11  311.44   10.52
  -4   4 -12   56.59    3.82
   4  -4  12   51.81    3.63
  -4   4 -13   21.51    3.06
   4  -4  13   12.71    2.77
  -4   4 -14  681.10   21.32
   4  -4  14  716.75   22.46
  -4   4 -15    7.17    3.06
   4  -4  15    1.72    2.87
  -4   4 -16   66.05    4.30
   4  -4  16   54.87    3.92
  -4   4 -17   19.79    2.87
   4  -4  17   24.95    2.39
   5  -5 -18  175.03    6.31
   5  -5 -18  161.84    5.83
   5  -5 -17   16.35    2.68
   5  -5 -17   15.96    2.58
   5  -5 -16   18.83    2.87
   5  -5 -16   17.68    2.49
   5  -5 -15  205.43    7.55
   5  -5 -15  212.12    7.74
   5  -5 -14   17.88    2.77
   5  -5 -14   13.38    2.68
   5  -5 -13   34.32    3.25
   5  -5 -13   33.84    3.06
   5  -5 -12 2267.46   67.68
   5  -5 -12 2395.55   71.50
   5  -5 -11    3.15    2.49
   5  -5 -11   -0.67    2.49
   5  -5 -10  790.74   24.57
   5  -5 -10  788.83   24.57
  -5   5   9  114.23    5.35
   5  -5  -9  121.79    5.45
  -5   5   8   22.66    3.06
   5  -5  -8   23.04    3.15
  -5   5   7  201.13    7.84
   5  -5  -7  214.41    8.22
  -5   5   6 1533.31   46.36
   5  -5  -6 1642.28   49.71
  -5   5   5  220.82    8.60
   5  -5  -5  220.63    8.60
  -5   5   4  296.43   10.71
   5  -5  -4  290.98   10.61
  -5   5   3  351.78   12.43
   5  -5  -3  357.33   12.52
  -5   5   2  346.81   12.14
   5  -5  -2  364.59   12.81
  -5   5   1    6.69    3.15
   5  -5  -1    7.93    3.35
  -5   5   0  891.50   27.91
   5  -5   0  887.01   27.72
  -5   5  -1  126.56    6.02
   5  -5   1  120.92    6.12
  -5   5  -2  359.81   12.43
   5  -5   2  377.02   12.91
  -5   5  -3 1614.56   48.94
   5  -5   3 1558.16   47.32
  -5   5  -4   60.03    4.21
   5  -5   4   55.35    4.01
  -5   5  -5   46.46    3.82
   5  -5   5   49.33    3.73
  -5   5  -6    3.92    2.87
   5  -5   6    3.54    3.06
  -5   5  -7  509.32   16.63
   5  -5   7  507.50   16.73
  -5   5  -8  286.97   10.32
   5  -5   8  281.23    9.94
  -5   5  -9   99.03    5.26
   5  -5   9   97.31    5.45
  -5   5 -10 1277.12   39.00
   5  -5  10 1209.25   36.90
  -5   5 -11  145.87    6.31
   5  -5  11  152.09    6.60
  -5   5 -12   53.72    3.92
   5  -5  12   61.56    4.21
  -5   5 -13   89.57    4.88
   5  -5  13   98.27    4.97
  -5   5 -14   83.17    4.78
   5  -5  14   82.78    4.68
  -5   5 -15   45.22    4.30
   5  -5  15   35.08    3.73
  -5   5 -16  172.93    7.46
   5  -5  16  159.26    6.98
  -5   5 -17   11.09    3.82
   5  -5  17    6.31    3.54
   6  -6 -18   84.50    4.49
   6  -6 -18   72.75    3.92
   6  -6 -17   54.77    3.54
   6  -6 -17   44.36    3.25
   6  -6 -16  237.55    8.60
   6  -6 -16  237.07    8.60
   6  -6 -15   75.04    4.30
   6  -6 -15   67.30    4.30
   6  -6 -14  210.11    8.03
   6  -6 -14  208.39    7.93
   6  -6 -13 2099.22   62.90
   6  -6 -13 1957.74   58.79
   6  -6 -12   54.30    3.82
   6  -6 -12   63.00    4.11
   6  -6 -11  440.49   14.53
   6  -6 -11  449.29   15.01
  -6   6  10  710.83   22.37
   6  -6 -10  703.56   22.37
  -6   6   9   25.81    3.35
   6  -6  -9   26.77    3.44
  -6   6   8 1182.48   36.33
   6  -6  -8 1180.57   36.23
  -6   6   7  725.93   23.13
   6  -6  -7  696.87   22.18
  -6   6   6  387.92   13.57
   6  -6  -6  348.72   12.24
  -6   6   5 1837.29   55.44
   6  -6  -5 1827.73   55.25
  -6   6   4  538.47   17.78
   6  -6  -4  552.14   18.16
  -6   6   3  225.12    8.99
   6  -6  -3  210.50    8.32
  -6   6   2  320.04   11.66
   6  -6  -2  330.18   11.95
  -6   6   1   76.00    5.07
   6  -6  -1   68.25    4.49
  -6   6   0   12.52    3.54
   6  -6   0    9.94    3.54
  -6   6  -1   83.83    5.16
   6  -6   1   83.26    4.97
  -6   6  -2 1149.98   35.56
   6  -6   2 1162.41   36.04
  -6   6  -3  259.06    9.75
   6  -6   3  270.62   10.42
  -6   6  -4   10.13    3.15
   6  -6   4    4.97    2.87
  -6   6  -5   32.98    3.92
   6  -6   5   32.60    3.73
  -6   6  -6  432.56   14.53
   6  -6   6  414.11   14.15
  -6   6  -7   52.38    4.21
   6  -6   7   44.07    3.92
  -6   6  -8   57.55    4.30
   6  -6   8   59.36    4.78
  -6   6  -9  403.40   13.86
   6  -6   9  409.23   13.67
  -6   6 -10  156.87    6.79
   6  -6  10  133.16    6.50
  -6   6 -11   95.02    5.16
   6  -6  11   96.55    5.07
  -6   6 -12  472.99   15.68
   6  -6  12  436.95   14.53
  -6   6 -13  109.55    5.74
   6  -6  13  102.00    5.54
  -6   6 -14  113.76    5.83
   6  -6  14  124.65    6.02
  -6   6 -15   54.77    5.07
   6  -6  15   55.16    4.78
  -6   6 -16   -3.35    4.40
   6  -6  16    2.10    4.21
   7  -7 -20   63.00    4.11
   7  -7 -20   61.66    4.21
   7  -7 -19   40.63    3.82
   7  -7 -19   48.27    3.73
   7  -7 -18   28.49    3.25
   7  -7 -18   34.41    3.73
   7  -7 -17  427.20   14.15
   7  -7 -17  466.68   15.10
   7  -7 -16   17.68    3.44
   7  -7 -16   19.12    3.25
   7  -7 -15  187.74    7.65
   7  -7 -15  203.71    7.93
   7  -7 -14  402.45   13.57
   7  -7 -14  439.73   14.72
   7  -7 -13  295.38   10.52
   7  -7 -13  281.81   10.32
   7  -7 -12   18.45    3.25
   7  -7 -12   16.06    3.06
  -7   7  11  699.07   22.37
   7  -7 -11  685.97   21.89
  -7   7  10   -2.49    3.15
   7  -7 -10    0.48    2.87
  -7   7   9 1297.19   39.67
   7  -7  -9 1312.49   40.24
  -7   7   8  162.13    7.17
   7  -7  -8  154.29    6.88
  -7   7   7  756.14   24.18
   7  -7  -7  765.79   24.28
  -7   7   6    7.93    3.35
   7  -7  -6    7.55    3.25
  -7   7   5   56.59    4.59
   7  -7  -5   65.29    4.78
  -7   7   4   45.12    4.40
   7  -7  -4   58.60    4.59
  -7   7   3 1003.72   31.45
   7  -7  -3 1091.67   34.13
  -7   7   2   64.81    4.78
   7  -7  -2   69.30    4.78
  -7   7   1  654.81   21.32
   7  -7  -1  677.56   21.99
  -7   7   0   24.09    3.82
   7  -7   0   24.66    3.73
  -7   7  -1   22.18    3.54
   7  -7   1   17.21    3.44
  -7   7  -2  151.13    6.98
   7  -7   2  153.71    7.17
  -7   7  -3   43.49    4.30
   7  -7   3   38.33    3.92
  -7   7  -4   15.29    3.54
   7  -7   4   12.81    3.44
  -7   7  -5 1139.47   35.18
   7  -7   5 1106.96   34.60
  -7   7  -6  197.30    8.22
   7  -7   6  188.03    7.84
  -7   7  -7   10.80    3.25
   7  -7   7    6.98    3.35
  -7   7  -8   70.36    4.68
   7  -7   8   59.75    4.88
  -7   7  -9   61.85    4.49
   7  -7   9   55.44    4.30
  -7   7 -10  207.25    8.32
   7  -7  10  217.09    8.41
  -7   7 -11  311.06   11.09
   7  -7  11  324.25   11.38
  -7   7 -12    4.11    3.63
   7  -7  12    0.48    3.25
  -7   7 -13  153.14    7.07
   7  -7  13  160.40    7.27
  -7   7 -14    2.10    3.92
   7  -7  14   11.09    4.49
  -7   7 -15    2.96    4.59
   7  -7  15   -2.77    4.30
   8  -8 -21   42.63    4.49
   8  -8 -21   39.67    4.49
   8  -8 -20   11.76    3.73
   8  -8 -20    8.41    3.35
   8  -8 -19  195.97    7.93
   8  -8 -19  188.80    7.55
   8  -8 -17   -0.76    3.06
   8  -8 -17    1.91    2.87
   8  -8 -16   19.31    3.35
   8  -8 -16   19.31    3.54
   8  -8 -15   78.39    4.88
   8  -8 -15   93.20    5.26
   8  -8 -14  111.17    5.83
   8  -8 -14  109.45    5.54
   8  -8 -13  110.31    5.93
   8  -8 -13  125.13    6.12
  -8   8  12   24.76    3.82
   8  -8 -12   28.30    3.82
  -8   8  11   75.71    4.88
   8  -8 -11   73.32    4.88
  -8   8  10  604.72   19.79
   8  -8 -10  606.54   19.79
  -8   8   9   16.73    3.82
   8  -8  -9   17.97    3.63
  -8   8   8  386.86   13.38
   8  -8  -8  396.42   13.77
  -8   8   7 1000.86   31.26
   8  -8  -7 1019.97   31.93
  -8   8   6   19.50    3.82
   8  -8  -6   15.10    3.73
  -8   8   5  588.76   19.60
   8  -8  -5  643.91   21.22
  -8   8   4  100.28    5.83
   8  -8  -4   97.70    5.74
  -8   8   3  483.89   16.44
   8  -8  -3  501.67   17.11
  -8   8   2  346.81   12.52
   8  -8  -2  330.85   12.04
  -8   8   1  230.00    9.27
   8  -8  -1  234.87    9.65
  -8   8   0  107.64    5.93
   8  -8   0  106.20    5.83
  -8   8  -1  329.99   12.04
   8  -8   1  349.39   12.81
  -8   8  -2   -5.07    3.15
   8  -8   2    1.91    3.35
  -8   8  -3  151.71    6.98
   8  -8   3  155.43    6.79
  -8   8  -4  680.05   21.99
   8  -8   4  755.28   24.38
  -8   8  -5   47.89    4.40
   8  -8   5   64.14    5.07
  -8   8  -6   17.68    3.44
   8  -8   6   10.52    3.44
  -8   8  -7  220.53    8.79
   8  -8   7  245.29    9.85
  -8   8  -8   39.58    4.11
   8  -8   8   41.97    3.82
  -8   8  -9   35.18    4.01
   8  -8   9   30.88    4.30
  -8   8 -10  358.09   12.52
   8  -8  10  343.75   12.14
  -8   8 -11   29.92    4.30
   8  -8  11   24.09    4.40
  -8   8 -12  183.06    8.03
   8  -8  12  187.46    8.22
  -8   8 -13   25.71    4.59
   8  -8  13   29.54    4.59
  -8   8 -14   -4.97    4.49
   8  -8  14   -0.38    4.97
   9  -9 -21   37.85    4.88
   9  -9 -21   36.33    4.78
   9  -9 -20   83.83    5.45
   9  -9 -20   88.14    5.54
   9  -9 -19    4.59    3.92
   9  -9 -19    3.54    3.63
   9  -9 -18    8.41    3.25
   9  -9 -18   16.16    3.92
   9  -9 -17   42.06    4.30
   9  -9 -17   35.27    3.73
   9  -9 -15  115.86    5.83
   9  -9 -15  111.84    5.64
   9  -9 -14  583.69   19.21
   9  -9 -14  539.14   17.78
  -9   9  13   13.00    3.73
   9  -9 -13   11.28    3.73
  -9   9  12  419.46   14.34
   9  -9 -12  452.34   15.49
  -9   9  11   26.48    4.01
   9  -9 -11   18.26    3.73
  -9   9  10   28.39    3.92
   9  -9 -10   26.00    4.01
  -9   9   9   36.42    4.21
   9  -9  -9   46.94    4.40
  -9   9   8  364.21   13.19
   9  -9  -8  343.27   12.43
  -9   9   7    3.35    3.73
   9  -9  -7    8.70    3.63
  -9   9   6  333.71   12.33
   9  -9  -6  354.27   12.81
  -9   9   5   84.03    5.54
   9  -9  -5   85.84    5.26
  -9   9   4  992.25   31.35
   9  -9  -4  952.96   30.21
  -9   9   3   55.44    4.78
   9  -9  -3   61.56    5.07
  -9   9   2  146.45    7.07
   9  -9  -2  161.46    7.65
  -9   9   1    0.19    3.63
   9  -9  -1    1.34    3.44
  -9   9   0  978.87   30.88
   9  -9   0  968.35   30.49
  -9   9  -1    3.73    3.44
   9  -9   1   -0.29    3.54
  -9   9  -2 1258.96   38.91
   9  -9   2 1245.57   38.52
  -9   9  -3    1.34    3.35
   9  -9   3    4.30    3.44
  -9   9  -4  213.94    8.79
   9  -9   4  208.68    9.18
  -9   9  -5  191.28    8.03
   9  -9   5  205.43    8.51
  -9   9  -6  122.36    6.21
   9  -9   6  126.18    6.50
  -9   9  -7  139.76    6.69
   9  -9   7  133.45    6.21
  -9   9  -8  792.18   25.24
   9  -9   8  837.68   26.48
  -9   9  -9    3.15    3.44
   9  -9   9    5.26    3.82
  -9   9 -10  123.22    6.31
   9  -9  10  132.97    6.69
  -9   9 -11    3.44    4.01
   9  -9  11    1.72    4.01
  -9   9 -12    1.72    4.30
   9  -9  12   12.62    4.40
  10 -10 -21    1.24    4.88
  10 -10 -21    3.82    5.16
  10 -10 -20    3.54    4.11
  10 -10 -20    7.17    4.11
  10 -10 -19   96.36    5.93
  10 -10 -19  101.71    5.74
  10 -10 -18  386.39   13.48
  10 -10 -18  411.53   14.05
  10 -10 -17    2.49    3.73
  10 -10 -17    3.44    3.44
  10 -10 -16   95.88    5.45
  10 -10 -16   90.81    5.26
  10 -10 -15  356.37   12.71
  10 -10 -15  361.34   12.52
 -10  10  14   19.98    3.54
  10 -10 -14   19.60    3.73
 -10  10  13   23.13    3.82
  10 -10 -13   30.30    4.01
 -10  10  12  449.96   15.39
  10 -10 -12  440.68   15.20
 -10  10  11   13.10    4.21
  10 -10 -11   20.74    3.92
 -10  10  10  605.20   20.17
  10 -10 -10  574.89   19.12
 -10  10   9  206.48    8.70
  10 -10  -9  202.85    8.51
 -10  10   8   73.70    5.35
  10 -10  -8   73.89    5.07
 -10  10   7  282.48   11.09
  10 -10  -7  290.79   10.90
 -10  10   6   12.43    3.82
  10 -10  -6    5.54    3.63
 -10  10   5 1232.19   38.33
  10 -10  -5 1270.43   39.19
 -10  10   4   73.03    5.26
  10 -10  -4   76.57    5.64
 -10  10   3   83.17    5.45
  10 -10  -3   80.58    5.35
 -10  10   2 1322.05   40.91
  10 -10  -2 1421.46   43.97
 -10  10   1   10.99    3.82
  10 -10  -1    7.84    3.63
 -10  10   0  284.29   10.90
  10 -10   0  317.65   11.85
 -10  10  -1  603.95   19.98
  10 -10   1  604.82   20.36
 -10  10  -2  239.56    9.56
  10 -10   2  213.94    8.70
 -10  10  -3  311.63   11.57
  10 -10   3  300.16   11.28
 -10  10  -4  286.49   10.90
  10 -10   4  277.89   10.90
 -10  10  -5  169.77    7.55
  10 -10   5  159.64    7.27
 -10  10  -6   30.59    4.11
  10 -10   6   23.52    4.30
 -10  10  -7  313.64   11.38
  10 -10   7  316.13   11.57
 -10  10  -8   -1.24    3.35
  10 -10   8    1.34    3.63
 -10  10  -9   94.06    5.54
  10 -10   9   74.56    5.35
 -10  10 -10   81.25    5.64
  10 -10  10   59.75    5.26
 -10  10 -11    6.31    4.59
  10 -10  11   10.61    4.49
  11 -11 -20    7.27    4.59
  11 -11 -20    3.54    4.11
  11 -11 -19  124.37    6.88
  11 -11 -19  120.54    6.21
  11 -11 -18   11.09    4.40
  11 -11 -18    2.58    3.73
  11 -11 -17  346.62   12.33
  11 -11 -17  335.63   12.04
  11 -11 -16   -0.19    3.73
  11 -11 -16    2.49    3.35
  11 -11 -15    3.73    3.44
  11 -11 -15    1.43    3.25
 -11  11  14  134.69    6.69
  11 -11 -14  133.45    6.40
 -11  11  13   89.67    5.45
  11 -11 -13   78.39    4.97
 -11  11  12   53.53    4.78
  11 -11 -12   52.10    4.59
 -11  11  11  465.15   15.96
  11 -11 -11  446.61   15.29
 -11  11  10    4.59    3.73
  11 -11 -10   -3.15    3.44
 -11  11   9  317.37   11.95
  11 -11  -9  291.18   10.90
 -11  11   8    2.77    3.63
  11 -11  -8    1.05    3.54
 -11  11   7   32.41    4.30
  11 -11  -7   30.69    4.21
 -11  11   6  209.83    8.89
  11 -11  -6  196.54    8.60
 -11  11   5  777.07   25.14
  11 -11  -5  760.06   24.57
 -11  11   4   16.73    4.01
  11 -11  -4    9.85    4.21
 -11  11   3  446.90   15.49
  11 -11  -3  447.76   15.49
 -11  11   2  348.82   12.81
  11 -11  -2  357.23   13.38
 -11  11   1  157.92    7.36
  11 -11  -1  155.24    7.27
 -11  11   0  133.64    6.69
  11 -11   0  132.20    6.88
 -11  11  -1  116.43    6.40
  11 -11   1  115.28    6.50
 -11  11  -2    6.40    3.63
  11 -11   2   -1.05    3.73
 -11  11  -3  512.38   17.21
  11 -11   3  497.08   16.92
 -11  11  -4   92.82    5.45
  11 -11   4   96.74    5.45
 -11  11  -5  334.57   12.04
  11 -11   5  303.51   11.18
 -11  11  -6   -0.48    3.35
  11 -11   6    1.15    4.21
 -11  11  -7    1.82    3.82
  11 -11   7    7.55    3.92
 -11  11  -8   33.17    4.40
  11 -11   8   26.86    4.59
 -11  11  -9   39.19    4.59
  11 -11   9   42.54    4.88
 -11  11 -10   -1.24    4.78
  11 -11  10   -1.43    5.16
  12 -12 -19   94.64    5.93
  12 -12 -19  116.24    6.40
  12 -12 -18  314.79   11.57
  12 -12 -18  316.32   11.66
  12 -12 -17   60.22    5.16
  12 -12 -17   57.83    4.97
  12 -12 -16   38.91    4.40
  12 -12 -16   38.52    4.68
 -12  12  15   86.61    5.54
  12 -12 -15   89.19    5.45
 -12  12  14    2.29    3.73
  12 -12 -14    6.60    3.63
 -12  12  13   28.39    3.92
  12 -12 -13   27.15    3.92
 -12  12  12  120.35    6.40
  12 -12 -12  118.15    6.21
 -12  12  11    4.97    3.73
  12 -12 -11   -3.82    3.44
 -12  12  10  376.16   13.38
  12 -12 -10  372.24   13.29
 -12  12   9    3.44    3.54
  12 -12  -9   -3.54    3.63
 -12  12   8   31.45    4.01
  12 -12  -8   30.21    4.40
 -12  12   7  614.28   20.27
  12 -12  -7  615.23   20.36
 -12  12   6    8.51    4.30
  12 -12  -6    3.73    3.63
 -12  12   5   28.20    4.30
  12 -12  -5   23.80    4.11
 -12  12   4   13.67    4.01
  12 -12  -4   17.02    3.92
 -12  12   3   37.57    4.49
  12 -12  -3   35.18    4.21
 -12  12   2  156.96    7.17
  12 -12  -2  172.54    8.13
 -12  12   1  372.72   13.38
  12 -12  -1  365.36   12.91
 -12  12   0    0.67    3.63
  12 -12   0    2.20    4.11
 -12  12  -1  532.36   17.78
  12 -12   1  533.89   17.68
 -12  12  -2    7.93    3.54
  12 -12   2    5.35    4.01
 -12  12  -3   42.63    4.40
  12 -12   3   41.01    4.30
 -12  12  -4   68.06    4.88
  12 -12   4   74.47    5.07
 -12  12  -5  112.42    6.02
  12 -12   5  121.40    6.50
 -12  12  -6   43.59    4.97
  12 -12   6   41.97    4.59
 -12  12  -7  125.32    6.31
  12 -12   7  124.46    6.31
 -12  12  -8    3.54    4.49
  12 -12   8   -1.15    4.11
  13 -13 -18   11.18    4.40
  13 -13 -18   13.48    4.49
  13 -13 -17   59.65    5.07
  13 -13 -17   54.58    5.16
  13 -13 -16   40.53    4.68
  13 -13 -16   42.83    4.49
 -13  13  15    5.64    4.01
  13 -13 -15   -2.96    3.63
 -13  13  14  343.94   12.62
  13 -13 -14  333.14   12.14
 -13  13  13    2.77    3.82
  13 -13 -13   -2.87    3.73
 -13  13  12   89.28    5.35
  13 -13 -12   82.97    5.35
 -13  13  11    7.55    3.54
  13 -13 -11    6.31    3.63
 -13  13  10    2.58    3.63
  13 -13 -10   -6.31    3.73
 -13  13   9   13.86    3.73
  13 -13  -9   11.38    3.92
 -13  13   8  466.40   15.87
  13 -13  -8  473.66   16.25
 -13  13   7  109.36    5.93
  13 -13  -7  102.00    5.93
 -13  13   6   28.58    4.11
  13 -13  -6   34.70    4.49
 -13  13   5   50.86    4.49
  13 -13  -5   49.13    4.59
 -13  13   4    9.37    3.82
  13 -13  -4    5.07    3.63
 -13  13   3   -4.11    3.54
  13 -13  -3    2.68    3.15
 -13  13   2  105.06    5.93
  13 -13  -2  108.02    6.12
 -13  13   1    0.67    3.54
  13 -13  -1    0.48    3.73
 -13  13   0  264.12   10.13
  13 -13   0  273.40   10.32
 -13  13  -1    8.60    3.82
  13 -13   1    7.36    3.92
 -13  13  -2  159.16    7.27
  13 -13   2  152.85    7.27
 -13  13  -3    0.19    4.11
  13 -13   3   -1.15    3.54
 -13  13  -4  131.06    6.69
  13 -13   4  126.09    6.50
 -13  13  -5   84.22    5.26
  13 -13   5   94.35    6.21
 -13  13  -6   88.90    5.54
  13 -13   6   88.71    5.93
  14 -14 -17   13.67    4.01
  14 -14 -17   10.99    4.01
  14 -14 -16   51.81    4.59
 -14  14  15  115.95    6.21
  14 -14 -15  115.76    6.02
 -14  14  14   51.72    4.78
  14 -14 -14   56.78    4.97
 -14  14  13    6.21    3.63
  14 -14 -13    8.51    3.92
 -14  14  12  181.91    7.84
  14 -14 -12  196.92    8.60
 -14  14  11    8.13    3.73
  14 -14 -11    3.82    3.82
 -14  14  10  177.90    8.03
  14 -14 -10  169.29    7.46
 -14  14   9   59.65    4.97
  14 -14  -9   61.37    4.97
 -14  14   8    8.51    3.73
  14 -14  -8    3.82    3.82
 -14  14   7    6.88    3.54
  14 -14  -7   14.91    3.82
 -14  14   6   46.65    4.40
  14 -14  -6   44.93    4.68
 -14  14   5   95.31    5.54
  14 -14  -5   83.45    5.26
 -14  14   4  337.73   12.33
  14 -14  -4  336.96   12.24
 -14  14   3    3.92    3.63
  14 -14  -3    3.25    3.73
 -14  14   2   28.01    4.30
  14 -14  -2   30.21    4.11
 -14  14   1   13.00    3.82
  14 -14  -1   10.13    4.01
 -14  14   0    9.46    4.11
  14 -14   0   18.93    4.01
 -14  14  -1    6.88    3.82
  14 -14   1   10.13    3.92
 -14  14  -2   91.10    5.64
  14 -14   2   86.61    5.74
 -14  14  -3    2.49    3.92
  14 -14   3    7.07    3.92
 -14  14  -4   83.36    5.26
  14 -14   4   84.79    5.83
 -15  15  15    6.98    4.21
  15 -15 -15   15.49    3.92
 -15  15  14   14.43    3.92
  15 -15 -14   17.21    3.73
 -15  15  13    9.94    3.63
  15 -15 -13    6.02    3.63
 -15  15  12    2.29    3.63
  15 -15 -12    7.17    3.82
 -15  15  11  129.34    6.50
  15 -15 -11  147.98    6.88
 -15  15  10   -0.96    3.44
  15 -15 -10    0.86    3.63
 -15  15   9   33.65    4.21
  15 -15  -9   33.36    4.21
 -15  15   8  123.51    6.40
  15 -15  -8  130.48    6.60
 -15  15   7    4.21    3.82
  15 -15  -7    5.93    3.73
 -15  15   6   37.19    4.21
  15 -15  -6   30.11    4.49
 -15  15   5  329.99   11.85
  15 -15  -5  335.24   11.85
 -15  15   4   29.25    4.11
  15 -15  -4   29.63    4.21
 -15  15   3  152.85    7.07
  15 -15  -3  153.33    7.07
 -15  15   2   37.66    4.11
  15 -15  -2   46.55    4.59
 -15  15   1   12.04    3.63
  15 -15  -1   -1.63    3.82
 -15  15   0   30.69    4.30
  15 -15   0   33.46    4.21
 -15  15  -1  106.97    5.93
  15 -15   1  101.04    5.64
 -16  16  12    6.88    3.54
  16 -16 -12    2.87    3.63
 -16  16  11    1.05    3.44
  16 -16 -11    5.45    3.54
 -16  16  10   26.86    3.73
  16 -16 -10   20.74    3.82
 -16  16   9   84.70    5.16
  16 -16  -9   85.94    5.07
 -16  16   8   56.02    4.40
  16 -16  -8   70.36    5.26
 -16  16   7  169.49    7.36
  16 -16  -7  184.40    7.55
 -16  16   6    2.77    3.54
  16 -16  -6    5.74    3.54
 -16  16   5   -2.96    3.15
  16 -16  -5    0.86    3.35
 -16  16   4    1.15    3.35
  16 -16  -4   -3.15    3.73
 -16  16   3   85.17    5.07
  16 -16  -3   94.83    5.16
  17 -15  -3   26.86    4.30
 -17  15   3   22.08    3.63
  17 -15  -4   33.94    4.11
 -17  15   4   32.79    3.63
  17 -15  -5  222.54    8.70
 -17  15   5  231.53    8.79
  17 -15  -6    2.49    3.54
 -17  15   6    1.63    3.25
  17 -15  -7   10.80    4.01
 -17  15   7    6.69    3.63
  17 -15  -8  151.42    6.69
 -17  15   8  138.51    6.50
  17 -15  -9    1.91    3.73
 -17  15   9   -4.30    3.25
  17 -15 -10   26.67    3.92
 -17  15  10   23.23    3.92
  17 -15 -11  200.94    8.13
 -17  15  11  202.85    8.22
  17 -15 -12    1.34    3.54
 -17  15  12    1.05    3.54
  17 -15 -13   50.47    4.59
 -17  15  13   49.42    4.40
  16 -14   1   19.21    4.11
 -16  14  -1   16.73    3.73
  16 -14   0   17.78    4.01
 -16  14   0   14.63    3.54
  16 -14  -1   10.71    3.92
 -16  14   1    9.85    3.54
  16 -14  -2   33.27    4.11
 -16  14   2   38.05    4.21
  16 -14  -3   27.34    4.11
 -16  14   3   24.09    3.92
  16 -14  -4  138.80    6.40
 -16  14   4  151.23    6.98
  16 -14  -5   17.68    3.82
 -16  14   5   24.76    4.21
  16 -14  -6  125.80    6.31
 -16  14   6  120.73    5.93
  16 -14  -7   77.14    5.26
 -16  14   7   71.69    5.35
  16 -14  -8    3.63    3.54
 -16  14   8    3.15    3.63
  16 -14  -9   -4.30    3.44
 -16  14   9    0.86    3.44
  16 -14 -10  162.13    7.27
 -16  14  10  194.15    8.22
  16 -14 -11    4.59    3.82
 -16  14  11    1.53    3.63
  16 -14 -12   91.77    5.64
 -16  14  12   89.09    5.35
  16 -14 -13    2.39    3.73
 -16  14  13    6.88    3.63
  16 -14 -14    7.36    3.82
 -16  14  14   10.13    3.54
  16 -14 -15   44.26    4.40
 -16  14  15   42.92    4.40
  16 -14 -16   28.01    4.21
  16 -14 -16   42.73    4.68
  15 -13   3   44.64    4.40
 -15  13  -3   48.56    4.59
  15 -13   2   14.53    4.11
 -15  13  -2    6.98    3.44
  15 -13   1    0.86    3.73
 -15  13  -1    2.39    3.44
  15 -13   0  147.40    7.17
 -15  13   0  139.95    6.50
  15 -13  -1   16.82    3.73
 -15  13   1   20.27    3.63
  15 -13  -2  309.34   11.57
 -15  13   2  310.20   11.47
  15 -13  -3    2.68    3.54
 -15  13   3    2.77    3.35
  15 -13  -4    6.02    3.63
 -15  13   4    0.76    3.35
  15 -13  -5   10.52    3.82
 -15  13   5   -1.91    3.54
  15 -13  -6  147.02    6.88
 -15  13   6  148.07    6.98
  15 -13  -7   83.17    5.74
 -15  13   7   71.98    4.97
  15 -13  -8  133.45    6.50
 -15  13   8  133.26    6.60
  15 -13  -9   65.10    5.16
 -15  13   9   52.38    4.88
  15 -13 -10   94.92    5.74
 -15  13  10   90.14    5.54
  15 -13 -11   19.60    4.01
 -15  13  11   19.50    3.92
  15 -13 -12   38.91    4.40
 -15  13  12   40.53    4.40
  15 -13 -13    7.65    3.63
 -15  13  13    3.92    3.63
  15 -13 -14  252.56    9.75
 -15  13  14  250.64    9.94
  15 -13 -15    6.21    3.82
 -15  13  15    1.15    3.92
  15 -13 -16   95.50    5.74
  15 -13 -16   94.25    5.45
  15 -13 -17   34.13    4.40
  15 -13 -17   32.41    4.78
  15 -13 -18   15.20    4.40
  15 -13 -18   14.72    4.30
  14 -12   6    2.87    4.21
 -14  12  -6   10.04    4.11
  14 -12   5  106.49    5.93
 -14  12  -5   97.89    5.83
  14 -12   4    4.11    4.59
 -14  12  -4    0.29    3.82
  14 -12   3    8.32    3.73
 -14  12  -3   24.18    4.11
  14 -12   2   93.78    5.54
 -14  12  -2   78.19    5.26
  14 -12   1  314.88   11.66
 -14  12  -1  311.73   11.38
  14 -12   0    3.63    3.54
 -14  12   0    2.49    3.44
  14 -12  -1  339.16   12.14
 -14  12   1  352.93   12.71
  14 -12  -2   97.70    5.64
 -14  12   2   89.28    5.45
  14 -12  -3    9.27    3.73
 -14  12   3    9.75    3.63
  14 -12  -4  143.77    6.50
 -14  12   4  145.87    7.07
  14 -12  -5   12.04    3.92
 -14  12   5   14.53    3.82
  14 -12  -6   10.52    3.92
 -14  12   6    2.39    3.73
  14 -12  -7  393.08   14.05
 -14  12   7  375.68   13.38
  14 -12  -8    6.31    3.82
 -14  12   8    3.25    3.54
  14 -12  -9  301.50   11.38
 -14  12   9  280.47   10.61
  14 -12 -10   95.21    5.74
 -14  12  10  106.59    6.02
  14 -12 -11   -0.48    3.63
 -14  12  11   -2.20    3.54
  14 -12 -12  301.40   11.18
 -14  12  12  307.14   11.28
  14 -12 -13   76.47    5.07
 -14  12  13   85.56    5.54
  14 -12 -14   13.38    3.54
 -14  12  14   18.07    4.21
  14 -12 -15  193.67    8.22
 -14  12  15  190.61    8.13
  14 -12 -16   -1.43    3.63
  14 -12 -16   -1.53    4.30
  14 -12 -17   51.14    4.49
  14 -12 -17   48.27    4.68
  14 -12 -18   59.08    4.68
  14 -12 -18   53.63    5.07
  14 -12 -19   54.77    4.78
  14 -12 -19   40.72    5.16
  13 -11   8    8.89    4.88
 -13  11  -8   14.43    4.59
  13 -11   7   -3.35    4.01
 -13  11  -7   -3.25    3.82
  13 -11   6   31.74    5.07
 -13  11  -6   38.62    4.40
  13 -11   5  109.36    6.02
 -13  11  -5   98.46    6.12
  13 -11   4    6.50    4.30
 -13  11  -4   -2.01    3.73
  13 -11   3  168.82    7.55
 -13  11  -3  168.43    7.36
  13 -11   2   84.79    5.54
 -13  11  -2   81.54    5.26
  13 -11   1   40.53    4.11
 -13  11  -1   53.82    4.59
  13 -11   0   76.00    5.35
 -13  11   0   90.14    5.54
  13 -11  -1    3.44    3.82
 -13  11   1    5.64    3.54
  13 -11  -2   -1.63    3.25
 -13  11   2    3.63    3.92
  13 -11  -3  448.71   15.77
 -13  11   3  515.15   17.40
  13 -11  -4   17.40    3.82
 -13  11   4   15.68    4.11
  13 -11  -5  255.04   10.13
 -13  11   5  228.56    9.37
  13 -11  -6    1.53    3.82
 -13  11   6    2.77    3.63
  13 -11  -7   -1.82    3.63
 -13  11   7    0.10    3.73
  13 -11  -8   87.85    5.64
 -13  11   8   80.68    5.45
  13 -11  -9   46.46    4.59
 -13  11   9   51.52    4.68
  13 -11 -10   53.44    4.78
 -13  11  10   70.83    5.26
  13 -11 -11  313.74   11.57
 -13  11  11  294.33   11.18
  13 -11 -12    5.26    3.63
 -13  11  12    3.15    3.73
  13 -11 -13  522.13   17.59
 -13  11  13  493.45   16.82
  13 -11 -14   98.17    5.83
 -13  11  14   81.06    5.54
  13 -11 -15    1.63    3.54
  13 -11 -15    6.88    3.54
  13 -11 -16    0.38    3.35
  13 -11 -16    0.48    3.54
  13 -11 -17   87.28    5.26
  13 -11 -17   95.98    5.64
  13 -11 -18    9.08    3.92
  13 -11 -18   10.13    3.82
  13 -11 -19  301.69   11.28
  13 -11 -19  288.50   10.99
  13 -11 -20    3.44    4.59
  13 -11 -20   -5.45    4.59
  12 -10   9   31.55    5.26
 -12  10  -9   24.47    4.78
  12 -10   8    1.15    4.21
 -12  10  -8   -0.19    3.63
  12 -10   7  115.57    6.50
 -12  10  -7  111.65    6.12
  12 -10   6   55.83    4.78
 -12  10  -6   62.33    4.88
  12 -10   5  220.63    8.99
 -12  10  -5  233.63    9.18
  12 -10   4  251.70    9.75
 -12  10  -4  247.78    9.85
  12 -10   3   80.68    5.16
 -12  10  -3   89.57    5.54
  12 -10   2   94.35    6.02
 -12  10  -2   95.78    5.74
  12 -10   1  466.87   15.87
 -12  10  -1  444.41   15.39
  12 -10   0    3.35    3.73
 -12  10   0    2.01    3.54
  12 -10  -1    8.70    4.11
 -12  10   1   11.38    3.82
  12 -10  -2  916.73   29.06
 -12  10   2  867.22   27.63
  12 -10  -3  445.75   15.87
 -12  10   3  453.78   15.87
  12 -10  -4  221.87    9.18
 -12  10   4  219.19    9.08
  12 -10  -5   31.55    4.40
 -12  10   5   26.57    4.30
  12 -10  -6   98.46    5.74
 -12  10   6  100.95    5.93
  12 -10  -7  104.96    6.12
 -12  10   7  121.69    6.60
  12 -10  -8   95.88    5.93
 -12  10   8   82.21    5.45
  12 -10  -9   47.89    4.78
 -12  10   9   43.49    4.49
  12 -10 -10  257.24   10.13
 -12  10  10  235.92    9.65
  12 -10 -11    7.55    3.92
 -12  10  11   -4.49    3.73
  12 -10 -12  779.37   24.95
 -12  10  12  761.20   24.57
  12 -10 -13   59.94    4.78
 -12  10  13   59.94    4.78
  12 -10 -14   -4.49    3.35
 -12  10  14    6.98    3.54
  12 -10 -15  197.30    8.32
  12 -10 -15  222.73    9.18
  12 -10 -16  140.04    6.60
  12 -10 -16  122.93    6.50
  12 -10 -17   15.10    3.73
  12 -10 -17    2.01    3.82
  12 -10 -19   15.39    3.92
  12 -10 -19   17.49    4.40
  12 -10 -20   21.99    4.40
  12 -10 -20   30.49    4.68
  12 -10 -21   61.47    5.64
  12 -10 -21   64.53    5.83
  11  -9  11   13.29    5.16
 -11   9 -11   14.72    4.21
  11  -9  10   41.68    5.26
 -11   9 -10   26.00    4.49
  11  -9   9    3.63    4.11
 -11   9  -9    6.98    3.73
  11  -9   8  368.61   13.10
 -11   9  -8  368.22   13.10
  11  -9   7   -0.19    3.92
 -11   9  -7    0.67    3.92
  11  -9   6  182.01    8.03
 -11   9  -6  184.69    7.93
  11  -9   5    1.43    3.82
 -11   9  -5   -2.77    3.35
  11  -9   4   35.08    4.21
 -11   9  -4   32.98    4.01
  11  -9   3   17.30    4.11
 -11   9  -3   19.12    3.82
  11  -9   2  870.85   27.82
 -11   9  -2  908.99   28.77
  11  -9   1    8.89    3.82
 -11   9  -1    6.40    3.54
  11  -9   0 1391.83   43.21
 -11   9   0 1307.71   40.44
  11  -9  -1    1.91    3.54
 -11   9   1    3.63    3.54
  11  -9  -2  264.98   10.42
 -11   9   2  270.05   10.61
  11  -9  -3  145.78    7.36
 -11   9   3  156.01    7.46
  11  -9  -4  201.32    8.41
 -11   9   4  192.43    8.32
  11  -9  -5  232.48    9.65
 -11   9   5  259.63   10.32
  11  -9  -6 1191.09   36.99
 -11   9   6 1156.67   36.13
  11  -9  -7   48.47    4.59
 -11   9   7   46.46    4.49
  11  -9  -8  237.26    9.56
 -11   9   8  214.22    8.99
  11  -9  -9  106.20    6.21
 -11   9   9  124.08    6.60
  11  -9 -10  181.72    7.93
 -11   9  10  187.65    8.13
  11  -9 -11   99.32    5.83
 -11   9  11  121.21    6.60
  11  -9 -12  264.03   10.23
 -11   9  12  281.43   10.61
  11  -9 -13    4.59    3.35
 -11   9  13    6.02    3.73
  11  -9 -14  420.89   14.53
  11  -9 -14  449.96   15.29
  11  -9 -15   -1.34    3.54
  11  -9 -15   -2.01    3.35
  11  -9 -16  110.51    5.93
  11  -9 -16  108.40    6.02
  11  -9 -17   49.04    4.40
  11  -9 -17   46.36    4.40
  11  -9 -18   -0.38    3.44
  11  -9 -18   -0.38    3.44
  11  -9 -19    3.35    3.82
  11  -9 -19    3.06    4.21
  11  -9 -20  143.77    7.17
  11  -9 -20  128.86    6.31
  11  -9 -21   -4.49    4.11
  11  -9 -21   -0.76    3.82
  10  -8  12   33.74    5.35
 -10   8 -12   34.89    4.59
  10  -8  11    3.73    4.68
 -10   8 -11   13.77    4.68
  10  -8  10  188.22    7.93
 -10   8 -10  192.24    8.32
  10  -8   9    8.89    3.82
 -10   8  -9   11.95    3.82
  10  -8   8    2.39    3.82
 -10   8  -8    9.08    3.82
  10  -8   7  181.72    8.22
 -10   8  -7  183.25    7.84
  10  -8   6  362.87   12.52
 -10   8  -6  357.52   12.62
  10  -8   5  131.44    6.79
 -10   8  -5  138.61    6.69
  10  -8   4   15.68    3.73
 -10   8  -4    5.26    3.25
  10  -8   3   80.68    5.64
 -10   8  -3   90.34    5.45
  10  -8   2  233.72    9.27
 -10   8  -2  215.85    8.79
  10  -8   1  319.18   11.85
 -10   8  -1  317.94   11.66
  10  -8   0   26.57    4.30
 -10   8   0   30.49    4.21
  10  -8  -1   94.92    5.64
 -10   8   1   90.24    5.74
  10  -8  -2  138.71    6.88
 -10   8   2  133.54    6.88
  10  -8  -3    2.87    3.54
 -10   8   3    3.73    3.63
  10  -8  -4  407.03   14.43
 -10   8   4  405.70   14.34
  10  -8  -5  246.63    9.94
 -10   8   5  271.20   10.80
  10  -8  -6   15.96    3.82
 -10   8   6   18.35    3.92
  10  -8  -7  502.24   17.02
 -10   8   7  516.58   17.49
  10  -8  -8  298.63   11.18
 -10   8   8  296.34   11.09
  10  -8  -9  340.02   12.33
 -10   8   9  337.54   12.43
  10  -8 -10  422.71   14.72
 -10   8  10  416.50   14.63
  10  -8 -11    4.40    3.35
 -10   8  11    4.11    3.54
  10  -8 -12   74.94    5.26
 -10   8  12   73.99    5.16
  10  -8 -13   95.21    5.74
  10  -8 -13   83.17    5.35
  10  -8 -14   65.39    4.97
  10  -8 -14   67.97    4.97
  10  -8 -15  160.60    7.07
  10  -8 -15  147.40    6.88
  10  -8 -16  265.27    9.94
  10  -8 -16  274.92   10.13
  10  -8 -17   27.05    3.92
  10  -8 -17   28.58    3.82
  10  -8 -18  101.71    5.74
  10  -8 -18  109.64    5.74
  10  -8 -19   23.71    4.11
  10  -8 -19   20.46    3.82
  10  -8 -20   27.91    3.92
  10  -8 -20   31.35    4.49
  10  -8 -21   81.35    5.54
  10  -8 -21   76.19    5.35
   9  -7  13   54.39    5.45
  -9   7 -13   43.40    4.78
   9  -7  12    7.55    4.40
  -9   7 -12    3.35    3.73
   9  -7  11  271.01   10.42
  -9   7 -11  290.32   10.80
   9  -7  10    0.00    3.63
  -9   7 -10    2.29    3.63
   9  -7   9  138.42    6.69
  -9   7  -9  124.37    6.02
   9  -7   8  267.47   10.13
  -9   7  -8  282.67   10.42
   9  -7   7   14.15    3.44
  -9   7  -7   21.99    3.82
   9  -7   6   -9.08    3.44
  -9   7  -6    0.96    3.06
   9  -7   5  181.44    7.74
  -9   7  -5  163.75    7.17
   9  -7   4  389.06   13.77
  -9   7  -4  408.09   14.24
   9  -7   3  433.99   14.91
  -9   7  -3  465.63   15.77
   9  -7   2   11.38    3.15
  -9   7  -2    4.59    3.63
   9  -7   1   12.14    3.73
  -9   7  -1   18.45    3.63
   9  -7   0   21.70    4.01
  -9   7   0   20.46    3.73
   9  -7  -1   78.19    5.07
  -9   7   1   71.89    4.97
   9  -7  -2    3.06    3.54
  -9   7   2    1.72    3.54
   9  -7  -3 1600.22   48.85
  -9   7   3 1575.37   48.08
   9  -7  -4  401.11   14.24
  -9   7   4  363.73   13.00
   9  -7  -5  246.53    9.85
  -9   7   5  281.43   11.09
   9  -7  -6   56.40    4.78
  -9   7   6   50.57    4.59
   9  -7  -7    4.59    3.54
  -9   7   7    0.00    3.15
   9  -7  -8    1.82    3.25
  -9   7   8    3.44    3.35
   9  -7  -9 1702.51   51.81
  -9   7   9 1822.95   55.16
   9  -7 -10   47.41    4.30
  -9   7  10   46.08    4.30
   9  -7 -11  789.69   25.14
  -9   7  11  750.21   23.99
   9  -7 -12    0.38    3.25
  -9   7  12    0.00    3.25
   9  -7 -13    4.88    3.35
   9  -7 -13    1.91    3.15
   9  -7 -14  292.70   10.80
   9  -7 -14  296.05   10.90
   9  -7 -15  292.13   10.61
   9  -7 -15  303.79   11.09
   9  -7 -16    5.16    3.25
   9  -7 -16    2.87    3.25
   9  -7 -17  186.50    7.65
   9  -7 -17  175.99    7.46
   9  -7 -18   13.86    3.35
   9  -7 -18   11.95    3.54
   9  -7 -19  186.98    7.55
   9  -7 -19  200.36    8.03
   9  -7 -20   25.05    3.82
   9  -7 -20   13.19    3.63
   9  -7 -21   29.25    4.11
   9  -7 -21   41.01    4.97
   9  -7 -22    3.35    4.40
   9  -7 -22    5.64    4.78
   8  -6  14   56.21    5.26
  -8   6 -14   56.50    4.78
   8  -6  13    1.72    3.54
  -8   6 -13    0.00    3.73
   8  -6  12    3.92    4.11
  -8   6 -12    6.21    4.01
   8  -6  11   54.97    4.40
  -8   6 -11   58.98    4.59
   8  -6  10   -0.48    3.35
  -8   6 -10    6.21    3.25
   8  -6   9  750.12   23.61
  -8   6  -9  840.26   26.29
   8  -6   8   10.61    3.35
  -8   6  -8    5.64    3.44
   8  -6   7  399.00   13.86
  -8   6  -7  407.03   13.86
   8  -6   6   13.19    3.63
  -8   6  -6    6.69    3.54
   8  -6   5  756.04   24.09
  -8   6  -5  692.57   22.18
   8  -6   4  509.99   17.30
  -8   6  -4  517.16   17.11
   8  -6   3  905.55   28.30
  -8   6  -3  917.59   28.77
   8  -6   2    7.36    3.06
  -8   6  -2   13.10    3.73
   8  -6   1  448.23   15.39
  -8   6  -1  451.87   15.39
   8  -6   0   25.33    3.54
  -8   6   0   31.74    3.92
   8  -6  -1 1196.82   36.99
  -8   6   1 1378.45   42.25
   8  -6  -2  746.20   23.99
  -8   6   2  776.69   24.85
   8  -6  -3  445.27   15.29
  -8   6   3  444.51   15.20
   8  -6  -4  374.15   13.38
  -8   6   4  384.95   13.48
   8  -6  -5  607.40   19.88
  -8   6   5  590.00   19.50
   8  -6  -6  231.53    9.18
  -8   6   6  222.25    8.99
   8  -6  -7 2431.88   72.94
  -8   6   7 2328.64   70.07
   8  -6  -8  969.31   30.21
  -8   6   8  958.80   30.02
   8  -6  -9   94.35    5.26
  -8   6   9   90.43    5.45
   8  -6 -10  254.28    9.65
  -8   6  10  236.88    9.08
   8  -6 -11   85.84    5.07
  -8   6  11   89.57    4.88
   8  -6 -12  618.48   19.98
   8  -6 -12  590.86   19.21
   8  -6 -13 2013.18   60.61
   8  -6 -13 2212.02   66.53
   8  -6 -14   10.61    3.35
   8  -6 -14   18.26    3.54
   8  -6 -15   35.27    3.73
   8  -6 -15   33.36    3.92
   8  -6 -16  285.15   10.32
   8  -6 -16  252.08    9.37
   8  -6 -17    0.48    2.96
   8  -6 -17    1.43    3.15
   8  -6 -18  270.43    9.85
   8  -6 -18  275.21    9.85
   8  -6 -19   72.65    4.40
   8  -6 -19   69.21    4.40
   8  -6 -20    7.93    3.44
   8  -6 -20    7.93    3.82
   8  -6 -21   66.72    4.49
   8  -6 -21   51.24    4.40
   8  -6 -22   -1.24    4.11
   8  -6 -22    1.05    3.73
   7  -5  15    2.77    3.63
  -7   5 -15   -1.05    3.82
   7  -5  14   50.95    4.40
  -7   5 -14   50.57    4.40
   7  -5  13    4.30    3.35
  -7   5 -13    9.37    3.73
   7  -5  12   69.11    4.40
  -7   5 -12   68.83    4.30
   7  -5  11    1.05    2.96
  -7   5 -11    1.91    2.96
   7  -5  10  424.34   14.05
  -7   5 -10  492.21   16.16
   7  -5   9   14.43    3.35
  -7   5  -9   16.06    3.35
   7  -5   8  536.75   17.59
  -7   5  -8  536.18   17.40
   7  -5   7  116.53    5.74
  -7   5  -7  120.26    5.74
   7  -5   6   19.41    3.15
  -7   5  -6   18.54    3.15
   7  -5   5    3.25    3.35
  -7   5  -5    1.63    2.87
   7  -5   4  615.90   19.98
  -7   5  -4  639.80   20.55
   7  -5   3   79.72    4.68
  -7   5  -3   85.84    4.97
   7  -5   2   14.15    3.54
  -7   5  -2   15.10    3.25
   7  -5   1    1.82    3.25
  -7   5  -1    2.68    3.15
   7  -5   0 3198.53   95.21
  -7   5   0 3103.90   92.53
   7  -5  -1  286.97   10.61
  -7   5   1  278.75   10.42
   7  -5  -2  299.78   10.80
  -7   5   2  335.24   12.04
   7  -5  -3  240.13    9.37
  -7   5   3  234.30    9.27
   7  -5  -4  304.08   10.90
  -7   5   4  303.41   11.18
   7  -5  -5   -0.57    3.35
  -7   5   5   -1.91    3.15
   7  -5  -6 9826.93  288.98
   7  -5  -7  206.77    8.32
  -7   5   7  192.24    7.93
   7  -5  -8   98.75    5.45
  -7   5   8  110.03    5.64
   7  -5  -9   54.49    4.40
  -7   5   9   57.83    4.21
   7  -5 -10  175.99    7.17
   7  -5 -11    2.87    3.15
   7  -5 -11    5.54    2.77
   7  -5 -12  857.66   26.86
   7  -5 -12  844.66   26.38
   7  -5 -13   61.56    4.49
   7  -5 -13   58.60    4.30
   7  -5 -14  863.58   27.05
   7  -5 -14  855.84   26.77
   7  -5 -15   76.38    4.49
   7  -5 -15   74.18    4.59
   7  -5 -16   72.46    4.59
   7  -5 -16   60.89    4.11
   7  -5 -17   13.19    3.15
   7  -5 -17    8.13    2.96
   7  -5 -18   94.73    4.88
   7  -5 -18   97.03    4.88
   7  -5 -19   13.00    2.68
   7  -5 -19   15.68    3.35
   7  -5 -20  110.51    5.16
   7  -5 -20  116.15    5.64
   7  -5 -21    3.44    3.15
   7  -5 -21   -0.57    3.25
   6  -4  15    1.91    2.87
  -6   4 -15    3.73    3.06
   6  -4  14  241.08    8.60
  -6   4 -14  236.02    8.60
   6  -4  13   26.29    3.35
  -6   4 -13   29.16    3.35
   6  -4  12  404.45   13.29
  -6   4 -12  395.18   13.10
   6  -4  11   51.62    3.44
  -6   4 -11   47.51    3.63
   6  -4  10  394.70   13.38
  -6   4 -10  505.59   16.44
   6  -4   9  219.29    7.93
  -6   4  -9  221.87    8.22
   6  -4   8   19.21    3.35
  -6   4  -8   13.48    2.96
   6  -4   7  161.26    6.60
  -6   4  -7  166.33    6.69
   6  -4   6  630.15   20.17
  -6   4  -6  639.80   20.27
   6  -4   5  168.24    6.98
  -6   4  -5  145.68    6.21
   6  -4   4   91.86    4.49
  -6   4  -4   98.56    4.97
   6  -4   3 1209.25   37.09
  -6   4  -3 1218.81   37.28
   6  -4   2  136.51    6.31
  -6   4  -2  128.09    6.12
   6  -4   1   32.02    3.54
  -6   4  -1   38.43    3.73
   6  -4   0 1123.21   34.80
  -6   4   0 1157.63   35.56
   6  -4  -1   19.69    3.73
  -6   4   1   13.77    3.54
   6  -4  -2  261.64    9.94
  -6   4   2  259.15    9.65
   6  -4  -3 1196.82   36.80
  -6   4   3 1196.82   36.71
   6  -4  -4  336.68   11.95
  -6   4   4  343.46   12.14
   6  -4  -5   48.18    4.30
  -6   4   5   41.39    3.92
   6  -4  -6  328.27   11.66
  -6   4   6  313.16   11.18
   6  -4  -7   39.86    4.01
  -6   4   7   38.05    3.73
   6  -4  -8 3480.53  103.34
  -6   4   8 3474.80  103.14
   6  -4  -9  186.31    7.46
   6  -4  -9  182.39    7.27
   6  -4 -10  799.35   24.95
   6  -4 -10  836.63   26.10
   6  -4 -11  271.58    9.75
   6  -4 -11  273.97    9.75
   6  -4 -12    2.20    2.68
   6  -4 -12    2.29    2.49
   6  -4 -13  381.13   12.81
   6  -4 -13  387.15   13.00
   6  -4 -15  203.42    7.65
   6  -4 -15  195.97    7.65
   6  -4 -16  964.53   29.73
   6  -4 -16  993.21   30.59
   6  -4 -17   82.78    4.49
   6  -4 -17   85.84    4.40
   6  -4 -18  138.51    5.74
   6  -4 -18  139.18    5.93
   6  -4 -19   -0.76    2.96
   6  -4 -19    1.15    2.96
   6  -4 -20    3.06    2.77
   6  -4 -20    1.24    2.96
   5  -3  15   45.50    2.49
  -5   3 -15   54.68    2.87
   5  -3  14   41.39    3.06
  -5   3 -14   36.80    2.87
   5  -3  13  837.49   25.71
  -5   3 -13  839.30   25.62
   5  -3  12  205.62    7.55
  -5   3 -12  194.91    7.17
   5  -3  11  477.77   15.29
  -5   3 -11  504.73   16.16
   5  -3  10   56.69    3.63
  -5   3 -10   65.67    3.82
   5  -3   9  139.18    6.02
  -5   3  -9  116.05    5.16
   5  -3   8   99.70    4.49
  -5   3  -8  112.23    5.07
   5  -3   7 1175.79   35.66
  -5   3  -7 1096.45   33.36
   5  -3   6   76.95    4.40
  -5   3  -6   60.51    3.73
   5  -3   5  731.48   22.85
  -5   3  -5  736.16   23.04
   5  -3   4   23.04    2.96
  -5   3  -4   24.09    3.15
   5  -3   3  997.03   30.69
  -5   3  -3  963.57   29.73
   5  -3   2  259.06    9.18
  -5   3  -2  261.16    9.46
   5  -3   1  951.34   29.35
  -5   3  -1  959.75   29.54
   5  -3   0  731.28   22.94
  -5   3   0  783.10   24.47
   5  -3  -1  243.95    9.08
  -5   3   1  230.67    8.89
   5  -3  -2  247.49    9.27
  -5   3   2  245.67    9.27
   5  -3  -3 1207.34   36.99
  -5   3   3 1141.38   34.99
   5  -3  -4 2338.20   69.88
  -5   3   4 2210.10   66.15
   5  -3  -5  160.21    6.79
  -5   3   5  167.67    6.98
   5  -3  -6  373.86   12.71
  -5   3   6  350.44   12.04
   5  -3  -7 1479.78   44.74
  -5   3   7 1491.25   45.12
   5  -3  -8   15.49    3.15
   5  -3  -8   16.44    2.87
   5  -3  -9 1335.43   40.44
   5  -3  -9 1328.74   40.24
   5  -3 -10  314.21   10.90
   5  -3 -10  329.03   11.18
   5  -3 -11   50.28    3.54
   5  -3 -11   44.83    3.44
   5  -3 -12  556.73   17.78
   5  -3 -12  548.42   17.40
   5  -3 -13  309.24   10.52
   5  -3 -13  317.65   10.80
   5  -3 -14  576.90   18.35
   5  -3 -14  538.95   17.11
   5  -3 -15  386.86   12.81
   5  -3 -15  365.36   12.14
   5  -3 -16  122.55    5.26
   5  -3 -16  125.42    5.45
   5  -3 -17    8.22    2.58
   5  -3 -17    8.13    2.58
   5  -3 -18  297.10   10.04
   5  -3 -18  290.41    9.85
   5  -3 -19   -2.29    2.49
   5  -3 -19    0.57    2.58
   5  -3 -20   72.08    3.35
   5  -3 -20   67.01    3.35
   4  -2  14    1.34    1.63
  -4   2 -14    4.68    1.72
   4  -2  13    5.35    2.10
  -4   2 -13    4.97    2.10
   4  -2  12   48.27    3.15
  -4   2 -12   56.21    3.25
   4  -2  11  678.61   20.74
  -4   2 -11  693.05   21.32
   4  -2  10    2.49    2.10
  -4   2 -10    3.15    2.20
   4  -2   9  923.71   28.20
  -4   2  -9 1013.28   30.78
   4  -2   8  304.18   10.13
  -4   2  -8  360.58   11.76
   4  -2   7  438.87   14.15
  -4   2  -7  404.74   13.00
   4  -2   6  173.41    6.40
  -4   2  -6  164.52    6.21
   4  -2   5  160.02    6.02
  -4   2  -5  155.62    6.02
   4  -2   4   -0.57    2.39
  -4   2  -4    0.48    2.39
   4  -2   3 2274.15   67.68
  -4   2  -3 2290.40   68.16
   4  -2   2  576.42   18.26
  -4   2  -2  561.89   17.68
   4  -2   1  126.76    5.74
  -4   2  -1  118.53    5.35
   4  -2   0 1769.42   53.05
  -4   2   0 1727.36   51.91
   4  -2  -1 2540.85   75.61
  -4   2   1 2472.03   73.61
   4  -2  -2 2901.24   86.22
  -4   2   2 2870.65   85.17
  -4   2   3 8366.28  245.86
   4  -2  -4  257.24    9.56
  -4   2   4  252.75    9.18
   4  -2  -5  150.27    6.31
  -4   2   5  149.41    6.21
   4  -2  -6  413.92   13.67
   4  -2  -6  388.39   12.81
   4  -2  -7   82.40    4.30
   4  -2  -7   83.36    4.49
   4  -2  -8    7.93    2.77
   4  -2  -8    5.45    2.58
   4  -2  -9  763.40   23.71
   4  -2  -9  730.90   22.75
   4  -2 -10   14.91    2.68
   4  -2 -10   10.13    2.49
   4  -2 -11 1158.58   35.08
   4  -2 -11 1215.94   36.90
   4  -2 -12   79.92    4.11
   4  -2 -12   90.05    4.40
   4  -2 -13  599.94   18.93
   4  -2 -13  579.29   18.16
   4  -2 -14   48.66    3.25
   4  -2 -14   45.60    3.25
   4  -2 -15  180.29    6.79
   4  -2 -15  186.50    6.88
   4  -2 -16    5.16    2.29
   4  -2 -16    8.32    2.39
   4  -2 -17  137.27    5.45
   4  -2 -17  146.45    5.74
   4  -2 -18    9.56    2.39
   4  -2 -18    6.31    2.49
   4  -2 -19  424.43   13.38
   4  -2 -19  422.71   13.38
   3  -1  13   76.19    2.96
  -3   1 -13   59.46    2.68
   3  -1  12  102.76    4.01
  -3   1 -12   93.49    3.82
   3  -1  11   40.72    2.58
  -3   1 -11   29.63    2.29
   3  -1  10  361.63   11.57
  -3   1 -10  353.88   11.38
   3  -1   9   19.69    1.82
  -3   1  -9   17.78    2.10
   3  -1   8  277.51    9.27
  -3   1  -8  244.14    8.13
   3  -1   7  646.68   19.88
  -3   1  -7  655.10   20.07
   3  -1   6    8.03    1.91
  -3   1  -6    5.64    2.01
   3  -1   5 2728.22   80.87
  -3   1  -5 2728.22   80.78
   3  -1   4 2430.92   71.98
  -3   1  -4 2519.82   74.56
   3  -1   3  616.48   18.93
  -3   1  -3  634.54   19.50
   3  -1   2  528.05   16.44
  -3   1  -2  487.43   15.29
  -3   1  -1 3203.31   94.54
   3  -1   0   11.95    2.96
  -3   1   0    8.89    2.87
  -3   1   1 2682.33   79.34
  -3   1   3 4915.38  144.73
   3  -1  -4   27.82    3.35
   3  -1  -4   31.93    3.15
   3  -1  -5  915.01   28.01
   3  -1  -5  884.71   27.05
   3  -1  -6  331.52   11.09
   3  -1  -6  334.00   10.99
   3  -1  -7  499.57   15.87
   3  -1  -7  497.66   15.77
   3  -1  -8  174.07    6.60
   3  -1  -8  159.07    6.02
   3  -1  -9  634.54   19.79
   3  -1  -9  661.50   20.55
   3  -1 -10 1689.12   50.66
   3  -1 -10 1589.71   47.70
   3  -1 -11   47.13    3.06
   3  -1 -11   44.83    3.06
   3  -1 -12   12.43    2.29
   3  -1 -12   14.43    2.29
   3  -1 -13   17.97    2.49
   3  -1 -13   20.65    2.58
   3  -1 -14  219.67    7.84
   3  -1 -14  216.71    7.65
   3  -1 -15  160.40    6.21
   3  -1 -15  181.91    6.79
   3  -1 -16  107.54    4.59
   3  -1 -16   99.32    4.40
   3  -1 -17  262.40    8.89
   3  -1 -17  252.56    8.60
   3  -1 -18  208.77    7.17
   3  -1 -18  190.52    6.60
  -2   0 -12  221.58    7.17
  -2   0 -12  236.59    7.65
   2   0  11    1.24    1.24
  -2   0 -11    2.10    1.34
   2   0  10  441.35   13.57
  -2   0 -10  450.15   13.86
   2   0   9   -0.48    1.43
  -2   0  -9   -0.48    1.34
   2   0   8  169.58    5.74
  -2   0  -8  166.71    5.64
   2   0   7    2.29    1.24
  -2   0  -7    0.29    1.34
   2   0   5    1.82    1.43
  -2   0  -5    1.82    1.63
   2   0   4  367.36   11.38
  -2   0  -4  374.25   11.57
   2   0   3    0.19    1.53
  -2   0  -3    2.10    1.72
   2   0   2  683.39   20.55
  -2   0  -2  677.47   20.36
   2   0   1    3.35    1.72
  -2   0  -1    0.48    1.63
   2   0  -1    1.72    1.43
   2   0  -1   -1.72    1.53
   2   0  -2 1610.74   47.70
  -2   0   2 1539.04   45.60
   2   0  -3   -1.15    2.20
  -2   0   3    1.53    2.29
   2   0  -4   80.11    4.01
  -2   0   4   96.45    4.30
   2   0  -5    1.82    2.49
  -2   0   5    1.91    2.29
   2   0  -6   32.69    2.68
  -2   0   6   37.47    2.77
   2   0  -7    1.43    2.20
  -2   0   7    0.00    2.29
   2   0  -8 2906.98   86.03
  -2   0   8 3026.47   89.76
   2   0  -9   -0.38    2.01
  -2   0   9   -1.05    1.82
   2   0 -10   28.20    2.58
  -2   0  10   16.16    2.39
   2   0 -11    2.58    2.10
  -2   0  11    0.10    1.91
   2   0 -12   57.36    3.44
  -2   0  12   68.25    3.44
   2   0 -13    2.58    2.29
  -2   0  13    3.63    2.01
   2   0 -14  823.24   25.33
   2   0 -14  827.36   25.33
   2   0 -15   -0.86    2.49
   2   0 -15    2.10    2.10
   2   0 -16  620.21   19.21
   2   0 -16  620.59   19.31
   2   0 -17   -1.43    1.91
   2   0 -17    0.29    2.20
   2   0 -18    4.78    1.91
   2   0 -18    0.96    1.91
  -1  -1 -10 1658.53   50.57
  -1  -1 -10 1624.12   49.42
  -1  -1  -9   91.96    3.25
  -1  -1  -9   86.89    3.06
  -1  -1  -8  110.22    3.73
   1   1   7 2707.19   81.06
  -1  -1  -7 2697.63   80.68
   1   1   6    7.93    1.05
  -1  -1  -6    9.65    1.15
   1   1   5  964.53   29.25
  -1  -1  -5  863.49   26.19
   1   1   1  276.26    8.32
  -1  -1  -1  251.70    7.65
   1   1   0  514.00   15.39
  -1  -1   0  555.20   16.63
   1   1  -2 2239.74   66.05
   1   1  -3    2.01    2.10
  -1  -1   3    1.91    2.29
   1   1  -4  546.60   17.02
  -1  -1   4  480.35   15.01
   1   1  -5  104.29    4.59
  -1  -1   5  103.43    4.59
   1   1  -6  620.59   19.21
  -1  -1   6  615.04   19.02
   1   1  -7 1455.88   43.69
  -1  -1   7 1657.58   49.80
   1   1  -8   69.21    3.54
  -1  -1   8   83.17    3.92
   1   1  -9   73.13    3.73
  -1  -1   9   67.39    3.35
   1   1 -10   54.68    3.35
  -1  -1  10   60.22    3.54
   1   1 -11  199.12    7.17
  -1  -1  11  196.35    7.07
   1   1 -12  524.04   16.54
  -1  -1  12  548.42   17.21
   1   1 -13  300.83   10.04
  -1  -1  13  359.05   11.76
   1   1 -14   22.27    2.87
  -1  -1  14   31.07    2.87
   1   1 -15  175.51    6.50
  -1  -1  15  176.27    6.50
   1   1 -16  207.15    7.27
   1   1 -16  204.09    7.17
   1   1 -17    2.10    2.10
   1   1 -17    1.53    2.20
   1   1 -18  202.08    6.88
   1   1 -18  187.94    6.50
   0  -2 -10   77.91    2.77
   0  -2 -10   71.41    2.58
   0  -2  -9   54.11    2.20
   0  -2  -9   55.63    2.20
   0  -2  -8 1279.03   38.43
   0  -2  -8 1229.32   36.99
   0  -2  -7  562.37   17.11
   0  -2  -7  605.48   18.35
   0  -2  -6  229.80    7.27
   0  -2  -6  216.71    6.88
   0  -2  -5 1572.50   46.84
   0  -2  -5 1531.40   45.60
   0  -2  -4  146.73    4.88
   0   2   3 1283.81   38.05
   0  -2  -3 1195.87   35.56
   0   2   2  744.76   22.27
   0  -2  -2  765.12   22.85
   0   2   1   27.82    2.01
   0  -2  -1   26.96    2.10
   0   2   0  141.19    5.07
   0  -2   0  130.87    4.78
   0   2  -1   35.46    2.77
   0  -2   1   35.94    2.68
   0   2  -2  763.21   23.23
   0  -2   2  788.74   23.99
   0   2  -3 1284.77   38.52
   0  -2   3 1287.63   38.62
   0   2  -4  147.12    5.83
   0  -2   4  118.53    5.16
   0   2  -5 1672.87   50.00
   0  -2   5 1582.06   47.41
   0   2  -6  220.25    7.84
   0  -2   6  227.13    8.13
   0   2  -7  631.87   19.69
   0  -2   7  617.34   19.41
   0   2  -8 1233.15   37.28
   0  -2   8 1246.53   37.47
   0   2  -9   63.09    3.54
   0  -2   9   65.00    3.73
   0   2 -10   74.85    3.82
   0  -2  10   80.30    4.11
   0   2 -11 1144.24   34.70
   0  -2  11 1116.52   33.84
   0   2 -12   56.11    3.44
   0  -2  12   68.16    3.92
   0   2 -13    4.78    2.29
   0  -2  13    5.07    2.20
   0   2 -14    7.93    2.49
   0  -2  14    4.59    2.68
   0   2 -15   41.39    3.15
   0  -2  15   43.40    3.06
   0   2 -16  121.59    4.97
   0  -2  16  144.25    5.74
   0   2 -17  241.56    8.22
   0   2 -17  246.06    8.60
   0   2 -18    0.38    2.20
   0   2 -18    0.76    2.29
   1  -3 -12  303.41    9.65
   1  -3 -12  327.02   10.42
   1  -3 -11    5.45    1.34
   1  -3 -11    5.93    1.24
   1  -3 -10  145.68    4.88
   1  -3 -10  149.41    5.07
   1  -3  -9 1330.65   39.77
   1  -3  -9 1327.78   39.67
   1  -3  -8   48.75    2.39
   1  -3  -8   44.07    2.29
   1  -3  -7 1183.44   35.37
   1  -3  -7 1269.47   37.95
   1  -3  -6   15.68    1.91
   1  -3  -6   13.57    1.82
  -1   3   5   78.77    3.35
   1  -3  -5   80.78    3.54
  -1   3   4 1015.19   30.49
   1  -3  -4 1013.28   30.49
  -1   3   3 1189.17   35.66
   1  -3  -3 1163.36   34.99
  -1   3   2    3.35    2.58
   1  -3  -2    0.86    2.68
  -1   3   0  491.35   15.58
   1  -3   0  483.99   15.39
  -1   3  -2   13.77    3.06
   1  -3   2    9.27    3.15
  -1   3  -3  498.52   16.06
   1  -3   3  479.49   15.58
  -1   3  -4  260.01    9.08
   1  -3   4  272.53    9.65
  -1   3  -5  672.02   21.03
   1  -3   5  689.80   21.51
  -1   3  -6  114.52    5.16
   1  -3   6  118.44    5.35
  -1   3  -7 1686.26   50.57
   1  -3   7 1664.27   49.90
  -1   3  -8  330.08   11.09
   1  -3   8  382.18   12.71
  -1   3  -9  243.86    8.60
   1  -3   9  232.48    8.60
  -1   3 -10  175.13    6.60
   1  -3  10  180.77    6.69
  -1   3 -11  139.37    5.83
   1  -3  11  123.03    5.26
  -1   3 -12  150.65    6.12
   1  -3  12  151.80    6.12
  -1   3 -13  228.85    8.32
   1  -3  13  186.98    6.88
  -1   3 -14  172.35    6.69
   1  -3  14  173.41    6.60
  -1   3 -15   54.58    3.73
   1  -3  15   52.38    3.73
  -1   3 -16  275.21    9.56
   1  -3  16  292.70   10.04
  -1   3 -17   84.70    4.40
   1  -3  17   80.68    4.01
  -1   3 -18   44.16    3.35
  -1   3 -18   54.49    3.63
   2  -4 -13   23.23    1.63
   2  -4 -13   21.99    1.82
   2  -4 -12   48.85    2.49
   2  -4 -12   49.04    2.49
   2  -4 -11   19.60    1.91
   2  -4 -11   17.40    1.82
   2  -4 -10  725.07   22.08
   2  -4 -10  707.00   21.60
   2  -4  -9   16.92    2.01
   2  -4  -9   17.21    2.01
   2  -4  -8 1231.23   36.90
   2  -4  -8 1256.09   37.66
  -2   4   7   80.49    3.82
   2  -4  -7   84.89    3.92
  -2   4   6 1087.85   32.79
   2  -4  -6 1082.11   32.69
  -2   4   5 2257.90   67.11
   2  -4  -5 2271.28   67.49
  -2   4   4 1127.04   34.22
   2  -4  -4 1084.98   32.98
  -2   4   3  283.62    9.94
   2  -4  -3  272.53    9.65
   2  -4  -2 4412.56  130.29
  -2   4   1  861.48   26.67
   2  -4  -1  872.95   27.15
  -2   4   0  485.42   15.96
   2  -4   0  486.95   16.06
  -2   4  -1   15.29    3.63
   2  -4   1   17.21    3.73
  -2   4  -2  867.50   26.96
   2  -4   2  890.45   27.63
  -2   4  -3 1104.10   33.74
   2  -4   3 1023.80   31.55
  -2   4  -4  686.45   21.60
   2  -4   4  679.66   21.32
  -2   4  -5  550.61   17.78
   2  -4   5  494.60   16.16
  -2   4  -6 1696.77   51.05
   2  -4   6 1925.24   58.02
  -2   4  -7   43.11    3.44
   2  -4   7   42.44    3.44
  -2   4  -8 2632.62   78.39
   2  -4   8 2247.39   67.39
  -2   4  -9  254.66    9.08
   2  -4   9  233.06    8.51
  -2   4 -10  100.47    4.78
   2  -4  10   88.90    4.59
  -2   4 -11  384.19   12.91
   2  -4  11  390.69   13.38
  -2   4 -12    5.64    2.58
   2  -4  12    7.07    2.39
  -2   4 -13   13.57    2.77
   2  -4  13   17.02    2.96
  -2   4 -14  629.48   19.98
   2  -4  14  604.34   19.12
  -2   4 -15    2.58    2.87
   2  -4  15    2.77    2.77
  -2   4 -16  185.45    7.27
   2  -4  16  168.82    6.79
  -2   4 -17   50.95    4.11
   2  -4  17   43.78    3.82
  -2   4 -18   15.01    3.54
   2  -4  18   18.54    3.06
   3  -5 -15   15.96    1.72
   3  -5 -15   15.49    1.72
   3  -5 -14  467.74   14.53
   3  -5 -14  451.68   14.05
   3  -5 -13    3.63    1.82
   3  -5 -13   -0.29    1.82
   3  -5 -11   21.80    2.39
   3  -5 -11   24.18    2.39
   3  -5  -9  107.35    4.49
   3  -5  -9  103.05    4.59
  -3   5   8   13.38    2.29
   3  -5  -8    9.37    2.49
  -3   5   7   15.68    2.49
   3  -5  -7   11.28    2.58
  -3   5   6 2799.91   83.17
   3  -5  -6 2784.62   82.69
  -3   5   5  198.45    7.65
   3  -5  -5  192.62    7.36
  -3   5   4  624.12   19.79
   3  -5  -4  647.07   20.55
  -3   5   3    3.15    3.25
   3  -5  -3    3.44    2.87
  -3   5   2 3318.98   98.46
   3  -5  -2 3367.73   99.99
  -3   5   1  263.74    9.75
   3  -5  -1  267.28    9.75
  -3   5   0    8.03    3.44
   3  -5   0    8.60    3.63
  -3   5  -1  379.03   12.91
   3  -5   1  357.80   12.33
  -3   5  -2  280.95   10.23
   3  -5   2  289.93   10.61
  -3   5  -3  349.58   12.14
   3  -5   3  367.36   12.62
  -3   5  -4 1192.04   36.52
   3  -5   4 1152.85   35.37
  -3   5  -5   47.99    3.92
   3  -5   5   43.30    3.92
  -3   5  -6  394.70   13.29
   3  -5   6  412.96   13.67
  -3   5  -7  447.85   14.82
   3  -5   7  482.27   15.96
  -3   5  -8 1221.68   37.28
   3  -5   8 1312.49   40.34
  -3   5  -9  218.24    8.32
   3  -5   9  165.66    6.79
  -3   5 -10  337.06   11.66
   3  -5  10  300.16   10.71
  -3   5 -11  716.85   22.75
   3  -5  11  681.29   21.60
  -3   5 -12   43.97    3.82
   3  -5  12   54.20    4.01
  -3   5 -13   35.56    3.63
   3  -5  13   43.59    3.54
  -3   5 -14    4.49    2.96
   3  -5  14    2.39    2.77
  -3   5 -15   29.16    3.73
   3  -5  15   12.81    2.96
  -3   5 -16  314.69   11.09
   3  -5  16  359.81   12.33
  -3   5 -17    9.08    3.82
   3  -5  17   11.57    4.21
  -3   5 -18   93.01    5.74
   3  -5  18   79.06    4.88
   4  -6 -16  252.46    8.32
   4  -6 -16  227.03    7.65
   4  -6 -15    9.46    2.20
   4  -6 -15   12.71    2.10
   4  -6 -14  149.79    5.83
   4  -6 -14  142.72    5.64
   4  -6 -13  119.01    4.97
   4  -6 -13  127.71    5.45
   4  -6 -12    7.07    2.49
   4  -6 -12    8.51    2.39
   4  -6 -11 1092.62   33.17
   4  -6 -11 1112.70   33.84
  -4   6  10   18.45    2.39
   4  -6 -10   17.21    2.77
  -4   6   9  117.58    5.35
   4  -6  -9  107.35    5.07
  -4   6   8   38.81    3.25
   4  -6  -8   38.05    3.44
  -4   6   7  453.21   15.01
   4  -6  -7  445.27   14.82
  -4   6   6  115.48    5.45
   4  -6  -6  121.31    5.74
  -4   6   5 4702.21  138.90
   4  -6  -5 4852.29  143.48
  -4   6   4 2455.78   73.42
   4  -6  -4 2463.43   73.70
  -4   6   3   15.96    3.44
   4  -6  -3   16.82    3.44
  -4   6   2  153.24    6.98
   4  -6  -2  161.36    7.07
  -4   6   1  117.87    6.02
   4  -6  -1  126.37    6.31
  -4   6   0  137.08    6.31
   4  -6   0  139.09    6.50
  -4   6  -1  978.87   30.59
   4  -6   1  978.87   30.40
  -4   6  -2  141.09    6.60
   4  -6   2  137.56    6.31
  -4   6  -3  864.64   27.05
   4  -6   3  931.74   28.96
  -4   6  -4   61.37    4.40
   4  -6   4   57.16    4.49
  -4   6  -5  132.97    6.02
   4  -6   5  135.45    6.40
  -4   6  -6  506.83   16.73
   4  -6   6  492.49   16.35
  -4   6  -7  400.25   13.67
   4  -6   7  396.23   13.86
  -4   6  -8   76.19    4.59
   4  -6   8   74.56    4.49
  -4   6  -9  187.94    7.84
   4  -6   9  177.99    7.46
  -4   6 -10   58.50    4.21
   4  -6  10   68.25    4.68
  -4   6 -11  784.05   24.66
   4  -6  11  859.38   26.86
  -4   6 -12   99.23    5.16
   4  -6  12   97.50    4.97
  -4   6 -13   -0.19    3.06
   4  -6  13    0.10    2.77
  -4   6 -14  419.56   14.15
   4  -6  14  431.41   14.43
  -4   6 -15   54.68    4.49
   4  -6  15   45.79    4.11
  -4   6 -16   -1.15    4.01
   4  -6  16   -2.96    3.35
  -4   6 -17   57.64    5.83
   4  -6  17   65.10    5.26
   5  -7 -18    0.48    1.91
   5  -7 -18   -0.19    2.01
   5  -7 -17  334.77   10.99
   5  -7 -17  315.46   10.32
   5  -7 -16    1.82    2.29
   5  -7 -16    3.35    2.39
   5  -7 -15  447.95   14.43
   5  -7 -15  420.23   13.67
   5  -7 -14  164.99    6.60
   5  -7 -14  149.32    6.12
   5  -7 -12  413.15   13.67
   5  -7 -12  435.23   14.43
  -5   7  11  368.32   12.43
   5  -7 -11  337.73   11.66
  -5   7  10   -0.10    2.87
   5  -7 -10    3.92    2.87
  -5   7   9  750.02   23.52
   5  -7  -9  731.28   23.13
  -5   7   8    5.74    2.96
   5  -7  -8    2.20    2.58
  -5   7   7 1162.41   35.75
   5  -7  -7 1209.25   37.09
  -5   7   6  277.31   10.13
   5  -7  -6  265.37    9.85
  -5   7   5    3.15    3.25
   5  -7  -5    0.48    2.96
  -5   7   4   12.04    3.44
   5  -7  -4   10.80    3.35
  -5   7   3  456.74   15.49
   5  -7  -3  475.96   16.06
  -5   7   2   77.91    5.16
   5  -7  -2   73.99    4.97
  -5   7   1 1392.79   42.73
   5  -7  -1 1407.13   43.21
  -5   7   0  124.65    6.21
   5  -7   0  113.09    5.93
  -5   7  -1   90.62    5.45
   5  -7   1   83.93    5.26
  -5   7  -2  126.66    6.31
   5  -7   2  132.49    6.40
  -5   7  -3  376.73   13.19
   5  -7   3  356.08   12.81
  -5   7  -4  456.07   15.49
   5  -7   4  469.07   15.87
  -5   7  -5 1270.43   39.00
   5  -7   5 1276.16   39.00
  -5   7  -6   26.48    3.63
   5  -7   6   30.78    3.92
  -5   7  -7 1099.32   34.13
   5  -7   7 1026.67   32.21
  -5   7  -8  117.67    5.93
   5  -7   8  112.99    5.74
  -5   7  -9  132.30    6.21
   5  -7   9  148.17    6.79
  -5   7 -10    9.18    3.35
   5  -7  10    4.68    3.25
  -5   7 -11  809.96   25.43
   5  -7  11  630.05   20.27
  -5   7 -12  152.28    6.79
   5  -7  12  154.86    6.88
  -5   7 -13  553.20   17.97
   5  -7  13  522.41   17.11
  -5   7 -14   -6.40    3.54
   5  -7  14    1.24    3.35
  -5   7 -15  103.14    6.12
   5  -7  15  100.75    5.74
  -5   7 -16    3.35    4.30
   5  -7  16    6.02    4.59
   6  -8 -19   75.52    3.82
   6  -8 -19   67.78    3.73
   6  -8 -18   87.28    4.40
   6  -8 -18   83.74    4.40
   6  -8 -17  100.95    5.07
   6  -8 -17  101.90    4.88
   6  -8 -16  163.18    6.69
   6  -8 -16  167.86    6.69
   6  -8 -15    0.38    2.87
   6  -8 -15   -1.15    2.77
   6  -8 -14   49.04    3.63
   6  -8 -14   59.36    4.11
   6  -8 -13  184.88    7.36
   6  -8 -13  174.07    7.27
  -6   8  12   59.27    4.11
   6  -8 -12   56.69    4.11
  -6   8  11 1043.87   32.31
   6  -8 -11 1092.62   33.65
  -6   8  10  159.16    6.88
   6  -8 -10  166.04    7.07
  -6   8   9    9.94    3.54
   6  -8  -9    0.86    2.77
  -6   8   8  782.04   24.66
   6  -8  -8  805.08   25.43
  -6   8   7  222.83    8.79
   6  -8  -7  216.90    8.60
  -6   8   6   36.23    3.92
   6  -8  -6   28.58    3.54
  -6   8   5   35.18    4.01
   6  -8  -5   29.54    3.82
  -6   8   4  236.21    9.37
   6  -8  -4  226.94    9.08
  -6   8   3  672.11   21.80
   6  -8  -3  696.01   22.46
  -6   8   2 1263.74   39.00
   6  -8  -2 1198.73   37.09
  -6   8   1   54.87    4.49
   6  -8  -1   54.39    4.40
  -6   8   0    5.35    3.54
   6  -8   0    3.06    3.06
  -6   8  -1  541.34   17.97
   6  -8   1  551.00   18.07
  -6   8  -2   29.92    3.92
   6  -8   2   27.53    3.82
  -6   8  -3    3.25    3.25
   6  -8   3   -1.72    3.54
  -6   8  -4 1026.67   32.02
   6  -8   4 1007.55   31.55
  -6   8  -5    1.34    3.25
   6  -8   5    3.35    3.15
  -6   8  -6  923.81   28.96
   6  -8   6  909.28   28.87
  -6   8  -7  145.49    6.69
   6  -8   7  152.57    7.17
  -6   8  -8    8.89    3.35
   6  -8   8    6.98    3.92
  -6   8  -9   84.12    5.07
   6  -8   9   82.11    5.07
  -6   8 -10  257.24    9.75
   6  -8  10  226.27    8.99
  -6   8 -11   45.12    4.11
   6  -8  11   53.91    4.59
  -6   8 -12  159.74    7.07
   6  -8  12  183.06    7.74
  -6   8 -13   43.88    4.40
   6  -8  13   44.36    4.49
  -6   8 -14   86.80    5.74
   6  -8  14   73.61    5.54
  -6   8 -15   15.01    4.40
   6  -8  15   27.53    4.88
   7  -9 -20   61.27    4.40
   7  -9 -20   63.09    4.30
   7  -9 -19    4.01    3.44
   7  -9 -19    2.68    3.25
   7  -9 -18   69.59    4.49
   7  -9 -18   67.11    4.68
   7  -9 -17    3.35    3.06
   7  -9 -17    7.84    3.15
   7  -9 -16  164.99    6.98
   7  -9 -16  157.54    6.60
   7  -9 -15   28.20    3.54
   7  -9 -15   31.93    3.73
   7  -9 -14 1082.11   33.46
   7  -9 -14 1143.29   35.18
  -7   9  13   65.00    4.21
   7  -9 -13   66.91    4.21
  -7   9  12  616.48   19.98
   7  -9 -12  613.71   19.79
  -7   9  11  312.21   11.28
   7  -9 -11  299.11   10.99
  -7   9  10   79.44    5.07
   7  -9 -10   78.77    4.88
  -7   9   9   37.47    4.01
   7  -9  -9   29.25    3.73
  -7   9   8  174.65    7.74
   7  -9  -8  173.88    7.55
  -7   9   7  184.40    7.93
   7  -9  -7  188.41    7.93
  -7   9   6  499.38   16.82
   7  -9  -6  460.95   15.77
  -7   9   5  255.81   10.04
   7  -9  -5  243.57    9.56
  -7   9   4 1348.81   41.68
   7  -9  -4 1386.09   42.73
  -7   9   3    6.40    3.54
   7  -9  -3    6.21    3.54
  -7   9   2  235.83    9.37
   7  -9  -2  244.81    9.75
  -7   9   1   92.44    5.64
   7  -9  -1   86.32    5.35
  -7   9   0  515.53   17.40
   7  -9   0  518.30   17.68
  -7   9  -1   23.61    3.73
   7  -9   1   22.94    3.54
  -7   9  -2  930.21   29.35
   7  -9   2  963.57   30.40
  -7   9  -3   68.44    4.78
   7  -9   3   68.83    5.07
  -7   9  -4  289.84   10.99
   7  -9   4  308.57   11.28
  -7   9  -5   17.97    3.73
   7  -9   5   22.08    4.11
  -7   9  -6    0.19    3.54
   7  -9   6   -4.01    4.11
  -7   9  -7   10.99    3.44
   7  -9   7    4.78    3.44
  -7   9  -8  750.50   23.90
   7  -9   8  767.80   24.57
  -7   9  -9   -1.53    3.44
   7  -9   9    5.54    3.54
  -7   9 -10  373.58   13.10
   7  -9  10  372.43   12.91
  -7   9 -11    0.10    3.35
   7  -9  11    4.78    3.63
  -7   9 -12   -1.91    3.73
   7  -9  12    2.96    3.92
  -7   9 -13   11.18    4.11
   7  -9  13   12.33    4.59
  -7   9 -14   67.68    5.54
   7  -9  14   73.13    5.93
   8 -10 -20   10.42    3.92
   8 -10 -20    9.08    4.40
   8 -10 -19   31.16    3.92
   8 -10 -19   42.83    4.59
   8 -10 -18  115.09    6.12
   8 -10 -18  125.99    6.12
   8 -10 -17   11.38    3.73
   8 -10 -17   15.39    3.44
   8 -10 -16  264.22    9.75
   8 -10 -16  257.81    9.56
   8 -10 -15   31.93    3.73
   8 -10 -15   35.46    4.01
   8 -10 -14    0.57    3.54
   8 -10 -14   -0.57    2.96
  -8  10  13   16.82    3.73
   8 -10 -13    6.60    3.44
  -8  10  12  174.17    7.55
   8 -10 -12  172.64    7.46
  -8  10  11   41.01    4.11
   8 -10 -11   52.38    4.30
  -8  10  10  359.33   12.81
   8 -10 -10  352.74   12.62
  -8  10   9   64.33    4.88
   8 -10  -9   56.11    4.59
  -8  10   8  294.52   11.09
   8 -10  -8  304.65   11.38
  -8  10   7  125.90    6.69
   8 -10  -7  115.09    6.21
  -8  10   6  382.66   13.57
   8 -10  -6  401.59   14.15
  -8  10   5  144.06    7.07
   8 -10  -5  144.63    7.07
  -8  10   4  672.88   21.99
   8 -10  -4  686.45   22.27
  -8  10   3  190.42    8.32
   8 -10  -3  194.44    8.41
  -8  10   2 1171.01   36.42
   8 -10  -2 1170.06   36.52
  -8  10   1   18.35    3.92
   8 -10  -1   15.39    3.82
  -8  10   0  383.71   13.77
   8 -10   0  378.16   13.67
  -8  10  -1  768.76   24.76
   8 -10   1  777.07   24.76
  -8  10  -2   93.59    5.54
   8 -10   2   85.56    5.83
  -8  10  -3  276.45   10.52
   8 -10   3  265.46   10.52
  -8  10  -4  479.40   16.25
   8 -10   4  496.60   16.82
  -8  10  -5   15.20    3.73
   8 -10   5   13.38    4.49
  -8  10  -6  235.54    9.27
   8 -10   6  208.68    8.32
  -8  10  -7   43.69    4.30
   8 -10   7   44.45    4.59
  -8  10  -8    2.49    3.35
   8 -10   8    4.11    3.54
  -8  10  -9  347.10   12.33
   8 -10   9  343.75   12.04
  -8  10 -10   59.46    4.68
   8 -10  10   53.82    4.88
  -8  10 -11   15.68    4.21
   8 -10  11   12.24    4.30
  -8  10 -12   70.93    5.45
   8 -10  12   84.41    5.54
  -8  10 -13    6.21    4.59
   8 -10  13    2.96    4.88
   9 -11 -20    2.29    4.59
   9 -11 -20   -1.43    4.40
   9 -11 -19   16.92    4.30
   9 -11 -19   16.25    4.11
   9 -11 -18    5.07    4.11
   9 -11 -18    0.29    3.54
   9 -11 -16    0.48    3.25
   9 -11 -16    9.85    3.35
   9 -11 -15  124.17    6.21
   9 -11 -15  126.28    6.40
  -9  11  14   25.43    3.73
   9 -11 -14   21.70    3.82
  -9  11  13   24.47    3.73
   9 -11 -13   19.31    3.82
  -9  11  12   21.70    4.30
   9 -11 -12   27.24    4.11
  -9  11  11  347.67   12.52
   9 -11 -11  374.91   13.19
  -9  11  10   52.19    4.49
   9 -11 -10   45.69    4.49
  -9  11   9  426.53   15.01
   9 -11  -9  413.15   14.43
  -9  11   8   57.83    4.97
   9 -11  -8   55.16    4.68
  -9  11   7  622.98   20.65
   9 -11  -7  665.90   21.80
  -9  11   6   81.06    5.45
   9 -11  -6   89.86    5.64
  -9  11   5   41.30    4.59
   9 -11  -5   32.79    4.21
  -9  11   4   49.80    4.78
   9 -11  -4   52.96    4.78
  -9  11   3  375.11   13.57
   9 -11  -3  355.60   13.10
  -9  11   2  796.57   25.71
   9 -11  -2  753.84   24.18
  -9  11   1  265.46   10.42
   9 -11  -1  284.20   11.18
  -9  11   0   48.27    4.59
   9 -11   0   39.48    4.59
  -9  11  -1   19.69    3.92
   9 -11   1   22.46    4.01
  -9  11  -2    6.21    3.44
   9 -11   2    4.59    3.92
  -9  11  -3  333.71   12.14
   9 -11   3  330.75   12.04
  -9  11  -4   30.78    4.01
   9 -11   4   19.12    4.30
  -9  11  -5  323.20   11.85
   9 -11   5  311.35   11.38
  -9  11  -6    2.39    3.44
   9 -11   6    3.15    4.21
  -9  11  -7    1.34    3.54
   9 -11   7   -2.68    3.25
  -9  11  -8   -1.72    3.73
   9 -11   8   -2.68    3.25
  -9  11  -9   63.00    4.97
   9 -11   9   58.22    4.68
  -9  11 -10    0.86    3.92
   9 -11  10    2.10    4.21
  -9  11 -11  205.43    8.79
   9 -11  11  183.82    8.13
  10 -12 -19   17.02    4.21
  10 -12 -19   17.30    4.49
  10 -12 -18  113.28    6.40
  10 -12 -18  112.13    6.21
  10 -12 -17    3.06    4.11
  10 -12 -17    6.69    3.73
  10 -12 -16  134.59    6.69
  10 -12 -16  125.32    6.40
 -10  12  15   91.29    5.54
  10 -12 -15   92.82    5.74
 -10  12  14   58.02    4.59
  10 -12 -14   61.56    4.59
 -10  12  13  282.67   10.80
  10 -12 -13  264.79   10.13
 -10  12  12  236.02    9.46
  10 -12 -12  211.93    8.70
 -10  12  11   18.26    3.92
  10 -12 -11   30.40    4.11
 -10  12  10   45.41    4.68
  10 -12 -10   44.36    4.68
 -10  12   9   12.24    4.11
  10 -12  -9    0.67    3.54
 -10  12   8   27.34    4.40
  10 -12  -8   31.74    4.30
 -10  12   7  583.69   19.41
  10 -12  -7  597.45   19.88
 -10  12   6   -3.25    3.63
  10 -12  -6    2.29    3.73
 -10  12   5  359.43   13.19
  10 -12  -5  360.38   13.29
 -10  12   4   51.72    4.78
  10 -12  -4   63.38    5.16
 -10  12   3   -1.72    3.54
  10 -12  -3    3.06    3.73
 -10  12   2  611.70   20.27
  10 -12  -2  621.64   20.36
 -10  12   1  249.50   10.04
  10 -12  -1  235.92    9.85
 -10  12   0    1.15    3.63
  10 -12   0   10.71    3.73
 -10  12  -1  438.01   15.20
  10 -12   1  450.62   15.49
 -10  12  -2   22.75    4.21
  10 -12   2    5.26    4.30
 -10  12  -3  215.85    8.89
  10 -12   3  238.31    9.27
 -10  12  -4  194.72    8.32
  10 -12   4  202.18    8.60
 -10  12  -5    0.29    3.92
  10 -12   5    1.15    3.92
 -10  12  -6    9.27    3.54
  10 -12   6    5.74    4.11
 -10  12  -7  226.27    8.99
  10 -12   7  233.44    9.27
 -10  12  -8   79.63    5.35
  10 -12   8   67.87    4.88
 -10  12  -9   98.94    5.93
  10 -12   9   96.45    6.02
 -10  12 -10    3.54    3.82
  10 -12  10    0.96    4.21
  11 -13 -19    6.50    4.59
  11 -13 -19   16.25    5.26
  11 -13 -18  137.18    7.27
  11 -13 -18  128.09    6.79
  11 -13 -17   42.16    4.88
  11 -13 -17   48.66    4.68
  11 -13 -16   99.99    5.93
  11 -13 -16   95.40    5.64
 -11  13  15    1.15    3.82
  11 -13 -15   -3.25    3.73
 -11  13  14  362.11   13.00
  11 -13 -14  386.29   13.38
 -11  13  13    2.87    3.54
  11 -13 -13    9.85    3.82
 -11  13  12   57.36    4.88
  11 -13 -12   62.80    4.78
 -11  13  11  310.49   11.47
  11 -13 -11  284.96   10.71
 -11  13  10    9.65    3.92
  11 -13 -10   13.67    3.63
 -11  13   9    1.15    3.54
  11 -13  -9   -0.10    3.54
 -11  13   8  134.79    6.98
  11 -13  -8  163.75    7.55
 -11  13   7   27.44    4.30
  11 -13  -7   14.15    3.82
 -11  13   6  537.23   18.07
  11 -13  -6  507.41   17.21
 -11  13   5  122.45    6.69
  11 -13  -5  120.64    6.40
 -11  13   4    7.27    3.82
  11 -13  -4    6.40    3.82
 -11  13   3  142.15    7.07
  11 -13  -3  136.98    6.88
 -11  13   2  115.48    6.21
  11 -13  -2  121.98    6.12
 -11  13   1   43.49    4.49
  11 -13  -1   47.03    5.07
 -11  13   0  234.01    9.56
  11 -13   0  250.36    9.65
 -11  13  -1    2.29    3.54
  11 -13   1    2.10    3.73
 -11  13  -2  244.91    9.56
  11 -13   2  242.90    9.85
 -11  13  -3   22.75    4.01
  11 -13   3   25.43    4.01
 -11  13  -4   33.36    4.21
  11 -13   4   36.04    4.30
 -11  13  -5    2.77    3.63
  11 -13   5    5.45    3.92
 -11  13  -6  214.51    8.79
  11 -13   6  197.69    8.32
 -11  13  -7   52.00    4.68
  11 -13   7   47.41    4.88
 -11  13  -8   82.78    5.45
  11 -13   8   99.89    5.74
  12 -14 -18   67.68    6.02
  12 -14 -18   58.50    5.45
  12 -14 -17    5.26    4.30
  12 -14 -17    2.29    4.01
 -12  14  16  135.93    7.17
  12 -14 -16  106.87    6.12
 -12  14  15   16.16    4.11
  12 -14 -15   18.35    4.01
 -12  14  14   17.30    4.21
  12 -14 -14   10.52    3.82
 -12  14  13   11.09    4.21
  12 -14 -13    9.08    4.01
 -12  14  12  174.65    7.74
  12 -14 -12  174.17    7.74
 -12  14  11    6.50    3.54
  12 -14 -11   -4.40    3.63
 -12  14  10  448.90   15.29
  12 -14 -10  413.82   14.34
 -12  14   9   -4.40    3.44
  12 -14  -9   -3.63    3.54
 -12  14   8   13.96    3.82
  12 -14  -8   19.69    3.92
 -12  14   7   47.22    4.88
  12 -14  -7   30.88    4.30
 -12  14   6  139.57    6.79
  12 -14  -6  129.81    6.50
 -12  14   5    8.51    3.92
  12 -14  -5    7.17    3.92
 -12  14   4  409.33   14.24
  12 -14  -4  415.54   14.43
 -12  14   3    1.34    3.54
  12 -14  -3   -4.40    3.73
 -12  14   2  116.34    6.02
  12 -14  -2  117.39    5.93
 -12  14   1   39.86    4.21
  12 -14  -1   34.60    4.59
 -12  14   0   19.02    3.82
  12 -14   0   25.52    4.49
 -12  14  -1    5.74    3.63
  12 -14   1    3.73    3.63
 -12  14  -2  160.40    7.17
  12 -14   2  162.60    7.36
 -12  14  -3   -2.10    3.44
  12 -14   3    2.20    3.73
 -12  14  -4  122.93    6.21
  12 -14   4  135.65    6.50
 -12  14  -5   38.14    4.40
  12 -14   5   39.77    4.49
 -12  14  -6   19.88    3.92
  12 -14   6    4.97    3.73
 -13  15  16   31.16    4.88
  13 -15 -16   22.85    4.01
 -13  15  15    6.12    4.11
  13 -15 -15    5.16    3.92
 -13  15  14   17.02    3.92
  13 -15 -14   18.45    4.01
 -13  15  13   63.66    5.16
  13 -15 -13   71.98    5.07
 -13  15  12   44.26    4.21
  13 -15 -12   33.27    4.40
 -13  15  11  253.23    9.94
  13 -15 -11  263.93   10.13
 -13  15  10   18.35    4.11
  13 -15 -10   26.86    4.21
 -13  15   9  115.00    6.31
  13 -15  -9  108.69    6.02
 -13  15   8   85.46    5.35
  13 -15  -8   80.49    5.45
 -13  15   7   77.24    5.26
  13 -15  -7   73.22    5.35
 -13  15   6  157.44    7.27
  13 -15  -6  127.33    6.50
 -13  15   5   45.69    4.49
  13 -15  -5   41.97    4.59
 -13  15   4   13.67    3.82
  13 -15  -4   17.88    3.82
 -13  15   3  284.01   10.71
  13 -15  -3  276.07   10.32
 -13  15   2   86.51    5.35
  13 -15  -2   81.73    5.64
 -13  15   1    3.63    3.44
  13 -15  -1    3.92    4.01
 -13  15   0  101.71    5.83
  13 -15   0   91.39    5.64
 -13  15  -1  103.53    5.74
  13 -15   1   94.25    5.93
 -13  15  -2    0.29    3.63
  13 -15   2    3.44    3.73
 -13  15  -3   30.88    4.11
  13 -15   3   36.90    4.21
 -13  15  -4    2.68    4.01
  13 -15   4    0.96    3.73
 -14  16  14    2.29    3.82
  14 -16 -14   -0.29    3.82
 -14  16  13   59.17    4.78
  14 -16 -13   61.94    4.68
 -14  16  12    7.93    3.73
  14 -16 -12    1.43    3.63
 -14  16  11    1.91    3.82
  14 -16 -11   -0.48    3.54
 -14  16  10   26.67    4.01
  14 -16 -10   31.74    4.21
 -14  16   9   67.87    4.78
  14 -16  -9   73.22    5.07
 -14  16   8   11.76    3.73
  14 -16  -8   14.34    4.11
 -14  16   7  138.51    6.60
  14 -16  -7  132.97    6.79
 -14  16   6   61.75    4.78
  14 -16  -6   68.54    4.97
 -14  16   5  171.68    7.65
  14 -16  -5  160.40    7.74
 -14  16   4   22.18    4.11
  14 -16  -4   17.49    3.92
 -14  16   3   76.67    5.16
  14 -16  -3   60.51    4.97
 -14  16   2    9.27    3.92
  14 -16  -2    5.93    3.92
 -14  16   1  133.35    6.40
  14 -16  -1  132.11    6.21
 -14  16   0    9.46    3.73
  14 -16   0   15.39    4.40
 -14  16  -1   53.63    4.49
  14 -16   1   57.64    4.97
 -15  17  11   49.33    4.40
  15 -17 -11   58.89    4.68
 -15  17  10    9.37    3.92
  15 -17 -10   16.63    3.82
 -15  17   9    6.50    3.54
  15 -17  -9    2.96    3.54
 -15  17   8   65.96    4.68
  15 -17  -8   53.63    4.88
 -15  17   7    6.60    3.44
  15 -17  -7    2.77    3.63
 -15  17   6    2.39    3.44
  15 -17  -6   -1.05    3.54
 -15  17   5   64.91    4.78
  15 -17  -5   57.45    4.59
 -15  17   4   -2.10    3.35
  15 -17  -4   -0.19    3.73
 -15  17   3   99.89    5.54
  15 -17  -3   97.79    5.45
  18 -14  -3    0.29    3.73
 -18  14   3    6.12    3.54
  18 -14  -4   45.41    4.30
 -18  14   4   41.87    4.21
  18 -14  -5    0.00    3.44
 -18  14   5   -1.72    3.35
  18 -14  -6  168.05    7.17
 -18  14   6  167.67    7.36
  18 -14  -7   31.07    4.11
 -18  14   7   26.00    3.92
  18 -14  -8   38.52    4.11
 -18  14   8   26.77    3.92
  18 -14  -9    0.10    3.54
 -18  14   9   -7.93    3.54
  18 -14 -10  107.35    6.12
 -18  14  10  103.91    5.64
  18 -14 -11   36.33    4.21
 -18  14  11   29.35    4.11
  18 -14 -12  223.02    8.79
 -18  14  12  225.03    8.70
  18 -14 -13    4.97    3.44
 -18  14  13    0.10    3.35
  18 -14 -14    0.67    3.82
 -18  14  14    8.51    3.63
  17 -13   0   66.44    5.07
 -17  13   0   63.47    4.88
  17 -13  -1    4.59    3.82
 -17  13   1    0.67    3.44
  17 -13  -2   99.80    5.64
 -17  13   2  112.99    5.93
  17 -13  -3    3.54    3.44
 -17  13   3    1.24    3.44
  17 -13  -4  101.62    5.83
 -17  13   4   92.92    5.45
  17 -13  -5    2.29    3.63
 -17  13   5    6.12    3.54
  17 -13  -6   59.65    4.78
 -17  13   6   48.47    4.78
  17 -13  -7    1.91    3.92
 -17  13   7    0.19    3.63
  17 -13  -8  189.56    8.13
 -17  13   8  171.88    7.74
  17 -13  -9   22.75    4.40
 -17  13   9   23.99    4.11
  17 -13 -10   57.45    4.78
 -17  13  10   68.92    4.88
  17 -13 -11   63.95    4.88
 -17  13  11   56.88    4.68
  17 -13 -12   17.59    3.92
 -17  13  12   12.04    3.63
  17 -13 -13    3.44    3.63
 -17  13  13    6.60    3.54
  17 -13 -14   86.22    5.35
 -17  13  14   86.13    5.26
  17 -13 -15   12.04    3.73
  17 -13 -16  152.95    6.98
  17 -13 -16  158.11    7.17
  16 -12   3   40.72    4.49
 -16  12  -3   54.49    4.59
  16 -12   2   84.98    5.64
 -16  12  -2   86.42    5.35
  16 -12   1    3.54    3.92
 -16  12  -1    2.49    4.01
  16 -12   0   13.77    3.82
 -16  12   0    8.60    3.92
  16 -12  -1  190.13    7.93
 -16  12   1  190.80    8.03
  16 -12  -2   29.54    4.21
 -16  12   2   32.88    4.21
  16 -12  -3  158.78    7.46
 -16  12   3  172.83    7.65
  16 -12  -4   68.92    5.07
 -16  12   4   53.15    4.78
  16 -12  -5   10.42    3.82
 -16  12   5   13.96    3.63
  16 -12  -6  243.57    9.85
 -16  12   6  223.78    8.99
  16 -12  -7  131.15    6.50
 -16  12   7  142.62    6.98
  16 -12  -8   10.04    4.01
 -16  12   8   -1.15    3.63
  16 -12  -9  223.69    8.89
 -16  12   9  229.61    9.08
  16 -12 -10   15.39    4.01
 -16  12  10   13.10    3.92
  16 -12 -11   45.88    4.40
 -16  12  11   42.25    4.59
  16 -12 -12   29.54    4.11
 -16  12  12   28.68    4.21
  16 -12 -13   29.63    4.01
 -16  12  13   28.01    4.11
  16 -12 -14   22.18    3.82
 -16  12  14   14.72    4.01
  16 -12 -15  453.30   15.39
  16 -12 -15  433.42   14.72
  16 -12 -16    3.44    3.63
  16 -12 -16    2.29    3.92
  16 -12 -17   96.36    5.64
  16 -12 -17  101.23    5.83
  16 -12 -18   27.72    4.30
  16 -12 -18   30.78    4.30
  15 -11   5  118.63    6.40
 -15  11  -5  110.41    6.12
  15 -11   4    7.46    3.82
 -15  11  -4    6.40    3.82
  15 -11   3  315.74   11.47
 -15  11  -3  328.65   11.95
  15 -11   2   -1.63    3.73
 -15  11  -2    3.35    3.73
  15 -11   1  137.65    6.40
 -15  11  -1  135.26    6.50
  15 -11   0   46.65    4.78
 -15  11   0   52.67    4.40
  15 -11  -1   34.80    4.21
 -15  11   1   44.93    4.68
  15 -11  -2  102.86    5.83
 -15  11   2  109.93    6.02
  15 -11  -3  362.20   12.81
 -15  11   3  332.18   11.95
  15 -11  -4   11.09    4.30
 -15  11   4    7.07    3.63
  15 -11  -5  295.29   10.80
 -15  11   5  286.87   10.99
  15 -11  -6    7.55    3.73
 -15  11   6   14.91    3.73
  15 -11  -7   92.63    5.54
 -15  11   7   96.45    5.93
  15 -11  -8   58.12    4.88
 -15  11   8   54.87    4.78
  15 -11  -9   28.01    4.30
 -15  11   9   45.88    4.59
  15 -11 -10    1.63    3.82
 -15  11  10    2.49    3.63
  15 -11 -11   63.38    4.88
 -15  11  11   65.67    5.07
  15 -11 -12    1.24    3.63
 -15  11  12    1.53    3.54
  15 -11 -13  476.53   16.06
 -15  11  13  496.22   16.92
  15 -11 -14   97.03    5.74
 -15  11  14  100.85    6.02
  15 -11 -15   18.35    4.21
  15 -11 -15   13.29    3.82
  15 -11 -16    6.12    3.73
  15 -11 -16    2.68    3.82
  15 -11 -17  123.51    6.69
  15 -11 -17  116.62    6.12
  15 -11 -18   11.76    3.92
  15 -11 -18    4.97    3.82
  15 -11 -19  251.50    9.85
  15 -11 -19  256.57   10.04
  14 -10   7   54.97    5.07
 -14  10  -7   63.66    5.07
  14 -10   6    4.78    3.92
 -14  10  -6    3.82    4.01
  14 -10   5   10.04    4.01
 -14  10  -5    8.32    3.63
  14 -10   4  242.90    9.37
 -14  10  -4  253.51    9.85
  14 -10   3   -0.38    3.82
 -14  10  -3   -4.49    3.44
  14 -10   2  108.02    6.02
 -14  10  -2   97.22    5.74
  14 -10   1   12.71    3.82
 -14  10  -1   15.87    3.73
  14 -10   0   13.96    3.82
 -14  10   0   16.44    3.92
  14 -10  -1   93.39    5.74
 -14  10   1   93.59    5.64
  14 -10  -2   51.24    4.97
 -14  10   2   53.53    4.59
  14 -10  -3   54.97    4.88
 -14  10   3   73.22    5.16
  14 -10  -4   49.23    4.97
 -14  10   4   46.94    4.68
  14 -10  -5   48.56    4.30
 -14  10   5   56.50    4.78
  14 -10  -6   19.98    3.82
 -14  10   6   18.07    4.01
  14 -10  -7   80.68    5.54
 -14  10   7   79.63    5.54
  14 -10  -8   -2.20    3.63
 -14  10   8   -2.58    3.63
  14 -10  -9   15.01    4.01
 -14  10   9   26.77    4.30
  14 -10 -10   49.33    4.88
 -14  10  10   52.48    4.68
  14 -10 -11    5.64    3.73
 -14  10  11    6.40    3.73
  14 -10 -12   61.18    5.07
 -14  10  12   63.19    5.07
  14 -10 -13   20.07    3.92
 -14  10  13   18.93    4.21
  14 -10 -14   38.81    4.30
 -14  10  14   51.81    4.30
  14 -10 -15  147.69    6.98
  14 -10 -15  143.20    6.98
  14 -10 -16  100.75    5.74
  14 -10 -16  103.05    6.02
  14 -10 -17    7.93    3.63
  14 -10 -17    4.40    4.11
  14 -10 -18  159.83    7.36
  14 -10 -18  163.27    7.46
  14 -10 -19   -1.72    3.63
  14 -10 -19    2.68    3.82
  14 -10 -20   67.30    5.26
  14 -10 -20   69.30    5.54
  13  -9   9   15.68    4.97
 -13   9  -9    5.35    4.40
  13  -9   8  134.98    6.98
 -13   9  -8  145.68    7.17
  13  -9   7    3.73    4.30
 -13   9  -7    0.48    3.73
  13  -9   6  192.33    8.13
 -13   9  -6  199.79    8.22
  13  -9   5   44.74    4.40
 -13   9  -5   51.91    4.30
  13  -9   4  118.34    6.02
 -13   9  -4  109.17    6.02
  13  -9   3   17.78    4.11
 -13   9  -3   23.71    3.92
  13  -9   2   85.17    5.07
 -13   9  -2   89.38    5.54
  13  -9   1   59.55    5.07
 -13   9  -1   58.69    4.78
  13  -9   0 1271.38   39.19
 -13   9   0 1230.28   38.14
  13  -9  -1  158.11    7.65
 -13   9   1  158.78    7.46
  13  -9  -2   57.36    5.07
 -13   9   2   54.11    4.49
  13  -9  -3  571.07   18.93
 -13   9   3  564.95   18.93
  13  -9  -4   31.26    4.59
 -13   9   4   32.69    4.21
  13  -9  -5   17.88    4.11
 -13   9   5   17.40    4.01
  13  -9  -6  210.50    9.08
 -13   9   6  210.30    8.99
  13  -9  -7   39.96    4.59
 -13   9   7   49.61    4.78
  13  -9  -8  225.60    9.56
 -13   9   8  215.75    9.18
  13  -9  -9    6.40    3.82
 -13   9   9   10.90    3.82
  13  -9 -10  230.67    9.65
 -13   9  10  214.99    8.99
  13  -9 -11   85.17    5.64
 -13   9  11   89.09    5.64
  13  -9 -12   13.67    3.73
 -13   9  12   16.06    3.92
  13  -9 -13   11.38    3.73
 -13   9  13   13.77    3.63
  13  -9 -14   96.55    5.64
  13  -9 -14  105.73    5.93
  13  -9 -15    4.78    3.54
  13  -9 -15    3.73    3.82
  13  -9 -16   80.01    5.35
  13  -9 -16   77.72    5.16
  13  -9 -17    9.46    3.63
  13  -9 -17    4.97    3.44
  13  -9 -18    4.21    3.54
  13  -9 -18   -1.91    3.63
  13  -9 -19   30.49    4.21
  13  -9 -19   18.93    4.59
  13  -9 -20  147.88    6.98
  13  -9 -20  144.92    7.07
  13  -9 -21   21.60    4.78
  13  -9 -21   23.90    4.68
  12  -8  10    5.07    4.97
 -12   8 -10    7.36    4.21
  12  -8   9   38.62    4.97
 -12   8  -9   30.97    4.49
  12  -8   8   32.69    4.78
 -12   8  -8   40.44    4.40
  12  -8   7  171.40    7.55
 -12   8  -7  164.42    7.27
  12  -8   6  257.43    9.75
 -12   8  -6  244.05    9.56
  12  -8   5   29.25    4.30
 -12   8  -5   16.82    4.30
  12  -8   4  133.93    6.79
 -12   8  -4  124.46    6.31
  12  -8   3   57.26    4.40
 -12   8  -3   59.84    4.68
  12  -8   2   19.02    4.30
 -12   8  -2   13.10    4.11
  12  -8   1  309.53   11.85
 -12   8  -1  309.15   11.47
  12  -8   0   86.03    5.64
 -12   8   0   66.05    4.97
  12  -8  -1  273.30   10.99
 -12   8   1  280.66   10.99
  12  -8  -2  171.40    7.65
 -12   8   2  165.95    7.65
  12  -8  -3  143.01    6.98
 -12   8   3  152.66    7.27
  12  -8  -4  637.51   21.22
 -12   8   4  621.07   20.65
  12  -8  -5 1057.26   32.98
 -12   8   5 1050.56   32.88
  12  -8  -6  122.26    6.98
 -12   8   6  118.25    6.50
  12  -8  -7   70.07    5.16
 -12   8   7   73.32    5.26
  12  -8  -8   29.16    4.49
 -12   8   8   44.74    4.59
  12  -8  -9  167.96    7.74
 -12   8   9  173.98    7.93
  12  -8 -10  726.03   23.52
 -12   8  10  762.16   24.76
  12  -8 -11   10.71    3.63
 -12   8  11    2.96    3.54
  12  -8 -12  152.66    7.27
 -12   8  12  171.40    8.03
  12  -8 -13  141.57    6.88
  12  -8 -13  155.43    7.55
  12  -8 -14   55.73    4.59
  12  -8 -14   56.30    4.78
  12  -8 -15  232.58    9.27
  12  -8 -15  255.23    9.85
  12  -8 -16   45.98    4.68
  12  -8 -16   40.82    4.30
  12  -8 -17    1.63    3.63
  12  -8 -17    3.73    3.82
  12  -8 -18  251.22    9.65
  12  -8 -18  235.06    9.46
  12  -8 -19   17.30    4.01
  12  -8 -19   17.21    4.30
  12  -8 -20   91.67    5.54
  12  -8 -20   95.11    6.02
  12  -8 -21   16.92    4.59
  12  -8 -21   20.55    4.68
  12  -8 -22   18.74    5.26
  12  -8 -22   25.33    5.16
  11  -7  11   65.77    5.64
 -11   7 -11   66.63    5.07
  11  -7  10    3.63    4.11
 -11   7 -10    1.72    4.11
  11  -7   9   55.06    4.97
 -11   7  -9   54.20    4.68
  11  -7   8   41.87    4.40
 -11   7  -8   32.41    3.82
  11  -7   7   51.81    4.49
 -11   7  -7   52.19    4.49
  11  -7   6  407.32   13.96
 -11   7  -6  418.31   14.34
  11  -7   5  289.74   10.61
 -11   7  -5  279.13   10.42
  11  -7   4    5.45    3.73
 -11   7  -4    8.32    3.92
  11  -7   3   56.97    4.68
 -11   7  -3   67.39    4.88
  11  -7   2   27.15    4.40
 -11   7  -2   22.27    3.92
  11  -7   1   46.17    4.49
 -11   7  -1   44.16    4.78
  11  -7   0   30.30    4.01
 -11   7   0   38.91    4.21
  11  -7  -1  103.14    6.12
 -11   7   1  116.15    6.12
  11  -7  -2   -0.76    3.35
 -11   7   2    1.91    3.73
  11  -7  -3 1831.56   55.73
 -11   7   3 1794.28   54.58
  11  -7  -4   80.39    5.45
 -11   7   4   84.22    5.54
  11  -7  -5   96.93    5.83
 -11   7   5  106.01    6.02
  11  -7  -6   44.93    4.49
 -11   7   6   48.47    4.59
  11  -7  -7    3.92    3.54
 -11   7   7    3.82    3.54
  11  -7  -8    4.49    3.44
 -11   7   8   15.77    3.92
  11  -7  -9  813.97   26.00
 -11   7   9  799.25   25.71
  11  -7 -10   -4.11    3.54
 -11   7  10   -2.87    3.44
  11  -7 -11  768.57   24.76
 -11   7  11  749.06   24.28
  11  -7 -12    0.10    3.73
 -11   7  12    4.97    3.06
  11  -7 -13    9.56    3.63
  11  -7 -13   10.42    3.82
  11  -7 -14    0.57    3.54
  11  -7 -14   -1.43    3.25
  11  -7 -15   16.25    3.73
  11  -7 -15   24.38    3.73
  11  -7 -16   83.07    5.16
  11  -7 -16   75.61    5.16
  11  -7 -17  171.88    7.55
  11  -7 -17  180.77    7.84
  11  -7 -18    6.50    3.35
  11  -7 -18   11.47    3.73
  11  -7 -19   66.53    4.68
  11  -7 -19   80.97    5.26
  11  -7 -20   10.42    4.21
  11  -7 -20   12.91    3.92
  11  -7 -21    6.02    3.82
  11  -7 -21   -2.58    4.11
  11  -7 -22    4.88    4.78
  11  -7 -22    4.68    4.40
  10  -6  13  101.33    6.60
 -10   6 -13  105.92    6.31
  10  -6  12   46.36    5.45
 -10   6 -12   45.69    4.78
  10  -6  11    0.00    4.01
 -10   6 -11   -0.38    3.73
  10  -6  10   31.74    4.40
 -10   6 -10   16.63    3.73
  10  -6   9  150.56    6.69
 -10   6  -9  152.76    6.69
  10  -6   8   21.41    3.44
 -10   6  -8   25.05    4.01
  10  -6   7  681.00   21.89
 -10   6  -7  677.85   21.70
  10  -6   6    7.46    3.06
 -10   6  -6   -1.15    2.96
  10  -6   5   90.14    5.64
 -10   6  -5  101.62    5.74
  10  -6   4   31.55    3.63
 -10   6  -4   33.17    4.11
  10  -6   3  257.43    9.94
 -10   6  -3  245.10    9.46
  10  -6   2    3.25    3.54
 -10   6  -2    7.46    3.25
  10  -6   1  414.20   14.15
 -10   6  -1  408.66   14.24
  10  -6   0   47.51    4.59
 -10   6   0   44.45    4.40
  10  -6  -1 1638.46   50.19
 -10   6   1 1651.84   50.38
  10  -6  -2  754.80   24.09
 -10   6   2  780.42   25.05
  10  -6  -3   55.73    4.88
 -10   6   3   61.37    4.68
  10  -6  -4  136.41    6.69
 -10   6   4  130.77    6.50
  10  -6  -5  511.42   17.40
 -10   6   5  512.57   17.21
  10  -6  -6    3.06    3.44
 -10   6   6    4.97    3.54
  10  -6  -7  958.80   30.21
 -10   6   7  964.53   30.59
  10  -6  -8   36.99    4.21
 -10   6   8   45.60    4.40
  10  -6  -9  408.09   14.34
 -10   6   9  373.77   13.48
  10  -6 -10  810.34   25.81
 -10   6  10  803.07   25.62
  10  -6 -11  216.71    8.89
 -10   6  11  222.44    8.99
  10  -6 -12  183.92    7.93
  10  -6 -12  182.39    7.65
  10  -6 -13  724.50   23.23
  10  -6 -13  730.04   23.42
  10  -6 -14    8.99    3.73
  10  -6 -14    8.70    3.25
  10  -6 -15   22.75    3.54
  10  -6 -15   35.75    3.92
  10  -6 -16   93.39    5.26
  10  -6 -16   79.53    5.26
  10  -6 -17    3.73    3.15
  10  -6 -17    8.03    3.73
  10  -6 -18   41.30    4.21
  10  -6 -18   45.50    4.21
  10  -6 -19   19.60    3.73
  10  -6 -19   16.92    3.54
  10  -6 -20   20.65    3.63
  10  -6 -20   18.83    3.82
  10  -6 -21  217.76    8.70
  10  -6 -21  217.38    8.89
  10  -6 -22    5.16    4.49
  10  -6 -22    6.60    4.21
   9  -5  14   86.70    5.26
  -9   5 -14   76.86    5.35
   9  -5  13   17.88    4.40
  -9   5 -13   13.96    4.11
   9  -5  12   19.21    3.82
  -9   5 -12   18.54    3.73
   9  -5  11  163.94    7.07
  -9   5 -11  160.69    6.98
   9  -5  10  160.31    6.88
  -9   5 -10  165.09    6.88
   9  -5   9   18.54    3.54
  -9   5  -9   19.12    3.44
   9  -5   8  195.58    8.22
  -9   5  -8  207.53    8.22
   9  -5   7   52.77    4.11
  -9   5  -7   46.46    4.21
   9  -5   6  494.21   16.63
  -9   5  -6  494.98   16.44
   9  -5   5   45.31    3.92
  -9   5  -5   40.82    3.92
   9  -5   4    6.98    3.06
  -9   5  -4    8.89    3.15
   9  -5   3  576.04   18.93
  -9   5  -3  529.39   17.40
   9  -5   2  966.44   29.92
  -9   5  -2  976.96   30.49
   9  -5   1  322.24   11.47
  -9   5  -1  320.71   11.66
   9  -5   0  830.22   26.48
  -9   5   0  809.96   25.71
   9  -5  -1  818.94   25.91
  -9   5   1  791.70   25.24
   9  -5  -2    4.11    3.44
  -9   5   2    6.69    3.73
   9  -5  -3   71.22    5.07
  -9   5   3   72.46    5.07
   9  -5  -4   17.59    3.82
  -9   5   4   23.71    3.82
   9  -5  -5  306.85   11.38
  -9   5   5  284.48   10.80
   9  -5  -6 4815.96  142.62
  -9   5   6 4833.17  143.29
   9  -5  -7  387.06   13.67
  -9   5   7  406.75   14.24
   9  -5  -8 3641.13  108.31
  -9   5   8 3441.34  102.57
   9  -5  -9  164.80    7.27
  -9   5   9  159.26    7.17
   9  -5 -10  619.54   20.17
  -9   5  10  761.87   24.57
   9  -5 -11  170.63    7.46
   9  -5 -11  171.78    7.36
   9  -5 -12   12.04    3.35
   9  -5 -12   12.04    3.35
   9  -5 -13    5.93    3.06
   9  -5 -13    7.65    3.15
   9  -5 -14 1238.88   38.14
   9  -5 -14 1230.28   37.85
   9  -5 -15  420.89   14.24
   9  -5 -15  402.25   13.86
   9  -5 -16   80.68    5.16
   9  -5 -16   76.00    4.88
   9  -5 -18   30.69    3.82
   9  -5 -18   28.01    3.63
   9  -5 -19   12.24    3.44
   9  -5 -19    9.65    3.25
   9  -5 -20  258.87    9.56
   9  -5 -20  261.06    9.85
   9  -5 -21   -4.01    3.63
   9  -5 -21    0.48    3.54
   9  -5 -22    5.93    4.40
   9  -5 -22    8.13    4.21
   8  -4  14   13.19    3.06
  -8   4 -14   13.19    3.06
   8  -4  13   56.40    4.01
  -8   4 -13   62.90    4.49
   8  -4  12  214.89    7.93
  -8   4 -12  221.78    8.22
   8  -4  11  120.64    5.54
  -8   4 -11  120.45    5.54
   8  -4  10  358.86   12.33
  -8   4 -10  405.70   13.38
   8  -4   9   39.77    3.82
  -8   4  -9   44.16    3.82
   8  -4   8    5.45    2.87
  -8   4  -8    3.82    3.15
   8  -4   7  116.34    5.74
  -8   4  -7  120.26    5.74
   8  -4   6   31.35    3.54
  -8   4  -6   31.64    3.54
   8  -4   5  132.87    5.83
  -8   4  -5  154.96    6.60
   8  -4   4  644.20   21.03
  -8   4  -4  627.09   20.07
   8  -4   3  186.79    7.74
  -8   4  -3  192.62    7.74
   8  -4   2  142.72    6.40
  -8   4  -2  142.82    6.40
   8  -4   1  945.03   29.73
  -8   4  -1  883.09   27.63
   8  -4   0  293.76   10.71
  -8   4   0  291.84   10.71
   8  -4  -1   48.27    4.11
  -8   4   1   53.53    4.40
   8  -4  -2   11.76    3.44
  -8   4   2   11.76    3.44
   8  -4  -3   58.60    4.40
  -8   4   3   67.30    4.78
   8  -4  -4 1165.28   36.04
  -8   4   4 1140.42   35.37
   8  -4  -5  417.36   14.24
  -8   4   5  443.17   15.20
   8  -4  -6  486.28   16.35
  -8   4   6  482.84   16.25
   8  -4  -7 1892.74   57.26
  -8   4   7 1827.73   55.25
   8  -4  -8 2069.58   62.33
  -8   4   8 2040.90   61.47
   8  -4  -9 1382.27   42.25
   8  -4 -10  750.50   23.80
   8  -4 -10  751.17   23.80
   8  -4 -11   45.88    4.21
   8  -4 -11   43.97    3.92
   8  -4 -12  138.80    6.50
   8  -4 -12  145.40    6.60
   8  -4 -13  605.58   19.60
   8  -4 -13  613.90   19.88
   8  -4 -14  298.34   10.80
   8  -4 -14  287.35   10.52
   8  -4 -15   50.95    4.30
   8  -4 -15   53.72    4.40
   8  -4 -16  762.16   23.90
   8  -4 -16  736.06   23.32
   8  -4 -17   -4.11    3.06
   8  -4 -17    2.29    2.96
   8  -4 -18  136.60    6.21
   8  -4 -18  130.20    5.83
   8  -4 -19   14.34    3.44
   8  -4 -19   15.87    3.35
   8  -4 -20    8.89    3.25
   8  -4 -20    5.07    3.63
   8  -4 -21    2.29    3.25
   8  -4 -21    6.79    3.92
   8  -4 -22   66.91    5.16
   8  -4 -22   72.46    5.35
   7  -3  13  314.21   10.32
  -7   3 -13  295.09    9.85
   7  -3  12  105.44    4.68
  -7   3 -12  113.37    4.97
   7  -3  11  719.05   22.46
  -7   3 -11  680.81   21.22
   7  -3  10   40.72    3.35
  -7   3 -10   39.48    3.25
   7  -3   9  130.10    5.54
  -7   3  -9  134.50    5.74
   7  -3   8   78.96    4.21
  -7   3  -8   78.29    4.40
   7  -3   7  280.37   10.04
  -7   3  -7  287.54    9.94
   7  -3   6  208.01    7.65
  -7   3  -6  197.02    7.55
   7  -3   5 1131.82   34.60
  -7   3  -5 1129.91   34.41
   7  -3   4   80.39    4.40
  -7   3  -4   77.72    4.30
   7  -3   3 1046.74   32.02
  -7   3  -3 1049.61   32.21
   7  -3   2  548.70   17.88
  -7   3  -2  522.89   17.02
   7  -3   1  363.63   12.62
  -7   3  -1  354.46   12.24
   7  -3   0  199.50    7.93
  -7   3   0  211.55    8.22
   7  -3  -1   24.28    3.73
  -7   3   1   16.35    3.54
   7  -3  -2    3.54    3.35
  -7   3   2    0.76    3.25
   7  -3  -3 1961.56   59.08
  -7   3   3 1941.49   58.41
   7  -3  -4   26.29    4.01
  -7   3   4   21.80    3.73
   7  -3  -5   90.81    5.35
  -7   3   5   90.43    5.45
   7  -3  -6 1389.92   42.35
  -7   3   6 1365.06   41.77
   7  -3  -7 1165.28   35.85
  -7   3   7 1220.72   37.57
   7  -3  -8  977.91   30.40
   7  -3  -8  938.72   29.25
   7  -3  -9  816.36   25.62
   7  -3  -9  809.00   25.43
   7  -3 -10   77.72    4.59
   7  -3 -10   84.22    4.78
   7  -3 -11  500.71   16.35
   7  -3 -11  493.35   16.25
   7  -3 -12  392.03   13.29
   7  -3 -12  383.52   13.10
   7  -3 -13  128.57    5.93
   7  -3 -13  123.41    5.83
   7  -3 -14  750.79   23.71
   7  -3 -14  682.72   21.70
   7  -3 -15  583.69   18.74
   7  -3 -15  547.08   17.78
   7  -3 -16  131.63    6.12
   7  -3 -16  141.09    6.21
   7  -3 -17  810.63   25.33
   7  -3 -17  752.12   23.61
   7  -3 -18   15.10    3.06
   7  -3 -18   16.16    3.15
   7  -3 -19   33.27    3.73
   7  -3 -19   22.18    3.35
   7  -3 -20  159.16    6.60
   7  -3 -20  160.98    6.98
   7  -3 -21   23.71    3.63
   7  -3 -21   17.21    3.73
   7  -3 -22   -4.40    3.54
   7  -3 -22    0.29    3.73
  -6   2 -13   95.02    3.54
   6  -2  12   84.70    3.73
  -6   2 -12   83.36    3.63
   6  -2  11  553.58   17.21
  -6   2 -11  530.44   16.63
   6  -2  10  698.78   21.70
  -6   2 -10  724.40   22.37
   6  -2   9 1177.70   35.56
  -6   2  -9 1012.33   30.78
   6  -2   8  285.92    9.85
  -6   2  -8  298.06   10.04
   6  -2   7 1060.12   32.12
  -6   2  -7  985.56   30.11
   6  -2   6    3.15    2.29
  -6   2  -6   -1.34    2.20
   6  -2   5    5.64    2.68
  -6   2  -5    7.27    2.29
   6  -2   4   30.40    2.96
  -6   2  -4   28.77    2.96
   6  -2   3 1976.86   59.17
  -6   2  -3 2013.18   60.13
   6  -2   2   36.90    3.44
  -6   2  -2   29.44    3.25
   6  -2   1 3625.83  107.26
  -6   2  -1 3476.71  103.05
   6  -2   0   68.44    4.30
  -6   2   0   72.94    4.40
   6  -2  -1 3979.53  117.77
  -6   2   1 3890.62  115.28
   6  -2  -2  218.24    8.51
  -6   2   2  225.98    8.70
   6  -2  -3 3674.58  108.98
  -6   2   3 3598.11  106.68
   6  -2  -4   10.90    3.73
  -6   2   4   14.24    3.44
   6  -2  -5 3763.49  111.65
  -6   2   5 3844.74  113.95
   6  -2  -6   90.14    5.26
   6  -2  -7   10.42    3.54
   6  -2  -7   18.45    3.25
   6  -2  -8    6.69    3.06
   6  -2  -8    6.60    2.87
   6  -2  -9  201.03    7.84
   6  -2  -9  228.47    8.70
   6  -2 -10  152.57    6.50
   6  -2 -10  166.81    6.88
   6  -2 -11 1618.39   48.94
   6  -2 -11 1604.05   48.37
   6  -2 -12   26.48    3.35
   6  -2 -12   31.64    3.35
   6  -2 -13  999.90   30.78
   6  -2 -13 1062.99   32.60
   6  -2 -14    8.41    2.49
   6  -2 -14    9.85    2.87
   6  -2 -15   45.60    3.82
   6  -2 -15   33.46    3.35
   6  -2 -16    2.87    2.58
   6  -2 -16    5.26    2.87
   6  -2 -17   68.06    4.01
   6  -2 -17   72.75    4.30
   6  -2 -18   33.94    3.63
   6  -2 -18   44.45    3.54
   6  -2 -19  319.95   10.90
   6  -2 -19  343.27   11.66
   6  -2 -20   30.11    3.73
   6  -2 -20   28.20    3.73
   6  -2 -21  221.30    8.22
   6  -2 -21  219.58    8.22
   6  -2 -22    4.59    3.15
   6  -2 -22    9.37    2.96
  -5   1 -12    3.82    1.15
   5  -1  11   71.41    3.15
  -5   1 -11   59.17    2.87
   5  -1  10 1012.33   30.49
  -5   1 -10 1016.15   30.69
   5  -1   9    1.53    1.91
  -5   1  -9    1.05    1.82
   5  -1   8  924.48   27.91
  -5   1  -8  927.25   28.10
   5  -1   7  121.40    4.68
  -5   1  -7  116.81    4.78
   5  -1   6  107.83    4.49
  -5   1  -6  101.71    4.30
   5  -1   5  156.49    5.74
  -5   1  -5  161.55    5.93
   5  -1   4  892.55   27.15
  -5   1  -4  909.95   27.72
   5  -1   3 1885.09   56.40
  -5   1  -3 1787.58   53.34
   5  -1   2 2666.08   79.15
  -5   1  -2 2745.42   81.45
   5  -1   1 1149.98   34.89
  -5   1  -1 1187.26   35.85
   5  -1   0 1292.41   39.29
  -5   1   0 1302.93   39.38
  -5   1   1 6155.22  181.34
   5  -1  -2 3915.48  115.95
  -5   1   2 3830.40  113.37
   5  -1  -3   -0.57    3.73
  -5   1   3    3.92    3.44
   5  -1  -5   34.80    3.92
   5  -1  -5   30.11    3.73
   5  -1  -6  757.95   23.80
   5  -1  -6  743.90   23.23
   5  -1  -7  278.84    9.94
   5  -1  -7  282.19   10.04
   5  -1  -8  496.22   16.16
   5  -1  -8  470.70   15.49
   5  -1  -9  231.81    8.60
   5  -1  -9  236.78    8.60
   5  -1 -11   32.31    3.15
   5  -1 -11   23.61    3.06
   5  -1 -12  467.16   15.39
   5  -1 -12  499.09   16.06
   5  -1 -13   12.71    2.87
   5  -1 -13    7.93    2.68
   5  -1 -14  273.30    9.75
   5  -1 -14  284.58    9.94
   5  -1 -15  174.17    6.88
   5  -1 -15  171.59    6.79
   5  -1 -17  158.78    6.40
   5  -1 -17  162.51    6.40
   5  -1 -19   20.65    2.96
   5  -1 -19   19.41    3.25
   5  -1 -20  285.15    9.94
   5  -1 -20  279.99    9.94
   5  -1 -21   45.79    3.73
   5  -1 -21   54.58    3.73
   4   0  10    6.79    1.05
  -4   0 -10    4.30    1.05
   4   0   9   -0.10    1.15
  -4   0  -9    0.29    1.24
   4   0   8  534.94   16.44
  -4   0  -8  540.67   16.54
   4   0   7    1.63    1.63
  -4   0  -7   -0.86    1.43
   4   0   6  715.22   21.60
  -4   0  -6  780.99   23.61
   4   0   5    0.96    1.53
  -4   0  -5    0.48    1.63
   4   0   3    3.35    1.72
  -4   0  -3    0.29    1.82
   4   0   2   38.24    2.68
  -4   0  -2   40.53    2.77
   4   0   1    2.10    2.29
  -4   0  -1    3.44    2.29
   4   0  -1    0.29    2.77
  -4   0   1    1.53    2.77
   4   0  -2  552.81   17.49
   4   0  -2  539.33   17.11
   4   0  -3   -0.38    3.15
   4   0  -3    0.86    3.35
   4   0  -4   33.36    3.73
  -4   0   4   32.31    3.82
   4   0  -5   -0.19    3.25
  -4   0   5    5.54    3.15
   4   0  -6  264.70    9.37
  -4   0   6  260.78    9.56
   4   0  -7   -3.06    2.68
  -4   0   7   -0.10    2.49
   4   0  -8 4462.27  131.82
  -4   0   8 4814.05  142.05
   4   0  -9    0.10    2.49
  -4   0   9   -4.30    2.39
   4   0 -10    6.98    2.39
  -4   0  10    2.10    2.58
   4   0 -11   -0.57    2.29
  -4   0  11    1.63    2.58
   4   0 -12   -0.48    2.49
  -4   0  12   -0.29    2.29
   4   0 -13    0.76    2.49
   4   0 -14  562.56   17.97
   4   0 -14  513.24   16.44
   4   0 -15   -0.48    2.39
   4   0 -15    0.00    2.39
   4   0 -16  473.57   15.39
   4   0 -16  520.79   16.73
   4   0 -17   -2.58    2.77
   4   0 -17    1.05    2.49
   4   0 -18   50.66    3.82
   4   0 -18   43.78    3.25
   4   0 -19   -0.10    2.58
   4   0 -19    2.58    3.15
   4   0 -20  114.33    5.16
   4   0 -20  121.40    5.45
   4   0 -21    3.35    2.87
   4   0 -21    1.63    2.58
   3   1   6    5.83    0.86
  -3  -1  -6    5.16    0.96
   3   1   4 2442.39   72.55
  -3  -1  -4 2452.91   72.84
   3   1   2  500.52   15.39
   3   1   2  506.74   15.49
   3   1   1 3773.05  111.08
   3   1   0   11.95    2.39
  -3  -1   0   15.01    2.58
   3   1  -1 2727.26   80.58
   3   1  -4   27.34    3.44
  -3  -1   4   31.74    3.54
   3   1  -5  897.33   27.63
  -3  -1   5  881.17   27.15
   3   1  -6  330.37   11.09
  -3  -1   6  334.96   11.47
   3   1  -7  509.70   16.35
  -3  -1   7  499.47   15.96
   3   1  -8  171.78    6.88
  -3  -1   8  178.09    6.98
   3   1  -9  649.74   20.46
  -3  -1   9  645.06   20.27
   3   1 -10 1497.94   45.12
  -3  -1  10 1711.11   51.43
   3   1 -11   47.13    3.44
  -3  -1  11   42.16    3.54
   3   1 -12   14.15    2.58
  -3  -1  12    9.27    2.39
   3   1 -13   13.96    2.77
  -3  -1  13   17.11    2.87
   3   1 -14  211.26    7.84
  -3  -1  14  205.91    7.65
   3   1 -15  153.52    6.21
  -3  -1  15  167.48    6.40
   3   1 -16  116.24    5.35
   3   1 -16   98.56    4.78
   3   1 -17  246.34    8.79
   3   1 -17  264.03    9.37
   3   1 -18  207.82    7.65
   3   1 -18  211.64    7.84
   3   1 -19   33.74    3.25
   3   1 -19   43.69    3.63
   3   1 -20  179.71    6.88
   3   1 -20  193.29    7.17
   2   2   1  124.75    4.49
  -2  -2  -1  125.99    4.59
   2   2   0 1186.31   35.37
  -2  -2   0 1206.38   35.94
   2   2  -1  666.38   20.46
  -2  -2   1  684.64   21.03
   2   2  -2  155.72    6.02
  -2  -2   2  172.35    6.60
   2   2  -3 1641.33   49.13
  -2  -2   3 1651.84   49.42
   2   2  -4   -0.38    3.15
  -2  -2   4    3.15    3.06
   2   2  -5  565.62   17.97
  -2  -2   5  567.73   18.16
   2   2  -6  119.20    5.26
  -2  -2   6  118.25    5.35
   2   2  -7   -0.57    2.58
  -2  -2   7   -0.86    2.58
   2   2  -8    0.29    2.68
  -2  -2   8    4.68    2.68
   2   2  -9  207.91    7.65
  -2  -2   9  192.24    7.27
   2   2 -10  218.91    8.03
  -2  -2  10  239.46    8.89
   2   2 -11  266.23    9.27
  -2  -2  11  283.05   10.04
   2   2 -12  258.58    9.27
  -2  -2  12  254.56    8.89
   2   2 -13  579.29   18.35
  -2  -2  13  542.58   17.68
   2   2 -14   23.42    3.06
  -2  -2  14   17.49    2.58
   2   2 -15   71.69    4.30
  -2  -2  15   71.41    4.11
   2   2 -16  225.60    8.32
  -2  -2  16  221.11    7.93
   2   2 -17  416.50   13.77
  -2  -2  17  398.91   13.10
   2   2 -18   20.65    3.15
   2   2 -18   18.45    2.96
   2   2 -19  383.90   12.62
   2   2 -19  380.08   12.71
   2   2 -20    1.53    3.25
   2   2 -20    1.24    2.96
   1   3   4  266.23    8.32
  -1  -3  -4  278.94    8.60
   1   3   3  472.23   14.34
  -1  -3  -3  466.59   14.24
   1   3   2   11.47    2.01
  -1  -3  -2   11.28    2.10
   1   3   0  486.38   15.29
  -1  -3   0  469.65   14.82
   1   3  -2    5.54    2.87
  -1  -3   2    4.21    3.15
   1   3  -3 1356.46   41.01
  -1  -3   3 1198.73   36.42
   1   3  -4  994.16   30.49
  -1  -3   4 1037.18   31.83
   1   3  -5   75.52    4.30
  -1  -3   5   91.77    4.97
   1   3  -6   13.96    2.96
  -1  -3   6   10.42    2.68
   1   3  -7 1297.19   39.48
  -1  -3   7 1261.82   38.33
   1   3  -8   57.16    3.82
  -1  -3   8   54.11    3.63
   1   3  -9 1396.61   42.35
  -1  -3   9 1362.20   41.30
   1   3 -10  159.64    6.50
  -1  -3  10  156.01    6.60
   1   3 -11    7.36    2.68
  -1  -3  11    7.46    2.29
   1   3 -12  342.41   11.66
  -1  -3  12  244.72    8.99
   1   3 -13  562.56   18.07
  -1  -3  13  480.35   15.77
   1   3 -14    4.78    2.77
  -1  -3  14    0.10    2.29
   1   3 -15   12.52    2.77
  -1  -3  15   13.48    2.77
   1   3 -16   74.18    4.21
  -1  -3  16   67.39    3.92
   1   3 -17   -3.63    2.77
  -1  -3  17    1.72    2.87
   1   3 -18  133.45    5.83
  -1  -3  18  146.54    6.12
   1   3 -19   30.59    3.82
   1   3 -19   42.35    3.92
   1   3 -20   14.15    3.54
   1   3 -20   14.43    3.82
   0  -4  -8 2399.38   72.94
   0  -4  -8 2355.41   71.60
   0  -4  -7  376.16   11.57
   0  -4  -7  372.24   11.47
   0   4   6  399.39   12.24
   0  -4  -6  384.09   11.85
   0   4   5   79.53    3.35
   0  -4  -5   86.61    3.44
   0   4   4   22.08    2.10
   0  -4  -4   26.48    2.29
   0   4   3 1404.26   41.97
   0  -4  -3 1485.51   44.36
   0   4   2  659.88   20.46
   0  -4  -2  644.68   20.07
   0   4   1   81.16    4.40
   0  -4  -1   80.68    4.49
   0   4   0 3267.36   96.74
   0  -4   0 3339.05   98.84
   0   4  -1   81.35    4.68
   0  -4   1   75.14    4.78
   0   4  -2  652.71   20.65
   0  -4   2  648.69   20.65
   0   4  -3 1439.63   43.59
   0  -4   3 1348.81   40.91
   0   4  -4   24.47    3.44
   0  -4   4   23.23    3.63
   0   4  -5   95.11    4.88
   0  -4   5   70.83    4.30
   0   4  -6  412.10   13.86
   0  -4   6  416.59   13.86
   0   4  -7  392.22   13.10
   0  -4   7  354.74   12.33
   0   4  -8 2402.25   71.79
   0  -4   8 2537.03   75.52
   0   4  -9   24.47    2.96
   0  -4   9   25.05    3.06
   0   4 -10  404.17   13.48
   0  -4  10  464.96   15.39
   0   4 -11 1084.98   33.27
   0  -4  11 1102.18   33.74
   0   4 -12   17.49    2.96
   0  -4  12   21.41    3.25
   0   4 -13    1.34    2.68
   0  -4  13    2.87    2.58
   0   4 -14  670.11   21.22
   0  -4  14  774.40   24.28
   0   4 -15   63.09    4.01
   0  -4  15   77.53    4.40
   0   4 -16  132.97    5.83
   0  -4  16  127.52    5.74
   0   4 -17   -3.25    3.06
   0  -4  17   -4.49    3.06
   0   4 -18   45.60    4.30
   0  -4  18   56.50    4.30
   0   4 -19    6.69    4.01
   0  -4  19    4.68    3.54
   0   4 -20   20.36    4.40
   0   4 -20   21.22    3.92
   1  -5 -11   32.98    1.63
   1  -5 -11   38.91    1.82
   1  -5  -9  172.26    5.83
   1  -5  -9  170.73    5.83
   1  -5  -8   51.33    2.68
  -1   5   7  182.68    6.21
   1  -5  -7  179.33    6.31
  -1   5   6  191.95    6.79
   1  -5  -6  182.39    6.50
  -1   5   5   44.55    2.96
   1  -5  -5   45.60    3.06
  -1   5   4 5689.68  167.57
   1  -5  -4 5638.06  166.04
  -1   5   3  282.29    9.85
   1  -5  -3  278.56    9.75
  -1   5   2   16.63    2.96
   1  -5  -2   16.54    3.15
  -1   5   1  119.49    5.74
   1  -5  -1  113.09    5.64
  -1   5   0    6.79    3.25
   1  -5   0    3.73    3.44
  -1   5  -1  584.26   18.83
   1  -5   1  601.66   19.41
  -1   5  -2 1605.96   48.56
   1  -5   2 1611.69   48.66
  -1   5  -3  105.06    5.45
   1  -5   3   97.98    5.35
  -1   5  -4 1842.07   55.44
   1  -5   4 1842.07   55.54
  -1   5  -5    4.49    3.06
   1  -5   5   10.42    3.15
  -1   5  -6  931.74   28.96
   1  -5   6  937.96   29.25
  -1   5  -7    4.88    2.68
   1  -5   7    1.05    2.77
  -1   5  -8   73.61    4.40
   1  -5   8   62.90    4.11
  -1   5  -9  232.96    8.70
   1  -5   9  238.03    9.37
  -1   5 -10 1628.90   49.23
   1  -5  10 1690.08   50.95
  -1   5 -11   91.48    4.78
   1  -5  11   97.60    5.07
  -1   5 -12   37.66    3.44
   1  -5  12   42.25    3.82
  -1   5 -13   94.64    5.16
   1  -5  13   97.12    4.97
  -1   5 -14   12.62    3.15
   1  -5  14    6.88    2.87
  -1   5 -15   24.28    3.35
   1  -5  15   14.24    2.87
  -1   5 -16  139.09    6.31
   1  -5  16  131.92    5.93
  -1   5 -17    2.29    3.54
   1  -5  17    1.34    3.15
  -1   5 -18  121.88    6.31
   1  -5  18  106.97    5.83
  -1   5 -19   10.71    4.59
   1  -5  19   10.61    4.01
   2  -6 -13   13.29    1.53
   2  -6 -13   11.95    1.43
   2  -6 -12   -0.57    1.53
   2  -6 -12   -0.10    1.63
   2  -6 -11 1074.46   32.41
   2  -6 -11 1095.49   32.98
   2  -6 -10  163.85    6.02
   2  -6 -10  164.04    5.93
  -2   6   9  113.85    4.68
   2  -6  -9  111.17    4.59
  -2   6   8  126.37    4.97
   2  -6  -8  118.53    4.97
  -2   6   7   83.17    4.01
   2  -6  -7   97.50    4.59
  -2   6   6  804.99   24.76
   2  -6  -6  846.86   26.10
  -2   6   5 3735.76  110.60
   2  -6  -5 3779.74  111.84
  -2   6   4 2282.75   68.16
   2  -6  -4 2378.35   70.93
  -2   6   3  247.49    8.99
   2  -6  -3  238.12    8.89
  -2   6   2  314.88   11.09
   2  -6  -2  308.67   10.90
  -2   6   1  315.55   11.09
   2  -6  -1  315.74   11.28
  -2   6   0    7.17    3.25
   2  -6   0    3.44    3.25
  -2   6  -1  278.75   10.23
   2  -6   1  260.59    9.94
  -2   6  -2   53.63    4.01
   2  -6   2   51.62    4.30
  -2   6  -3   89.67    5.16
   2  -6   3   94.45    5.54
  -2   6  -4    3.15    3.25
   2  -6   4    2.87    3.06
  -2   6  -5  237.36    9.08
   2  -6   5  249.50    9.37
  -2   6  -6  576.71   18.74
   2  -6   6  550.61   18.16
  -2   6  -7   -1.43    2.96
   2  -6   7   -2.58    3.06
  -2   6  -8  511.04   16.82
   2  -6   8  443.26   15.20
  -2   6  -9  874.96   27.34
   2  -6   9 1007.55   31.26
  -2   6 -10   70.17    4.40
   2  -6  10   71.69    4.49
  -2   6 -11  526.72   17.30
   2  -6  11  546.79   18.16
  -2   6 -12    3.44    3.25
   2  -6  12    5.54    2.68
  -2   6 -13   17.02    3.15
   2  -6  13   15.49    3.35
  -2   6 -14  270.81    9.85
   2  -6  14  281.81   10.23
  -2   6 -15   34.89    3.82
   2  -6  15   34.89    3.92
  -2   6 -16   24.18    3.92
   2  -6  16   36.33    3.92
  -2   6 -17   84.41    5.35
   2  -6  17   79.15    5.07
  -2   6 -18   16.16    4.40
   2  -6  18   14.43    4.88
   3  -7 -15  167.77    5.64
   3  -7 -15  179.24    5.93
   3  -7 -14  112.13    4.40
   3  -7 -14  109.84    4.30
   3  -7 -13  588.95   18.26
   3  -7 -13  586.56   18.26
   3  -7 -12 1159.54   34.99
   3  -7 -12 1067.77   32.41
   3  -7 -11    1.43    2.10
   3  -7 -11   -1.82    2.10
  -3   7  10  305.13   10.42
   3  -7 -10  286.68    9.75
  -3   7   9  721.15   22.27
   3  -7  -9  721.34   22.37
  -3   7   8  122.36    5.45
   3  -7  -8  124.17    5.45
  -3   7   7  146.07    6.12
   3  -7  -7  136.98    5.93
  -3   7   6    9.85    2.87
   3  -7  -6    5.16    2.87
  -3   7   5  346.14   11.95
   3  -7  -5  325.49   11.38
  -3   7   4  110.22    5.45
   3  -7  -4  110.51    5.54
  -3   7   3 2093.48   63.00
   3  -7  -3 2088.70   62.80
  -3   7   2  435.90   14.82
   3  -7  -2  436.19   14.72
  -3   7   1  625.18   20.36
   3  -7  -1  637.79   20.36
  -3   7   0  113.56    5.83
   3  -7   0  119.59    5.83
  -3   7  -1 2641.23   79.06
   3  -7   1 2818.07   84.03
  -3   7  -2   46.65    4.21
   3  -7   2   38.14    4.11
  -3   7  -3  348.15   12.43
   3  -7   3  345.09   12.33
  -3   7  -4  321.57   11.57
   3  -7   4  314.60   11.47
  -3   7  -5  847.05   26.67
   3  -7   5  878.11   27.91
  -3   7  -6   41.97    4.01
   3  -7   6   35.94    3.92
  -3   7  -7 2734.91   81.73
   3  -7   7 3099.12   92.44
  -3   7  -8   48.18    4.11
   3  -7   8   44.93    4.49
  -3   7  -9  583.40   19.02
   3  -7   9  769.52   24.38
  -3   7 -10   14.82    3.44
   3  -7  10   15.68    3.35
  -3   7 -11    0.00    3.06
   3  -7  11    5.16    3.44
  -3   7 -12   13.77    3.15
   3  -7  12   16.63    3.44
  -3   7 -13  602.33   19.50
   3  -7  13  620.59   19.88
  -3   7 -14   96.55    5.26
   3  -7  14   98.46    5.26
  -3   7 -15  164.80    7.27
   3  -7  15  170.92    7.36
  -3   7 -16    0.76    3.82
   3  -7  16    3.06    3.82
  -3   7 -17   32.50    4.78
   3  -7  17   45.02    4.97
   4  -8 -16   80.68    3.63
   4  -8 -16   87.47    3.73
   4  -8 -15    2.20    2.10
   4  -8 -15    0.38    2.10
   4  -8 -14  194.82    7.07
   4  -8 -14  191.57    7.07
   4  -8 -13  255.42    8.89
   4  -8 -13  246.63    8.89
   4  -8 -12  115.86    5.16
   4  -8 -12  118.63    5.16
  -4   8  11 1213.07   36.99
   4  -8 -11 1173.88   35.94
  -4   8  10  376.54   12.62
   4  -8 -10  371.86   12.62
  -4   8   9   97.89    5.07
   4  -8  -9   86.32    4.78
  -4   8   8  345.95   11.76
   4  -8  -8  328.65   11.47
  -4   8   7  124.27    6.02
   4  -8  -7  117.01    5.64
  -4   8   6  455.69   15.20
   4  -8  -6  459.51   15.39
  -4   8   5  117.10    5.74
   4  -8  -5  132.40    6.21
  -4   8   4    5.26    2.96
   4  -8  -4   -0.38    3.35
  -4   8   3  258.29    9.85
   4  -8  -3  248.83    9.75
  -4   8   2 1451.10   44.45
   4  -8  -2 1464.48   44.83
  -4   8   1   27.34    4.01
   4  -8  -1   18.54    3.54
  -4   8   0 1203.51   37.19
   4  -8   0 1213.07   37.66
  -4   8  -1  716.75   23.04
   4  -8   1  683.30   22.08
  -4   8  -2  128.38    6.50
   4  -8   2  126.09    6.40
  -4   8  -3  564.76   18.64
   4  -8   3  564.09   18.35
  -4   8  -4  352.35   12.52
   4  -8   4  357.71   12.91
  -4   8  -5    7.17    3.44
   4  -8   5   12.24    3.54
  -4   8  -6 1678.61   50.95
   4  -8   6 1619.34   49.33
  -4   8  -7   65.67    4.59
   4  -8   7   82.59    5.45
  -4   8  -8  660.55   21.32
   4  -8   8  685.50   22.18
  -4   8  -9  481.69   16.16
   4  -8   9  474.33   15.96
  -4   8 -10  352.45   12.33
   4  -8  10  355.51   12.81
  -4   8 -11  324.54   11.66
   4  -8  11  339.64   11.85
  -4   8 -12  873.53   27.53
   4  -8  12  824.49   25.91
  -4   8 -13   31.64    3.92
   4  -8  13   45.02    4.01
  -4   8 -14   44.83    4.59
   4  -8  14   44.45    4.49
  -4   8 -15   74.85    5.45
   4  -8  15   61.08    4.97
  -4   8 -16   46.74    4.97
   4  -8  16   40.82    4.88
   5  -9 -17    1.91    2.49
   5  -9 -17    4.11    2.49
   5  -9 -16    8.60    2.77
   5  -9 -16    3.35    2.58
   5  -9 -15   30.88    3.35
   5  -9 -15   33.65    3.15
   5  -9 -14  816.08   25.33
   5  -9 -14  809.48   25.14
   5  -9 -13  227.03    8.51
   5  -9 -13  238.41    8.89
  -5   9  12  131.63    6.02
   5  -9 -12  126.56    5.93
  -5   9  11   65.77    4.21
   5  -9 -11   73.70    4.49
  -5   9  10  601.28   19.41
   5  -9 -10  583.40   18.83
  -5   9   9   60.89    4.40
   5  -9  -9   55.54    3.92
  -5   9   8  203.61    8.51
   5  -9  -8  206.86    8.22
  -5   9   7  566.48   18.45
   5  -9  -7  574.32   18.83
  -5   9   6  772.77   24.57
   5  -9  -6  705.28   22.56
  -5   9   5  554.06   18.26
   5  -9  -5  555.68   18.35
  -5   9   4 1732.14   52.58
   5  -9  -4 1749.35   53.15
  -5   9   3   80.01    5.07
   5  -9  -3   64.43    4.68
  -5   9   2  290.32   10.99
   5  -9  -2  308.19   11.28
  -5   9   1    4.68    3.35
   5  -9  -1    8.13    3.54
  -5   9   0  114.90    6.21
   5  -9   0  118.82    6.12
  -5   9  -1  275.98   10.52
   5  -9   1  244.53    9.85
  -5   9  -2 1609.78   49.13
   5  -9   2 1617.43   49.33
  -5   9  -3  202.37    8.41
   5  -9   3  196.06    8.41
  -5   9  -4  349.68   12.52
   5  -9   4  340.50   12.71
  -5   9  -5   88.42    5.35
   5  -9   5   96.93    5.64
  -5   9  -6  212.12    8.60
   5  -9   6  190.61    8.22
  -5   9  -7   41.20    4.30
   5  -9   7   47.51    4.78
  -5   9  -8  158.11    7.07
   5  -9   8  163.56    7.27
  -5   9  -9    8.51    3.44
   5  -9   9    7.17    3.63
  -5   9 -10  434.95   14.82
   5  -9  10  536.37   17.40
  -5   9 -11   48.75    4.21
   5  -9  11   53.63    4.49
  -5   9 -12   62.23    4.88
   5  -9  12   66.91    4.68
  -5   9 -13   36.80    4.59
   5  -9  13   44.83    4.49
  -5   9 -14   95.59    5.74
   5  -9  14  110.22    6.02
  -5   9 -15   -7.07    4.30
   5  -9  15    3.82    4.40
   6 -10 -19   76.47    4.01
   6 -10 -19   84.12    4.49
   6 -10 -18   31.55    3.54
   6 -10 -18   31.35    3.63
   6 -10 -17   13.19    3.15
   6 -10 -17   18.16    3.15
   6 -10 -16  225.41    8.41
   6 -10 -16  233.92    8.60
   6 -10 -15  110.79    5.26
   6 -10 -15  112.90    5.54
   6 -10 -14  116.24    5.74
   6 -10 -14  113.37    5.54
  -6  10  13   31.45    3.63
   6 -10 -13   29.25    3.63
  -6  10  12    8.03    3.06
   6 -10 -12    8.51    3.06
  -6  10  11  154.19    6.98
   6 -10 -11  157.54    7.17
  -6  10  10  364.69   12.71
   6 -10 -10  358.95   12.81
  -6  10   9   31.16    3.92
   6 -10  -9   33.46    3.92
  -6  10   8   50.47    4.49
   6 -10  -8   48.37    4.40
  -6  10   7  417.74   14.63
   6 -10  -7  429.12   14.82
  -6  10   6  827.36   26.10
   6 -10  -6  825.16   26.19
  -6  10   5  453.87   15.58
   6 -10  -5  450.72   15.49
  -6  10   4   19.41    3.82
   6 -10  -4   24.85    3.82
  -6  10   3   99.51    6.12
   6 -10  -3   81.64    5.26
  -6  10   2 1234.10   38.24
   6 -10  -2 1203.51   37.38
  -6  10   1    2.96    3.35
   6 -10  -1    1.15    3.44
  -6  10   0  355.70   12.81
   6 -10   0  355.99   12.62
  -6  10  -1   54.97    4.68
   6 -10   1   52.19    4.78
  -6  10  -2  133.83    6.79
   6 -10   2  137.27    6.69
  -6  10  -3  803.65   25.71
   6 -10   3  775.07   25.05
  -6  10  -4  508.36   17.21
   6 -10   4  443.07   15.58
  -6  10  -5    2.96    3.25
   6 -10   5    1.72    3.44
  -6  10  -6  433.99   15.01
   6 -10   6  465.63   16.16
  -6  10  -7   20.27    3.73
   6 -10   7   21.03    4.40
  -6  10  -8   52.96    4.49
   6 -10   8   54.30    4.49
  -6  10  -9  177.99    7.74
   6 -10   9  184.30    7.93
  -6  10 -10  184.30    8.03
   6 -10  10  174.46    7.84
  -6  10 -11   61.66    4.68
   6 -10  11   64.72    4.88
  -6  10 -12  302.17   11.09
   6 -10  12  283.81   10.71
  -6  10 -13   23.90    4.30
   6 -10  13   22.75    4.40
  -6  10 -14  120.54    6.60
   6 -10  14  125.80    6.98
   7 -11 -20   11.66    3.92
   7 -11 -20   11.57    4.11
   7 -11 -19    1.82    3.73
   7 -11 -19    2.10    3.73
   7 -11 -18   -1.24    3.63
   7 -11 -18   -1.43    3.92
   7 -11 -17  343.08   12.04
   7 -11 -17  325.40   11.38
   7 -11 -16   16.92    3.44
   7 -11 -16   25.24    3.82
   7 -11 -15  143.48    6.50
   7 -11 -15  141.00    6.31
  -7  11  14   32.12    3.82
   7 -11 -14   26.29    3.63
  -7  11  13   32.12    3.92
   7 -11 -13   41.97    3.92
  -7  11  12   10.90    3.25
   7 -11 -12    7.65    3.15
  -7  11  11  130.01    6.40
   7 -11 -11  125.32    6.31
  -7  11  10    6.88    3.25
   7 -11 -10    5.07    3.54
  -7  11   9  552.72   18.54
   7 -11  -9  553.48   18.54
  -7  11   8   29.16    4.01
   7 -11  -8   20.65    3.82
  -7  11   7   98.27    5.74
   7 -11  -7  104.87    5.93
  -7  11   6  228.37    9.27
   7 -11  -6  242.14    9.65
  -7  11   5   14.15    3.82
   7 -11  -5   20.55    3.82
  -7  11   4   25.24    4.21
   7 -11  -4   31.55    4.01
  -7  11   3  385.62   13.77
   7 -11  -3  392.22   13.86
  -7  11   2   77.53    5.35
   7 -11  -2   66.63    5.07
  -7  11   1  487.52   16.63
   7 -11  -1  516.58   17.49
  -7  11   0  135.45    6.79
   7 -11   0  127.90    6.79
  -7  11  -1  180.00    8.13
   7 -11   1  211.74    9.18
  -7  11  -2   35.18    4.49
   7 -11   2   46.55    4.68
  -7  11  -3  187.55    8.22
   7 -11   3  187.65    8.70
  -7  11  -4    8.70    3.73
   7 -11   4    3.82    3.73
  -7  11  -5  906.22   28.68
   7 -11   5  959.75   30.21
  -7  11  -6   16.25    3.82
   7 -11   6    8.51    4.49
  -7  11  -7    6.21    3.73
   7 -11   7    4.88    3.63
  -7  11  -8   39.10    4.49
   7 -11   8   39.38    4.59
  -7  11  -9   23.52    4.11
   7 -11   9   21.89    3.92
  -7  11 -10   28.10    4.01
   7 -11  10   24.47    4.11
  -7  11 -11  255.14    9.85
   7 -11  11  244.53    9.75
  -7  11 -12   51.72    4.97
   7 -11  12   53.63    5.26
  -7  11 -13  180.86    8.22
   7 -11  13  176.56    8.51
   8 -12 -19   23.13    4.68
   8 -12 -19   26.48    4.68
   8 -12 -18   75.04    5.54
   8 -12 -18   86.22    5.45
   8 -12 -17   -4.01    3.82
   8 -12 -17    3.63    3.92
   8 -12 -16   28.68    4.11
   8 -12 -16   31.26    4.01
   8 -12 -15  172.54    7.36
   8 -12 -15  175.13    7.36
  -8  12  14   56.59    4.59
   8 -12 -14   63.86    4.68
  -8  12  13  331.52   11.85
   8 -12 -13  338.88   12.04
  -8  12  12   48.47    4.21
   8 -12 -12   51.81    4.30
  -8  12  11  128.19    6.50
   8 -12 -11  121.69    6.31
  -8  12  10  139.47    6.69
   8 -12 -10  153.04    6.98
  -8  12   9   52.19    4.88
   8 -12  -9   54.39    4.78
  -8  12   8   14.63    4.40
   8 -12  -8   22.37    4.01
  -8  12   7  125.04    6.50
   8 -12  -7  126.47    6.50
  -8  12   6  171.49    7.93
   8 -12  -6  168.72    7.74
  -8  12   5  148.65    7.36
   8 -12  -5  152.28    7.27
  -8  12   4   20.27    4.30
   8 -12  -4   14.53    4.01
  -8  12   3    1.63    3.63
   8 -12  -3    2.58    3.63
  -8  12   2  616.76   20.55
   8 -12  -2  637.13   21.22
  -8  12   1    5.93    3.73
   8 -12  -1    2.96    3.54
  -8  12   0   12.33    3.92
   8 -12   0   10.32    4.11
  -8  12  -1  496.60   17.21
   8 -12   1  531.02   18.16
  -8  12  -2   16.73    3.63
   8 -12   2   19.60    4.30
  -8  12  -3  172.16    7.84
   8 -12   3  183.06    8.51
  -8  12  -4   78.10    5.45
   8 -12   4   70.74    5.26
  -8  12  -5   -1.82    3.44
   8 -12   5    0.19    3.63
  -8  12  -6   37.47    4.21
   8 -12   6   31.26    4.21
  -8  12  -7  216.42    8.89
   8 -12   7  211.07    8.70
  -8  12  -8    4.21    3.44
   8 -12   8   -1.53    3.44
  -8  12  -9  159.83    7.17
   8 -12   9  148.46    7.07
  -8  12 -10    0.57    3.54
   8 -12  10    0.10    3.82
  -8  12 -11    4.30    4.21
   8 -12  11    6.98    4.01
  -8  12 -12  102.09    6.02
   8 -12  12  103.62    6.50
   9 -13 -19    6.88    5.35
   9 -13 -19   -4.49    4.97
   9 -13 -18   78.77    5.74
   9 -13 -18   72.17    5.26
   9 -13 -17   42.35    4.88
   9 -13 -17   42.16    4.68
   9 -13 -16   53.05    4.88
   9 -13 -16   44.64    4.59
  -9  13  15   13.19    3.92
   9 -13 -15   12.33    3.63
  -9  13  14  351.30   12.71
   9 -13 -14  338.02   12.14
  -9  13  13   -1.24    3.54
   9 -13 -13    7.07    3.35
  -9  13  12  249.78    9.85
   9 -13 -12  225.41    8.99
  -9  13  11   81.35    5.35
   9 -13 -11   88.52    5.26
  -9  13  10  145.11    6.88
   9 -13 -10  142.72    6.88
  -9  13   9  261.83   10.42
   9 -13  -9  261.35   10.13
  -9  13   8  421.28   14.72
   9 -13  -8  425.20   14.82
  -9  13   7   24.28    4.11
   9 -13  -7   20.74    4.21
  -9  13   6  689.99   22.56
   9 -13  -6  740.84   23.99
  -9  13   5  150.46    7.17
   9 -13  -5  145.30    7.07
  -9  13   4  320.04   12.04
   9 -13  -4  336.39   12.43
  -9  13   3  223.21    9.27
   9 -13  -3  260.78   10.23
  -9  13   2    7.17    4.01
   9 -13  -2    8.32    3.92
  -9  13   1   53.34    4.59
   9 -13  -1   43.21    4.40
  -9  13   0 1051.52   32.98
   9 -13   0 1090.71   34.41
  -9  13  -1  129.34    6.69
   9 -13   1  142.62    7.07
  -9  13  -2  316.79   11.66
   9 -13   2  313.83   11.76
  -9  13  -3   94.25    5.54
   9 -13   3  105.92    6.31
  -9  13  -4   19.02    3.92
   9 -13   4   26.86    3.92
  -9  13  -5   53.44    4.49
   9 -13   5   45.98    4.88
  -9  13  -6   70.74    4.97
   9 -13   6   92.53    5.35
  -9  13  -7    6.69    3.44
   9 -13   7   13.29    4.01
  -9  13  -8   88.33    5.54
   9 -13   8   84.50    5.45
  -9  13  -9   12.43    4.01
   9 -13   9   12.14    3.92
  -9  13 -10  141.76    6.98
   9 -13  10  132.11    6.69
  10 -14 -18   25.91    4.59
  10 -14 -18   23.71    4.88
  10 -14 -17   17.59    4.30
  10 -14 -17   15.49    4.59
  10 -14 -16  270.62   10.61
  10 -14 -16  242.42    9.56
 -10  14  15   31.16    4.21
  10 -14 -15   20.93    4.01
 -10  14  14    7.74    3.73
  10 -14 -14    6.02    3.44
 -10  14  13    6.98    3.73
  10 -14 -13    2.29    3.63
 -10  14  12   86.03    5.54
  10 -14 -12   91.96    5.54
 -10  14  11    6.02    3.63
  10 -14 -11    2.10    3.63
 -10  14  10  779.27   24.95
  10 -14 -10  746.10   23.99
 -10  14   9    2.87    3.73
  10 -14  -9    9.75    3.63
 -10  14   8  304.65   11.47
  10 -14  -8  291.18   11.09
 -10  14   7   43.59    4.49
  10 -14  -7   41.77    4.40
 -10  14   6  138.13    6.69
  10 -14  -6  155.53    7.55
 -10  14   5    3.15    3.54
  10 -14  -5    8.89    3.73
 -10  14   4  723.25   23.42
  10 -14  -4  682.82   22.46
 -10  14   3   20.55    4.11
  10 -14  -3   29.35    4.30
 -10  14   2  335.34   12.33
  10 -14  -2  314.02   11.76
 -10  14   1  309.05   11.66
  10 -14  -1  291.75   10.71
 -10  14   0    9.08    3.92
  10 -14   0   13.10    4.01
 -10  14  -1    2.68    3.54
  10 -14   1    6.79    3.82
 -10  14  -2  222.92    8.99
  10 -14   2  220.91    8.89
 -10  14  -3    4.97    3.73
  10 -14   3    4.21    3.73
 -10  14  -4  314.98   11.47
  10 -14   4  307.24   11.28
 -10  14  -5    3.54    3.73
  10 -14   5    5.35    3.73
 -10  14  -6  109.26    5.83
  10 -14   6  104.77    5.93
 -10  14  -7    1.34    3.73
  10 -14   7    3.06    4.30
 -10  14  -8   -0.48    3.82
  10 -14   8   11.85    4.40
  11 -15 -17  103.81    6.50
  11 -15 -17  103.62    6.40
 -11  15  16   -4.97    4.21
  11 -15 -16    0.00    4.11
 -11  15  15   70.07    5.35
  11 -15 -15   54.30    4.97
 -11  15  14   23.52    4.30
  11 -15 -14   35.66    4.40
 -11  15  13   22.37    4.40
  11 -15 -13   17.21    3.92
 -11  15  12   34.32    5.07
  11 -15 -12   35.85    4.49
 -11  15  11  158.49    7.46
  11 -15 -11  147.98    6.98
 -11  15  10   -0.29    3.63
  11 -15 -10    5.45    3.63
 -11  15   9  388.20   13.57
  11 -15  -9  396.90   13.77
 -11  15   8  167.19    7.55
  11 -15  -8  161.17    7.27
 -11  15   7    8.41    3.63
  11 -15  -7    9.27    3.63
 -11  15   6  146.83    6.88
  11 -15  -6  142.53    7.17
 -11  15   5  236.97    9.46
  11 -15  -5  238.98    9.46
 -11  15   4    6.12    3.63
  11 -15  -4   10.71    4.11
 -11  15   3  227.51    9.08
  11 -15  -3  223.11    9.08
 -11  15   2   50.47    4.49
  11 -15  -2   50.66    4.88
 -11  15   1  130.58    6.40
  11 -15  -1  116.81    6.31
 -11  15   0  118.53    6.12
  11 -15   0  117.29    6.12
 -11  15  -1   80.87    5.35
  11 -15   1   70.55    5.26
 -11  15  -2   49.23    4.59
  11 -15   2   40.91    4.68
 -11  15  -3   89.28    5.45
  11 -15   3   80.30    5.35
 -11  15  -4   -0.38    3.63
  11 -15   4   -0.67    3.73
 -11  15  -5  118.53    6.31
  11 -15   5  114.14    6.02
 -11  15  -6   39.00    4.49
  11 -15   6   35.56    4.30
 -12  16  15   69.21    5.26
  12 -16 -15   71.41    5.35
 -12  16  14   25.91    4.49
  12 -16 -14   25.24    4.11
 -12  16  13  141.76    7.07
  12 -16 -13  135.65    6.50
 -12  16  12   10.99    4.30
  12 -16 -12   20.46    4.01
 -12  16  11   28.20    4.21
  12 -16 -11   35.56    4.30
 -12  16  10   16.35    3.73
  12 -16 -10   13.77    4.11
 -12  16   9  245.48    9.37
  12 -16  -9  222.73    8.99
 -12  16   8   39.19    4.40
  12 -16  -8   23.61    4.01
 -12  16   7  347.96   12.62
  12 -16  -7  354.27   12.81
 -12  16   6   -1.53    3.73
  12 -16  -6    3.54    3.82
 -12  16   5   35.18    4.40
  12 -16  -5   42.06    4.68
 -12  16   4   14.15    4.01
  12 -16  -4   10.42    3.73
 -12  16   3  130.68    6.50
  12 -16  -3  134.21    6.98
 -12  16   2   67.30    4.88
  12 -16  -2   72.36    4.97
 -12  16   1  236.40    9.27
  12 -16  -1  251.41    9.65
 -12  16   0   -2.20    3.44
  12 -16   0    5.83    4.01
 -12  16  -1   94.73    5.45
  12 -16   1   94.73    5.64
 -12  16  -2   -0.86    3.54
  12 -16   2    5.54    3.63
 -12  16  -3    4.40    3.54
  12 -16   3    7.27    3.82
 -12  16  -4    9.85    3.92
  12 -16   4   16.63    4.11
 -13  17  13    1.15    4.01
  13 -17 -13    7.17    3.82
 -13  17  12   14.15    3.82
  13 -17 -12    9.18    3.73
 -13  17  11  111.08    5.83
  13 -17 -11  118.73    6.12
 -13  17  10   -4.40    3.35
  13 -17 -10    3.63    3.82
 -13  17   9   22.56    3.92
  13 -17  -9   23.23    4.21
 -13  17   8  165.38    7.17
  13 -17  -8  152.09    6.98
 -13  17   7    0.67    3.44
  13 -17  -7    3.63    3.92
 -13  17   6    0.48    3.63
  13 -17  -6    8.51    4.11
 -13  17   5   47.61    4.68
  13 -17  -5   53.34    5.07
 -13  17   4   18.54    4.01
  13 -17  -4   10.52    3.82
 -13  17   3   44.64    4.40
  13 -17  -3   43.97    4.59
 -13  17   2   57.36    4.68
  13 -17  -2   52.77    4.49
 -13  17   1   11.09    3.73
  13 -17  -1    0.29    3.92
 -13  17   0    0.96    3.54
  13 -17   0    5.16    3.73
 -13  17  -1   12.14    3.63
  13 -17   1   10.04    3.82
 -14  18   9    0.48    3.82
  14 -18  -9    1.24    3.35
 -14  18   8   -3.44    3.25
  14 -18  -8   -4.49    3.63
 -14  18   7   13.77    3.82
  14 -18  -7   19.02    4.30
 -14  18   6  114.42    5.74
  14 -18  -6  115.19    5.74
 -14  18   5    8.79    4.21
  14 -18  -5   11.66    4.11
 -14  18   4   95.31    5.54
  14 -18  -4   96.17    5.35
  19 -13  -4    0.00    3.54
 -19  13   4    3.63    3.63
  19 -13  -5   25.52    3.92
 -19  13   5   24.76    3.82
  19 -13  -6    5.54    3.54
 -19  13   6    4.40    3.54
  19 -13  -7    2.49    3.54
 -19  13   7    6.12    3.54
  19 -13  -8  130.87    6.31
 -19  13   8  138.51    6.40
  19 -13  -9   -4.97    3.44
 -19  13   9   -1.43    3.44
  19 -13 -10  162.79    6.98
 -19  13  10  157.44    7.07
  19 -13 -11  136.60    6.79
 -19  13  11  144.44    6.40
  19 -13 -12   46.08    4.59
 -19  13  12   46.46    4.49
  19 -13 -13   21.32    3.73
 -19  13  13   18.83    3.92
  19 -13 -14   39.86    4.01
 -19  13  14   36.23    3.73
  18 -12   0   33.94    4.49
 -18  12   0   30.49    4.21
  18 -12  -1   15.77    4.01
 -18  12   1   14.91    4.01
  18 -12  -2    4.01    3.44
 -18  12   2    4.21    3.54
  18 -12  -3   57.93    4.88
 -18  12   3   52.77    4.59
  18 -12  -4   28.30    4.01
 -18  12   4   40.34    4.21
  18 -12  -5   31.64    4.49
 -18  12   5   34.60    4.21
  18 -12  -6   39.29    4.59
 -18  12   6   44.45    4.40
  18 -12  -7   86.80    5.45
 -18  12   7   85.08    5.45
  18 -12  -8   33.94    4.21
 -18  12   8   33.36    4.01
  18 -12  -9  219.96    8.79
 -18  12   9  232.96    9.37
  18 -12 -10    3.44    3.54
 -18  12  10   12.52    3.54
  18 -12 -11   42.92    4.30
 -18  12  11   43.69    4.59
  18 -12 -12   71.03    4.78
 -18  12  12   67.78    4.97
  18 -12 -13    7.46    3.54
 -18  12  13    6.60    3.54
  18 -12 -14   13.48    3.73
 -18  12  14   19.50    3.35
  18 -12 -15  158.49    6.98
  18 -12 -15  163.08    7.27
  18 -12 -16   11.66    3.44
  18 -12 -16    8.89    4.01
  18 -12 -17  188.70    7.84
  18 -12 -17  201.61    8.32
  17 -11   2   -0.86    3.92
 -17  11  -2   -3.06    3.63
  17 -11   1  224.55    8.99
 -17  11  -1  227.51    8.99
  17 -11   0   -0.38    3.73
 -17  11   0    5.07    3.73
  17 -11  -1    5.26    3.63
 -17  11   1   -7.65    3.63
  17 -11  -2   15.77    3.82
 -17  11   2   23.42    3.92
  17 -11  -3  213.55    8.60
 -17  11   3  226.65    9.08
  17 -11  -4    0.86    3.73
 -17  11   4    5.74    3.73
  17 -11  -5  128.29    6.50
 -17  11   5  125.32    6.50
  17 -11  -6   -0.29    3.63
 -17  11   6   -1.34    3.54
  17 -11  -7  242.81    9.56
 -17  11   7  232.86    9.37
  17 -11  -8   23.99    3.92
 -17  11   8   22.08    3.92
  17 -11  -9    8.89    4.01
 -17  11   9    4.40    4.01
  17 -11 -10   86.89    5.74
 -17  11  10   81.16    5.35
  17 -11 -11  269.76   10.52
 -17  11  11  257.24   10.04
  17 -11 -12   23.71    4.40
 -17  11  12   30.88    4.21
  17 -11 -13  277.12   10.52
 -17  11  13  263.84   10.23
  17 -11 -14    2.58    3.54
  17 -11 -15   48.08    4.68
  17 -11 -15   39.38    4.21
  17 -11 -16   53.63    4.88
  17 -11 -16   59.27    4.97
  17 -11 -17   59.17    4.68
  17 -11 -17   55.06    4.78
  17 -11 -18    8.70    3.82
  17 -11 -18    2.87    3.73
  17 -11 -19  181.91    9.18
  16 -10   5   83.74    5.83
 -16  10  -5   94.54    5.83
  16 -10   4   85.27    5.74
 -16  10  -4  103.05    5.83
  16 -10   3    5.45    4.11
 -16  10  -3    2.68    3.73
  16 -10   2  251.12    9.75
 -16  10  -2  247.11    9.65
  16 -10   1   52.00    4.78
 -16  10  -1   72.36    5.16
  16 -10   0    7.65    3.63
 -16  10   0   16.16    3.92
  16 -10  -1  106.01    5.93
 -16  10   1  107.54    6.12
  16 -10  -2   72.84    5.16
 -16  10   2   69.50    4.97
  16 -10  -3  153.90    7.36
 -16  10   3  135.93    6.69
  16 -10  -4   26.67    4.01
 -16  10   4   23.04    4.01
  16 -10  -5    8.22    3.35
 -16  10   5    6.40    3.63
  16 -10  -6   69.02    4.68
 -16  10   6   75.81    5.26
  16 -10  -7  230.57    9.27
 -16  10   7  256.38    9.94
  16 -10  -8   35.85    4.40
 -16  10   8   37.19    4.49
  16 -10  -9   27.63    4.30
 -16  10   9   19.50    3.92
  16 -10 -10  145.01    6.88
 -16  10  10  145.68    6.98
  16 -10 -11    5.45    4.01
 -16  10  11    6.98    3.63
  16 -10 -12   87.47    5.54
 -16  10  12   84.89    5.45
  16 -10 -13   92.06    5.74
 -16  10  13   89.38    5.45
  16 -10 -14   84.12    5.64
  16 -10 -14   72.84    5.07
  16 -10 -15   74.75    5.26
  16 -10 -15   80.39    5.54
  16 -10 -16   37.47    4.30
  16 -10 -16   43.59    4.49
  16 -10 -17   21.70    4.21
  16 -10 -17   33.84    4.21
  16 -10 -18   52.77    4.49
  16 -10 -18   53.72    5.35
  16 -10 -19   -0.57    3.82
  16 -10 -19   -0.38    3.92
  16 -10 -20  113.28    6.31
  16 -10 -20  110.41    6.50
  15  -9   6  181.44    7.93
 -15   9  -6  185.35    8.03
  15  -9   5   40.34    4.49
 -15   9  -5   40.05    4.40
  15  -9   4  152.95    7.27
 -15   9  -4  144.06    6.98
  15  -9   3    8.79    3.92
 -15   9  -3   12.62    3.92
  15  -9   2   18.26    3.92
 -15   9  -2   20.17    3.92
  15  -9   1    9.94    3.82
 -15   9  -1   10.13    3.82
  15  -9   0  173.31    7.65
 -15   9   0  165.09    7.46
  15  -9  -1   54.20    4.88
 -15   9   1   71.12    5.16
  15  -9  -2  135.74    6.79
 -15   9   2  138.80    6.79
  15  -9  -3   19.21    4.21
 -15   9   3   26.00    4.01
  15  -9  -4    4.01    3.35
 -15   9   4    7.36    3.82
  15  -9  -5  220.82    9.46
 -15   9   5  252.46   10.04
  15  -9  -6  212.41    8.79
 -15   9   6  212.98    8.99
  15  -9  -7    1.15    3.82
 -15   9   7    0.67    3.54
  15  -9  -8  262.31   10.32
 -15   9   8  258.67   10.23
  15  -9  -9   14.91    3.92
 -15   9   9   12.91    4.30
  15  -9 -10  138.80    6.98
 -15   9  10  136.79    6.88
  15  -9 -11    4.68    3.92
 -15   9  11    4.88    3.63
  15  -9 -12   48.85    4.78
 -15   9  12   53.34    4.78
  15  -9 -13   26.86    4.21
 -15   9  13   36.90    3.82
  15  -9 -14  431.79   14.91
  15  -9 -14  442.79   15.29
  15  -9 -15    6.31    3.54
  15  -9 -15    6.98    3.92
  15  -9 -16  249.50    9.65
  15  -9 -16  242.33    9.56
  15  -9 -17    4.97    3.63
  15  -9 -17    5.26    3.63
  15  -9 -18    2.01    3.92
  15  -9 -18    5.35    3.63
  15  -9 -19   41.68    4.49
  15  -9 -19   37.38    4.40
  15  -9 -20  101.42    5.93
  15  -9 -20  100.56    5.93
  15  -9 -21    0.00    3.92
  15  -9 -21    1.53    4.30
  14  -8   8    2.58    4.30
 -14   8  -8   -0.76    4.01
  14  -8   7  196.54    8.79
 -14   8  -7  209.63    8.89
  14  -8   6   84.03    5.54
 -14   8  -6   88.81    5.93
  14  -8   5  293.66   11.09
 -14   8  -5  298.25   11.09
  14  -8   4  289.84   10.61
 -14   8  -4  277.12   10.52
  14  -8   3   31.16    3.82
 -14   8  -3   34.70    4.21
  14  -8   2   43.02    4.59
 -14   8  -2   53.63    4.68
  14  -8   1  251.03    9.56
 -14   8  -1  236.59    9.56
  14  -8   0   13.29    4.21
 -14   8   0    7.65    3.44
  14  -8  -1  206.96    8.51
 -14   8   1  239.94    9.75
  14  -8  -2  188.80    8.32
 -14   8   2  184.88    8.22
  14  -8  -3 1073.51   33.84
 -14   8   3 1214.03   37.66
  14  -8  -4  170.92    7.84
 -14   8   4  154.00    7.36
  14  -8  -5    3.35    3.73
 -14   8   5    0.67    3.54
  14  -8  -6  146.83    7.27
 -14   8   6  147.21    7.17
  14  -8  -7  106.59    6.40
 -14   8   7  109.55    6.21
  14  -8  -8   13.57    4.21
 -14   8   8   17.59    4.01
  14  -8  -9   68.16    5.54
 -14   8   9   65.29    5.26
  14  -8 -10  102.19    6.12
 -14   8  10   94.54    5.93
  14  -8 -11   12.04    4.11
 -14   8  11   18.07    4.01
  14  -8 -12  585.51   19.31
 -14   8  12  591.91   19.79
  14  -8 -13  165.66    7.55
  14  -8 -13  170.35    7.84
  14  -8 -14   -0.38    3.35
  14  -8 -14    2.39    3.73
  14  -8 -15   74.66    5.16
  14  -8 -15   76.38    5.16
  14  -8 -16   19.98    4.21
  14  -8 -16   32.98    4.11
  14  -8 -17   34.22    4.30
  14  -8 -17   32.79    4.11
  14  -8 -18   92.15    5.74
  14  -8 -18  103.72    5.93
  14  -8 -19   35.27    4.78
  14  -8 -19   34.99    4.40
  14  -8 -20  186.79    8.32
  14  -8 -20  207.15    8.51
  14  -8 -21   75.14    5.74
  14  -8 -21   75.71    5.64
  13  -7  10  -10.99    5.26
 -13   7 -10    2.58    4.59
  13  -7   9   35.56    5.26
 -13   7  -9   42.63    4.88
  13  -7   8   40.82    4.88
 -13   7  -8   33.08    4.59
  13  -7   7   -0.76    3.63
 -13   7  -7    4.49    4.01
  13  -7   6    2.39    3.35
 -13   7  -6   10.42    3.82
  13  -7   5  791.03   24.85
 -13   7  -5  779.18   24.85
  13  -7   4   85.94    5.45
 -13   7  -4  101.33    5.93
  13  -7   3  684.35   22.18
 -13   7  -3  711.50   22.85
  13  -7   2   92.92    5.26
 -13   7  -2   91.77    5.54
  13  -7   1   47.89    4.97
 -13   7  -1   41.68    4.40
  13  -7   0   -0.48    3.73
 -13   7   0    1.91    3.54
  13  -7  -1   18.07    3.92
 -13   7   1   23.99    4.11
  13  -7  -2  116.24    6.79
 -13   7   2  120.45    6.31
  13  -7  -3 1423.38   43.88
 -13   7   3 1438.67   44.26
  13  -7  -4    2.20    3.73
 -13   7   4    7.36    3.73
  13  -7  -5 1321.09   41.01
 -13   7   5 1345.95   41.58
  13  -7  -6   83.74    5.45
 -13   7   6   77.33    5.35
  13  -7  -7    4.78    4.01
 -13   7   7   14.91    4.01
  13  -7  -8   31.45    4.40
 -13   7   8   25.33    4.21
  13  -7  -9  188.51    8.51
 -13   7   9  179.81    8.22
  13  -7 -10   10.99    3.92
 -13   7  10   20.84    4.11
  13  -7 -11 1268.52   39.29
 -13   7  11 1215.94   37.85
  13  -7 -12    3.63    3.25
  13  -7 -13   55.73    4.78
  13  -7 -13   54.77    4.78
  13  -7 -14    1.72    3.44
  13  -7 -14    4.49    3.54
  13  -7 -15    3.63    3.54
  13  -7 -15    5.35    3.44
  13  -7 -16   -3.54    3.54
  13  -7 -16    0.10    3.15
  13  -7 -17  330.56   11.95
  13  -7 -17  351.21   12.52
  13  -7 -18   44.83    4.40
  13  -7 -18   36.52    4.11
  13  -7 -19  144.06    7.07
  13  -7 -19  128.86    6.31
  13  -7 -20    7.65    4.21
  13  -7 -20    1.24    3.63
  13  -7 -21    6.79    4.49
  13  -7 -21    0.67    4.01
  13  -7 -22   13.77    4.49
  13  -7 -22   14.72    4.68
  12  -6  11    6.88    5.16
 -12   6 -11    8.70    4.49
  12  -6  10   34.80    5.16
 -12   6 -10   32.50    4.49
  12  -6   9  158.01    7.27
 -12   6  -9  172.26    7.74
  12  -6   8    0.96    3.92
 -12   6  -8    7.07    3.63
  12  -6   7  260.59    9.65
 -12   6  -7  277.51   10.23
  12  -6   6   91.67    5.35
 -12   6  -6   82.21    5.16
  12  -6   5    9.65    3.63
 -12   6  -5   10.61    3.25
  12  -6   4  385.14   13.57
 -12   6  -4  379.60   13.29
  12  -6   3   -0.67    3.25
 -12   6  -3    3.44    3.35
  12  -6   2  175.70    7.74
 -12   6  -2  171.40    7.65
  12  -6   1  914.82   29.35
 -12   6  -1  946.85   29.82
  12  -6   0   55.92    4.30
 -12   6   0   57.64    4.68
  12  -6  -1 1195.87   37.09
 -12   6   1 1180.57   36.52
  12  -6  -2  214.80    9.18
 -12   6   2  209.44    8.60
  12  -6  -3   92.15    5.45
 -12   6   3   85.65    5.45
  12  -6  -4 1144.24   35.75
 -12   6   4 1149.98   35.85
  12  -6  -5  130.10    6.79
 -12   6   5  127.43    6.60
  12  -6  -6    3.44    3.63
 -12   6   6    2.01    3.63
  12  -6  -7 1033.36   32.60
 -12   6   7 1092.62   34.32
  12  -6  -8    3.06    3.35
 -12   6   8    3.54    3.73
  12  -6  -9  474.62   16.25
 -12   6   9  462.10   16.06
  12  -6 -10  542.49   18.16
 -12   6  10  543.73   18.35
  12  -6 -11    8.79    3.73
 -12   6  11   15.49    3.06
  12  -6 -12   14.05    3.92
  12  -6 -12    9.85    3.82
  12  -6 -13  209.54    8.79
  12  -6 -13  195.68    8.32
  12  -6 -14   -4.59    3.54
  12  -6 -14    3.35    3.73
  12  -6 -15   52.58    4.30
  12  -6 -15   58.02    4.78
  12  -6 -16  351.78   12.71
  12  -6 -16  355.99   12.62
  12  -6 -17    7.65    3.54
  12  -6 -17   -2.29    3.35
  12  -6 -18    9.65    3.73
  12  -6 -18   16.44    4.01
  12  -6 -19    7.65    3.44
  12  -6 -19   -4.01    3.35
  12  -6 -20   -4.49    4.01
  12  -6 -20    1.15    3.63
  12  -6 -21  162.70    7.46
  12  -6 -21  175.41    7.74
  12  -6 -22    0.38    4.01
  12  -6 -22   -2.68    4.30
  11  -5  12   75.33    5.83
 -11   5 -12   73.22    5.74
  11  -5  11    7.65    4.21
 -11   5 -11   12.62    3.92
  11  -5  10   50.86    4.68
 -11   5 -10   48.85    4.59
  11  -5   9    4.01    3.63
 -11   5  -9    8.51    3.54
  11  -5   8  407.13   13.77
 -11   5  -8  413.92   13.96
  11  -5   7    2.29    3.15
 -11   5  -7    2.10    3.35
  11  -5   6   87.75    5.16
 -11   5  -6   88.61    5.26
  11  -5   5    3.63    3.06
 -11   5  -5    5.35    3.35
  11  -5   4   -2.10    3.35
 -11   5  -4    0.57    3.25
  11  -5   3   12.91    3.25
 -11   5  -3   13.00    3.35
  11  -5   2  569.25   18.93
 -11   5  -2  570.88   18.74
  11  -5   1   17.30    3.73
 -11   5  -1   19.41    3.63
  11  -5   0 1346.90   41.30
 -11   5   0 1280.94   39.58
  11  -5  -1  238.98    9.75
 -11   5   1  245.77    9.65
  11  -5  -2  352.83   12.91
 -11   5   2  356.18   12.91
  11  -5  -3   75.23    4.97
 -11   5   3   79.25    5.07
  11  -5  -4    3.63    3.63
 -11   5   4    3.35    3.54
  11  -5  -5    6.69    3.25
 -11   5   5    6.98    3.63
  11  -5  -6 1595.44   48.85
 -11   5   6 1653.75   50.38
  11  -5  -7   43.49    4.68
 -11   5   7   43.97    4.49
  11  -5  -8 2452.91   73.80
 -11   5   8 2438.57   73.42
  11  -5  -9  527.10   17.68
 -11   5   9  536.66   18.07
  11  -5 -10   41.01    4.40
 -11   5  10   47.22    4.21
  11  -5 -11  202.08    8.51
  11  -5 -11  219.00    8.89
  11  -5 -12  241.28    9.56
  11  -5 -12  230.19    9.18
  11  -5 -14  867.89   27.44
  11  -5 -14  875.92   27.72
  11  -5 -15  296.62   11.18
  11  -5 -15  287.54   10.71
  11  -5 -16   28.20    3.82
  11  -5 -16   37.76    4.11
  11  -5 -17  215.47    8.79
  11  -5 -17  209.44    8.60
  11  -5 -18    2.39    3.73
  11  -5 -18    0.38    3.54
  11  -5 -19   36.71    4.11
  11  -5 -19   28.49    3.92
  11  -5 -20   93.59    5.35
  11  -5 -20  103.05    5.83
  11  -5 -21   29.73    4.30
  11  -5 -21   32.79    4.21
  11  -5 -22  133.73    6.79
  11  -5 -22  149.22    7.07
  10  -4  13    1.63    3.06
  10  -4  13    2.20    3.15
  10  -4  12  129.34    6.02
 -10   4 -12  131.15    6.31
  10  -4  11   26.00    3.82
 -10   4 -11   21.51    3.82
  10  -4  10  252.84    9.37
 -10   4 -10  259.06    9.46
  10  -4   9   52.38    4.01
 -10   4  -9   41.30    3.92
  10  -4   8    2.77    3.44
 -10   4  -8   -2.77    2.87
  10  -4   7   35.75    4.01
 -10   4  -7   38.24    3.73
  10  -4   6   98.08    5.07
 -10   4  -6   97.31    5.26
  10  -4   5   67.39    4.88
 -10   4  -5   67.78    4.49
  10  -4   4  264.31    9.75
 -10   4  -4  271.39   10.04
  10  -4   3  104.58    5.35
 -10   4  -3  124.46    5.93
  10  -4   2  324.06   11.66
 -10   4  -2  309.34   11.09
  10  -4   1  605.39   19.50
 -10   4  -1  589.14   19.21
  10  -4   0  204.76    8.22
 -10   4   0  214.80    8.60
  10  -4  -1   51.33    4.59
 -10   4   1   45.98    4.40
  10  -4  -2  145.30    6.79
 -10   4   2  139.95    6.69
  10  -4  -3  306.18   11.18
 -10   4   3  297.87   11.09
  10  -4  -4 1518.01   46.36
 -10   4   4 1480.73   45.41
  10  -4  -5   87.85    5.26
 -10   4   5   84.41    5.45
  10  -4  -6  472.99   16.06
 -10   4   6  459.90   15.77
  10  -4  -7 1253.22   38.62
 -10   4   7 1257.04   38.91
  10  -4  -8 2989.19   89.38
 -10   4   8 2829.54   84.60
  10  -4  -9  118.25    6.12
  10  -4 -10 1769.42   53.72
  10  -4 -10 1812.44   54.97
  10  -4 -11  282.57   10.61
  10  -4 -11  276.74   10.42
  10  -4 -12   87.37    5.35
  10  -4 -12   92.44    5.26
  10  -4 -13   46.84    4.21
  10  -4 -13   46.65    4.11
  10  -4 -14   10.80    3.44
  10  -4 -14    6.12    3.25
  10  -4 -15    2.68    3.82
  10  -4 -15    8.22    3.25
  10  -4 -16  791.41   25.24
  10  -4 -16  794.57   25.05
  10  -4 -17   23.04    3.35
  10  -4 -17   22.46    3.82
  10  -4 -18   92.63    5.45
  10  -4 -18   87.37    4.88
  10  -4 -19    3.73    3.54
  10  -4 -19   -1.91    3.25
  10  -4 -20   45.60    4.30
  10  -4 -20   39.29    4.21
  10  -4 -21  106.11    5.83
  10  -4 -21  111.65    5.93
  10  -4 -22   97.89    5.93
  10  -4 -22   99.23    5.74
  10  -4 -23    3.44    4.88
  10  -4 -23    1.15    4.59
   9  -3  12    0.29    2.49
   9  -3  12   -0.19    2.39
   9  -3  11   27.44    3.35
  -9   3 -11   23.52    3.25
   9  -3  10   17.68    3.15
  -9   3 -10   12.91    3.15
   9  -3   9  163.08    6.69
  -9   3  -9  140.23    5.93
   9  -3   8    2.29    2.96
  -9   3  -8    0.86    2.77
   9  -3   7  120.54    5.35
  -9   3  -7  105.34    5.26
   9  -3   6  343.46   11.95
  -9   3  -6  355.89   12.14
   9  -3   5  142.72    6.21
  -9   3  -5  154.10    6.50
   9  -3   4  264.60    9.56
  -9   3  -4  249.78    9.18
   9  -3   3  223.78    8.89
  -9   3  -3  210.21    8.13
   9  -3   2   96.26    5.35
  -9   3  -2   90.81    4.97
   9  -3   1 1414.77   43.11
  -9   3  -1 1375.58   41.97
   9  -3   0  503.01   16.82
  -9   3   0  528.44   17.30
   9  -3  -1  109.55    5.83
  -9   3   1  107.06    5.74
   9  -3  -2  172.26    7.46
  -9   3   2  200.65    8.32
   9  -3  -3 1338.30   41.10
  -9   3   3 1360.28   41.68
   9  -3  -4    0.67    3.06
  -9   3   4    8.32    3.54
   9  -3  -5  249.78    9.85
  -9   3   5  240.13    9.46
   9  -3  -6    7.93    3.44
  -9   3   6    7.46    3.63
   9  -3  -7   72.55    5.07
  -9   3   7   81.06    5.16
   9  -3  -8   44.36    4.40
   9  -3  -8   36.80    4.11
   9  -3  -9 1007.55   31.35
   9  -3  -9 1019.97   31.83
   9  -3 -10   58.69    4.49
   9  -3 -10   60.32    4.49
   9  -3 -12  256.86    9.75
   9  -3 -12  261.83    9.85
   9  -3 -13  120.06    5.93
   9  -3 -13  119.49    5.83
   9  -3 -14   78.58    4.97
   9  -3 -14   82.21    5.26
   9  -3 -15   52.96    4.40
   9  -3 -15   55.35    4.30
   9  -3 -16   -0.76    3.44
   9  -3 -16    1.43    3.35
   9  -3 -17  212.31    8.32
   9  -3 -17  222.16    8.60
   9  -3 -18   99.61    5.45
   9  -3 -18   87.37    4.97
   9  -3 -19  300.07   10.71
   9  -3 -19  297.68   10.52
   9  -3 -20    7.65    3.35
   9  -3 -20    8.51    3.54
   9  -3 -21    1.82    3.63
   9  -3 -21    5.16    3.54
   9  -3 -22    6.69    4.30
   9  -3 -22    6.79    3.82
   9  -3 -23   73.89    5.74
   9  -3 -23   66.72    6.12
   8  -2  12    1.34    1.63
   8  -2  12    1.15    1.63
   8  -2  11  155.43    5.74
  -8   2 -11  147.21    5.64
   8  -2  10  286.87    9.65
  -8   2 -10  329.13   10.90
   8  -2   9   17.59    2.68
  -8   2  -9   13.19    2.49
   8  -2   8   61.75    3.63
  -8   2  -8   66.72    3.92
   8  -2   7  751.45   23.52
  -8   2  -7  760.63   23.61
   8  -2   6   26.77    3.06
  -8   2  -6   25.43    2.96
   8  -2   5  182.87    6.79
  -8   2  -5  187.46    7.07
   8  -2   4    2.77    2.58
  -8   2  -4    4.21    2.39
   8  -2   3  547.75   17.59
  -8   2  -3  512.76   16.54
   8  -2   2   66.53    4.11
  -8   2  -2   56.50    4.01
   8  -2   1 1697.73   51.33
  -8   2  -1 1729.27   52.19
   8  -2   0  319.95   11.38
  -8   2   0  305.32   10.90
   8  -2  -1  605.68   19.50
  -8   2   1  594.97   19.21
   8  -2  -2   80.30    4.97
  -8   2   2   84.89    4.97
   8  -2  -3  672.02   21.51
  -8   2   3  650.80   21.03
   8  -2  -4   42.54    4.30
  -8   2   4   32.69    3.92
   8  -2  -5 4812.14  142.34
  -8   2   5 4827.43  142.82
   8  -2  -6    8.13    3.35
  -8   2   6   11.57    2.77
   8  -2  -7 3428.91  102.00
   8  -2  -7 3463.32  103.05
   8  -2  -8   13.48    3.44
   8  -2  -8    4.78    3.15
   8  -2  -9  409.04   14.05
   8  -2  -9  398.14   13.67
   8  -2 -10  464.10   15.58
   8  -2 -10  486.76   16.25
   8  -2 -11   90.81    5.07
   8  -2 -11   90.72    5.26
   8  -2 -12   -0.10    2.87
   8  -2 -12    4.97    3.06
   8  -2 -13 1016.15   31.55
   8  -2 -13 1073.51   33.27
   8  -2 -14   30.59    3.92
   8  -2 -14   40.34    3.92
   8  -2 -15 1560.07   47.51
   8  -2 -15 1529.48   46.46
   8  -2 -16   46.55    3.92
   8  -2 -16   40.53    3.92
   8  -2 -17    4.30    3.06
   8  -2 -17    9.56    3.25
   8  -2 -18  134.88    6.12
   8  -2 -18  136.89    6.21
   8  -2 -19  239.27    8.89
   8  -2 -19  212.50    8.32
   8  -2 -20   45.12    4.11
   8  -2 -20   47.41    4.21
   8  -2 -21  112.61    5.74
   8  -2 -21  123.60    6.12
   8  -2 -22    8.51    4.21
   8  -2 -22    9.08    4.11
   8  -2 -23   -0.29    4.59
   8  -2 -23   -1.53    5.26
   7  -1  10   19.02    1.91
  -7   1 -10   19.21    2.10
   7  -1   9   33.27    2.49
  -7   1  -9   30.78    2.49
   7  -1   8  886.91   26.96
  -7   1  -8  908.61   27.72
   7  -1   7   50.47    3.25
  -7   1  -7   48.27    3.06
   7  -1   6  275.79    9.27
  -7   1  -6  300.16   10.04
   7  -1   5  275.40    9.46
  -7   1  -5  261.73    8.89
   7  -1   4  321.00   10.99
  -7   1  -4  330.08   10.99
   7  -1   3   93.11    4.49
  -7   1  -3   78.77    4.11
   7  -1   2 1258.96   38.24
  -7   1  -2 1297.19   39.29
   7  -1   1   15.87    2.87
  -7   1  -1   17.21    2.96
   7  -1   0  364.30   12.24
  -7   1   0  338.59   11.76
   7  -1  -1 1274.25   38.81
  -7   1   1 1312.49   39.96
   7  -1  -2  101.14    5.35
  -7   1   2  102.67    5.45
   7  -1  -3  273.49   10.04
  -7   1   3  289.26   10.52
   7  -1  -4 1808.61   54.58
  -7   1   4 1755.08   52.96
   7  -1  -5 1334.47   40.72
   7  -1  -5 1298.15   39.58
   7  -1  -6  594.78   19.41
   7  -1  -6  590.57   19.12
   7  -1  -7   48.47    4.30
   7  -1  -7   47.89    4.21
   7  -1  -8   40.53    4.01
   7  -1  -8   35.94    3.82
   7  -1  -9  305.61   10.99
   7  -1  -9  330.08   11.76
   7  -1 -10  402.35   13.67
   7  -1 -10  395.56   13.48
   7  -1 -11  471.18   15.68
   7  -1 -11  481.88   16.06
   7  -1 -12  518.30   17.02
   7  -1 -12  561.32   18.35
   7  -1 -13    8.99    3.06
   7  -1 -13   15.96    2.96
   7  -1 -15  598.79   19.31
   7  -1 -15  596.02   19.21
   7  -1 -16    6.88    2.96
   7  -1 -16    6.50    3.15
   7  -1 -17  938.15   29.06
   7  -1 -17  918.65   28.49
   7  -1 -18   44.83    3.82
   7  -1 -18   38.05    3.63
   7  -1 -19   26.38    3.54
   7  -1 -19   29.25    3.44
   7  -1 -20  108.50    5.45
   7  -1 -20  103.81    5.35
   7  -1 -21    5.16    3.73
   7  -1 -21    4.49    3.63
   7  -1 -22   74.28    5.45
   7  -1 -22   67.68    5.54
   6   0   9    1.24    1.34
   6   0   9    1.63    1.24
   6   0   8  211.64    6.98
  -6   0  -8  193.48    6.50
   6   0   7   -1.82    1.43
  -6   0  -7   -2.20    1.63
   6   0   6  817.13   24.85
  -6   0  -6  820.76   24.85
   6   0   5   -1.72    1.82
  -6   0  -5   -0.10    1.82
   6   0   4  971.22   29.35
  -6   0  -4 1014.24   30.59
   6   0   3    2.58    2.10
  -6   0  -3   -1.43    2.10
   6   0   2 1621.25   48.75
  -6   0  -2 1657.58   49.61
   6   0   1    3.06    2.49
  -6   0  -1    0.48    2.29
   6   0   0  464.87   15.10
  -6   0   0  461.14   14.91
   6   0  -1    3.63    3.06
  -6   0   1    6.79    3.06
   6   0  -2   84.70    4.78
   6   0  -2   85.36    4.97
   6   0  -3   -3.54    3.54
   6   0  -3   -0.76    3.06
   6   0  -4 3921.21  116.15
   6   0  -4 3859.08  114.42
   6   0  -5   -3.73    3.06
   6   0  -5   -1.05    3.25
   6   0  -6 1126.08   34.60
   6   0  -6 1121.30   34.51
   6   0  -7    0.57    2.87
  -6   0   7    0.00    2.87
   6   0  -8  291.94   10.42
  -6   0   8  278.84   10.04
   6   0  -9    1.24    3.06
  -6   0   9    2.20    2.87
   6   0 -10  785.87   24.76
  -6   0  10  742.47   23.32
   6   0 -11    1.05    2.87
  -6   0  11    0.48    2.39
   6   0 -12  166.14    6.98
   6   0 -13   -2.20    2.77
   6   0 -13    1.91    2.77
   6   0 -14  225.41    8.51
   6   0 -14  221.87    8.41
   6   0 -15   -2.01    2.87
   6   0 -15   -3.06    2.77
   6   0 -16  855.84   26.67
   6   0 -16  876.30   27.24
   6   0 -17   -1.15    2.68
   6   0 -17   -1.24    2.77
   6   0 -18    9.08    2.96
   6   0 -18   10.13    2.96
   6   0 -19   -1.63    2.87
   6   0 -19    0.38    2.96
   6   0 -20    2.01    2.96
   6   0 -20   -1.34    3.35
   6   0 -21    4.78    3.63
   6   0 -21    1.24    3.82
   6   0 -22  109.36    5.83
   6   0 -22  115.48    6.50
   5   1   7  127.52    4.30
   5   1   7  123.31    4.11
   5   1   6  108.40    3.92
   5   1   6  104.29    3.73
   5   1   5  164.42    5.54
   5   1   5  179.81    6.12
   5   1   4  888.63   26.77
   5   1   4  851.73   25.62
   5   1   3 1814.35   54.01
   5   1   3 1791.41   53.25
   5   1   2 2634.54   78.00
   5   1   2 2667.04   78.96
   5   1   1 1157.63   34.89
   5   1   1 1162.41   35.08
   5   1   0 1316.31   39.77
   5   1   0 1282.85   38.72
   5   1  -1 5971.68  175.89
   5   1  -2 3818.93  113.09
  -5  -1   2 3874.37  114.62
   5   1  -3    3.44    3.35
  -5  -1   3    8.51    3.63
   5   1  -5   31.45    3.82
  -5  -1   5   35.56    3.92
   5   1  -6  762.93   23.90
  -5  -1   6  718.76   22.66
   5   1  -7  280.28   10.13
  -5  -1   7  269.09    9.75
   5   1  -8  454.07   15.01
  -5  -1   8  466.21   15.29
   5   1  -9  254.28    9.27
  -5  -1   9  210.88    8.32
   5   1 -10 1782.80   53.72
  -5  -1  10 1932.89   57.93
   5   1 -11   34.70    3.44
  -5  -1  11   26.77    3.25
   5   1 -12  484.18   15.87
  -5  -1  12  481.60   16.06
   5   1 -13   13.48    2.96
  -5  -1  13    8.70    2.58
   5   1 -14  260.49    9.46
  -5  -1  14  290.32   10.32
   5   1 -15  180.38    7.36
  -5  -1  15  186.60    7.36
   5   1 -16   13.38    2.96
   5   1 -17  156.10    6.40
   5   1 -17  152.47    6.50
   5   1 -18   18.35    3.06
   5   1 -18   22.75    3.35
   5   1 -19   18.16    3.15
   5   1 -19   15.49    3.35
   5   1 -20  288.50   10.23
   5   1 -20  288.40   10.61
   5   1 -21   62.80    4.30
   5   1 -21   58.98    4.88
   4   2   5  149.79    4.88
   4   2   5  156.29    5.07
   4   2   4    2.10    1.24
   4   2   4    2.29    1.15
   4   2   3 2245.47   66.53
   4   2   3 2196.72   65.00
   4   2   2  555.68   17.02
   4   2   2  594.49   18.16
   4   2   1  125.61    4.97
  -4  -2  -1  118.34    4.78
   4   2   0 1704.42   50.95
  -4  -2   0 1701.55   50.76
   4   2  -1 2458.65   73.03
  -4  -2   1 2468.20   73.32
   4   2  -2 3065.66   90.91
  -4  -2   2 2876.39   85.46
   4   2  -4  244.53    9.18
  -4  -2   4  242.61    9.37
   4   2  -5  153.14    6.79
  -4  -2   5  147.21    6.50
   4   2  -6  412.48   13.86
  -4  -2   6  404.64   13.57
   4   2  -7   86.89    4.78
  -4  -2   7   79.92    4.49
   4   2  -8    4.21    2.77
  -4  -2   8    6.12    2.77
   4   2  -9  792.46   24.76
  -4  -2   9  765.70   24.18
   4   2 -10   14.34    2.96
  -4  -2  10    7.17    2.68
   4   2 -11 1278.07   38.91
  -4  -2  11 1258.00   38.43
   4   2 -12   65.96    4.21
  -4  -2  12   91.67    4.97
   4   2 -13  602.90   19.31
  -4  -2  13  621.83   19.79
   4   2 -14   56.59    3.92
  -4  -2  14   35.08    3.44
   4   2 -15  175.32    7.17
  -4  -2  15  164.42    6.60
   4   2 -16    3.06    2.96
  -4  -2  16    5.07    2.68
   4   2 -17  147.40    6.40
  -4  -2  17  149.22    6.31
   4   2 -18    9.27    2.96
   4   2 -18   10.04    2.68
   4   2 -19  471.18   15.49
   4   2 -19  468.40   15.29
   4   2 -20    8.89    3.44
   4   2 -20    2.68    3.82
   4   2 -21   56.30    4.49
   4   2 -21   59.17    4.68
   4   2 -22   23.23    4.88
   4   2 -22   10.23    4.30
   3   3   4  346.05   10.71
   3   3   4  336.30   10.42
   3   3   3  585.79   17.78
  -3  -3  -3  593.15   17.97
   3   3   2 2395.55   70.83
  -3  -3  -2 2615.42   77.33
   3   3   1  595.16   18.35
  -3  -3  -1  601.85   18.54
   3   3   0    1.43    2.58
  -3  -3   0   -2.01    2.39
   3   3  -1  988.43   30.11
  -3  -3   1  975.05   29.82
   3   3  -2 1105.05   33.65
  -3  -3   2 1019.02   31.26
   3   3  -4 1626.99   49.04
  -3  -3   4 1680.52   50.76
   3   3  -5   10.90    3.35
  -3  -3   5   16.25    3.44
   3   3  -6  559.79   17.97
  -3  -3   6  569.83   18.35
   3   3  -7  913.10   28.30
  -3  -3   7  935.66   28.77
   3   3  -8   72.27    4.40
  -3  -3   8   73.22    4.68
   3   3  -9  282.48   10.13
  -3  -3   9  265.46    9.65
   3   3 -10  113.76    5.45
  -3  -3  10   83.07    4.30
   3   3 -11   26.57    3.35
  -3  -3  11   37.19    3.82
   3   3 -12  713.22   22.46
  -3  -3  12  742.09   23.42
   3   3 -13  327.41   11.47
  -3  -3  13  318.90   11.09
   3   3 -14  115.67    5.64
  -3  -3  14  114.42    5.64
   3   3 -15  639.52   20.46
  -3  -3  15  677.75   21.32
   3   3 -16  151.80    6.50
  -3  -3  16  160.21    6.60
   3   3 -17  233.25    8.60
  -3  -3  17  238.41    8.70
   3   3 -18  203.04    7.84
  -3  -3  18  215.56    8.13
   3   3 -19   15.20    3.44
   3   3 -20   57.45    4.40
   3   3 -20   53.05    4.78
   3   3 -21  168.72    7.27
   3   3 -21  159.07    7.36
   2   4   5  506.93   15.58
  -2  -4  -5  521.94   16.06
   2   4   4  654.71   19.69
  -2  -4  -4  692.09   20.84
   2   4   3 1020.93   30.59
  -2  -4  -3  976.96   29.35
   2   4   2  813.02   24.66
  -2  -4  -2  871.14   26.38
   2   4   1   19.60    2.87
  -2  -4  -1   13.77    2.87
   2   4   0  476.43   15.29
  -2  -4   0  471.85   15.39
   2   4  -1  832.90   25.81
  -2  -4   1  849.82   26.38
  -2  -4   2 4564.55  134.88
   2   4  -3  274.35    9.94
  -2  -4   3  281.71   10.32
   2   4  -4 1083.07   33.27
  -2  -4   4 1115.57   34.22
   2   4  -5 2222.53   66.44
  -2  -4   5 2353.49   70.26
   2   4  -6 1169.10   35.85
  -2  -4   6 1156.67   35.46
   2   4  -7   82.69    4.78
  -2  -4   7   77.24    4.49
   2   4  -8 1258.96   38.43
  -2  -4   8 1282.85   39.29
   2   4  -9   22.18    3.25
  -2  -4   9   20.55    3.06
   2   4 -10  726.89   22.94
  -2  -4  10  751.55   23.80
   2   4 -11   21.89    3.15
  -2  -4  11   20.27    3.54
   2   4 -12   54.58    4.11
  -2  -4  12   55.25    3.82
   2   4 -13   24.57    3.35
  -2  -4  13   28.30    3.35
   2   4 -14  591.43   19.02
  -2  -4  14  591.72   19.02
   2   4 -15   18.16    3.44
  -2  -4  15   18.16    3.15
   2   4 -16  473.66   15.58
  -2  -4  16  471.56   15.39
   2   4 -17  383.04   12.91
  -2  -4  17  382.56   12.91
   2   4 -18    3.82    3.25
  -2  -4  18    6.12    3.25
   2   4 -19  107.64    5.64
  -2  -4  19   90.53    4.97
   2   4 -20   79.34    5.16
   2   4 -21    5.45    5.45
   2   4 -21   19.31    5.07
  -1  -5  -7    4.78    1.05
   1   5   6  879.74   26.48
  -1  -5  -6  954.49   28.68
   1   5   5    3.44    1.53
  -1  -5  -5    4.11    1.63
   1   5   4 1729.27   51.52
  -1  -5  -4 1751.26   52.10
   1   5   3  111.46    4.59
  -1  -5  -3  109.84    4.68
   1   5   2 1615.52   48.47
  -1  -5  -2 1547.65   46.36
   1   5   1  568.39   17.97
  -1  -5  -1  571.55   18.16
   1   5   0    7.55    3.35
  -1  -5   0    3.82    3.06
   1   5  -1  117.77    5.54
  -1  -5   1  111.56    5.64
   1   5  -2   12.62    3.44
  -1  -5   2   14.63    3.63
   1   5  -3  258.58    9.46
  -1  -5   3  285.92   10.52
   1   5  -4 5650.49  166.71
  -1  -5   4 5593.13  164.99
   1   5  -5   49.52    4.21
  -1  -5   5   50.76    4.30
   1   5  -6  195.58    7.84
  -1  -5   6  184.97    7.55
   1   5  -7  176.27    7.46
  -1  -5   7  200.55    8.03
   1   5  -8   54.77    4.21
  -1  -5   8   55.92    4.21
   1   5  -9  193.96    7.84
  -1  -5   9  198.07    7.74
   1   5 -10  818.18   25.71
  -1  -5  10  767.80   24.66
   1   5 -11   35.18    3.63
  -1  -5  11   35.75    3.73
   1   5 -12 1279.03   39.10
  -1  -5  12 1453.01   43.97
   1   5 -13   66.53    4.59
  -1  -5  13   64.91    4.59
   1   5 -14   93.87    5.16
  -1  -5  14   76.38    4.40
   1   5 -15  160.79    6.79
  -1  -5  15  156.77    6.60
   1   5 -16  429.21   14.34
  -1  -5  16  435.42   14.53
   1   5 -17  128.09    6.12
  -1  -5  17  141.96    6.40
   1   5 -18  331.04   11.66
  -1  -5  18  352.83   12.24
   1   5 -19   11.85    3.63
  -1  -5  19    3.92    3.73
   1   5 -20   26.29    4.97
  -1  -5  20   31.64    4.40
   0  -6  -9  907.27   27.34
   0  -6  -9  937.10   28.30
   0   6   8  274.54    8.79
   0  -6  -8  283.53    9.08
   0   6   7   59.84    2.87
   0  -6  -7   57.55    2.96
   0   6   6   28.87    2.29
   0  -6  -6   31.74    2.49
   0   6   5  251.12    8.70
   0  -6  -5  238.60    8.22
   0   6   4   71.22    3.82
   0  -6  -4   69.69    3.92
   0   6   3 1256.09   38.05
   0  -6  -3 1234.10   37.38
   0   6   2  696.68   21.80
   0  -6  -2  656.82   20.74
   0   6   1   68.92    4.40
   0  -6  -1   69.21    4.30
   0   6   0  788.54   24.66
   0  -6   0  803.46   25.14
   0   6  -1   80.78    4.88
   0  -6   1   85.94    4.97
   0   6  -2  712.55   22.56
   0  -6   2  705.57   22.56
   0   6  -3 1258.00   38.43
   0  -6   3 1306.75   39.96
   0   6  -4   73.22    4.88
   0  -6   4   73.99    4.78
   0   6  -5  237.45    9.18
   0  -6   5  237.55    9.18
   0   6  -6   27.24    3.73
   0  -6   6   29.92    3.54
   0   6  -7   56.78    4.21
   0  -6   7   66.15    4.68
   0   6  -8  312.01   11.18
   0  -6   8  312.97   11.28
   0   6  -9  983.65   30.69
   0  -6   9  999.90   31.16
   0   6 -10   -0.48    2.77
   0  -6  10   -0.38    2.87
   0   6 -11 1686.26   51.14
   0  -6  11 1777.07   53.63
   0   6 -12   36.80    3.73
   0  -6  12   42.25    4.30
   0   6 -13   80.78    4.88
   0  -6  13   82.97    4.68
   0   6 -14   18.26    3.44
   0  -6  14   21.51    3.54
   0   6 -15  118.25    5.74
   0  -6  15  132.59    6.12
   0   6 -16   -0.96    3.25
   0  -6  16    4.49    2.96
   0   6 -17  300.16   10.90
   0  -6  17  277.89   10.13
   0   6 -18   16.25    3.73
   0  -6  18   13.10    3.92
   0   6 -19  245.96    9.75
   0  -6  19  238.89    9.65
   1  -7 -11   23.52    1.91
   1  -7 -11   28.96    2.01
   1  -7 -10    2.96    1.72
   1  -7 -10    6.50    1.82
  -1   7   9 1534.26   45.88
   1  -7  -9 1430.07   42.83
  -1   7   8  138.04    5.35
   1  -7  -8  122.07    4.88
  -1   7   7  683.11   21.03
   1  -7  -7  692.76   21.51
  -1   7   6  176.94    6.69
   1  -7  -6  194.34    7.27
  -1   7   5   80.49    4.30
   1  -7  -5   76.76    4.21
  -1   7   4  805.56   25.14
   1  -7  -4  803.84   25.05
  -1   7   3 1245.57   37.95
   1  -7  -3 1224.54   37.28
  -1   7   2  149.60    6.40
   1  -7  -2  156.58    6.79
  -1   7   1 1112.70   34.22
   1  -7  -1 1160.50   35.75
  -1   7   0  676.41   21.70
   1  -7   0  663.41   21.32
  -1   7  -1 1800.01   54.30
   1  -7   1 1874.57   56.50
  -1   7  -2   59.65    4.49
   1  -7   2   58.02    4.68
  -1   7  -3  132.49    6.31
   1  -7   3  136.22    6.50
  -1   7  -4  493.64   16.54
   1  -7   4  479.68   16.16
  -1   7  -5  445.27   15.10
   1  -7   5  495.94   16.54
  -1   7  -6    3.25    3.15
   1  -7   6   -2.29    3.15
  -1   7  -7 1675.74   50.86
   1  -7   7 1754.13   53.25
  -1   7  -8  144.73    6.50
   1  -7   8   93.78    5.16
  -1   7  -9  465.73   15.58
   1  -7   9  468.50   16.16
  -1   7 -10    7.07    2.96
   1  -7  10    0.10    3.15
  -1   7 -11   26.57    3.82
   1  -7  11   18.93    3.54
  -1   7 -12    2.49    3.06
   1  -7  12   -0.86    3.15
  -1   7 -13  496.13   16.63
   1  -7  13  448.90   14.91
  -1   7 -14  108.78    5.64
   1  -7  14   98.36    4.97
  -1   7 -15  203.33    8.03
   1  -7  15  175.99    7.17
  -1   7 -16   -1.15    3.35
   1  -7  16    6.69    3.35
  -1   7 -17    8.89    3.92
   1  -7  17    4.11    3.73
  -1   7 -18   44.93    5.07
   1  -7  18   36.13    4.59
   2  -8 -13  499.38   15.49
   2  -8 -13  547.46   16.82
   2  -8 -12  237.74    8.13
   2  -8 -12  252.36    8.51
   2  -8 -11  300.45   10.04
   2  -8 -11  290.89    9.65
  -2   8  10   40.15    3.06
   2  -8 -10   37.76    2.87
  -2   8   9   -2.68    2.20
   2  -8  -9    7.07    2.29
  -2   8   8  564.86   17.78
   2  -8  -8  562.95   17.88
  -2   8   7   84.60    4.59
   2  -8  -7   92.25    4.59
  -2   8   6    9.27    2.68
   2  -8  -6   12.04    2.68
  -2   8   5   84.31    4.68
   2  -8  -5   91.48    4.88
  -2   8   4   30.49    3.44
   2  -8  -4   35.08    3.63
  -2   8   3 1487.42   45.31
   2  -8  -3 1452.05   44.16
  -2   8   2  664.94   21.41
   2  -8  -2  769.62   24.47
  -2   8   1   40.82    4.11
   2  -8  -1   48.56    4.11
  -2   8   0 3356.26   99.99
   2  -8   0 3347.66   99.51
  -2   8  -1  222.54    8.89
   2  -8   1  252.65    9.85
  -2   8  -2 1084.98   33.74
   2  -8   2 1119.39   34.80
  -2   8  -3 1959.65   59.27
   2  -8   3 1803.83   54.87
  -2   8  -4  142.53    6.69
   2  -8   4  139.47    6.60
  -2   8  -5  203.42    8.32
   2  -8   5  197.49    8.22
  -2   8  -6 1301.97   40.05
   2  -8   6 1441.54   44.36
  -2   8  -7   46.55    4.21
   2  -8   7   47.41    4.21
  -2   8  -8  705.19   22.66
   2  -8   8  605.58   19.98
  -2   8  -9  136.03    6.31
   2  -8   9  109.84    6.02
  -2   8 -10  332.28   11.95
   2  -8  10  324.92   11.66
  -2   8 -11   37.09    4.11
   2  -8  11   50.95    4.49
  -2   8 -12  566.58   18.54
   2  -8  12  570.88   18.45
  -2   8 -13  107.73    5.54
   2  -8  13  103.53    5.45
  -2   8 -14  244.05    9.27
   2  -8  14  232.00    8.89
  -2   8 -15    2.58    3.44
   2  -8  15    4.01    3.54
  -2   8 -16   13.29    4.01
   2  -8  16   17.21    4.01
  -2   8 -17   71.89    5.54
   2  -8  17   83.17    5.54
  -2   8 -18    4.49    4.78
   2  -8  18   -0.76    4.68
   3  -9 -15    2.39    1.53
   3  -9 -15   -0.57    1.63
   3  -9 -14  197.97    6.98
   3  -9 -14  201.41    7.07
   3  -9 -13    1.24    2.10
   3  -9 -13    6.21    2.29
   3  -9 -12    5.16    2.39
   3  -9 -12    0.48    2.29
  -3   9  11   31.83    2.96
   3  -9 -11   27.24    3.06
  -3   9  10  859.09   26.67
   3  -9 -10  864.83   26.77
  -3   9   9  117.96    5.35
   3  -9  -9  114.71    5.45
  -3   9   8    1.72    2.68
   3  -9  -8    1.24    2.58
  -3   9   7   -0.10    2.49
   3  -9  -7    1.05    2.68
  -3   9   6  763.31   24.28
   3  -9  -6  731.09   23.13
  -3   9   5   26.67    3.54
   3  -9  -5   30.88    3.54
  -3   9   4 1868.84   56.40
   3  -9  -4 1926.19   58.12
  -3   9   3  134.12    6.21
   3  -9  -3  117.29    6.02
  -3   9   2  564.19   18.64
   3  -9  -2  541.15   18.07
  -3   9   1   40.44    4.49
   3  -9  -1   43.49    4.30
  -3   9   0 1459.70   44.74
   3  -9   0 1509.41   46.08
  -3   9  -1  135.07    6.60
   3  -9   1  142.34    6.69
  -3   9  -2 1657.58   50.57
   3  -9   2 1702.51   51.72
  -3   9  -3   -1.63    3.15
   3  -9   3   -0.67    3.35
  -3   9  -4  362.58   12.91
   3  -9   4  371.47   13.00
  -3   9  -5   16.25    3.44
   3  -9   5   22.75    4.11
  -3   9  -6   10.99    3.44
   3  -9   6   13.29    3.63
  -3   9  -7   19.50    3.54
   3  -9   7   20.65    3.54
  -3   9  -8 1063.95   33.17
   3  -9   8 1097.40   34.51
  -3   9  -9    9.08    3.44
   3  -9   9    3.73    3.63
  -3   9 -10  468.21   15.87
   3  -9  10  477.39   16.25
  -3   9 -11  320.81   11.57
   3  -9  11  326.45   11.66
  -3   9 -12  166.52    7.46
   3  -9  12  153.33    7.17
  -3   9 -13   15.10    3.44
   3  -9  13   11.85    3.63
  -3   9 -14   15.68    4.11
   3  -9  14   27.82    4.01
  -3   9 -15   35.85    4.21
   3  -9  15   31.26    4.40
  -3   9 -16   82.21    5.83
   3  -9  16   98.75    6.12
  -3   9 -17    1.53    4.59
   3  -9  17   -6.21    4.68
   4 -10 -16   97.50    4.30
   4 -10 -16   99.32    4.30
   4 -10 -15   29.25    2.96
   4 -10 -15   38.72    3.25
   4 -10 -14   46.84    3.44
   4 -10 -14   53.05    3.63
   4 -10 -13  266.61    9.56
   4 -10 -13  275.21    9.65
  -4  10  12    1.72    2.58
   4 -10 -12    6.79    2.96
  -4  10  11  424.72   14.34
   4 -10 -11  428.73   14.43
  -4  10  10    2.49    2.96
   4 -10 -10    5.54    2.96
  -4  10   9   55.06    4.11
   4 -10  -9   49.71    4.01
  -4  10   8  215.37    8.51
   4 -10  -8  226.27    8.70
  -4  10   7  202.08    8.22
   4 -10  -7  195.87    7.93
  -4  10   6   32.12    3.63
   4 -10  -6   38.81    3.82
  -4  10   5  182.20    8.03
   4 -10  -5  169.96    7.36
  -4  10   4   76.00    4.88
   4 -10  -4   75.33    4.97
  -4  10   3  499.76   16.82
   4 -10  -3  454.64   15.49
  -4  10   2  621.07   20.36
   4 -10  -2  611.03   20.17
  -4  10   1   21.60    4.01
   4 -10  -1   20.27    3.92
  -4  10   0  383.04   13.48
   4 -10   0  404.36   14.24
  -4  10  -1  357.33   12.81
   4 -10   1  371.66   13.19
  -4  10  -2   51.81    4.49
   4 -10   2   45.60    4.59
  -4  10  -3  120.06    6.31
   4 -10   3  117.96    6.21
  -4  10  -4 1186.31   36.71
   4 -10   4 1143.29   35.56
  -4  10  -5  311.73   11.38
   4 -10   5  335.82   12.62
  -4  10  -6  656.15   21.32
   4 -10   6  642.38   21.03
  -4  10  -7  132.87    6.50
   4 -10   7  136.60    6.50
  -4  10  -8   93.49    5.45
   4 -10   8   88.52    5.83
  -4  10  -9    6.79    3.44
   4 -10   9    6.79    3.54
  -4  10 -10   82.21    4.97
   4 -10  10   89.28    5.74
  -4  10 -11    1.43    3.44
   4 -10  11   -2.39    3.25
  -4  10 -12  185.26    7.84
   4 -10  12  179.81    7.65
  -4  10 -13   10.61    3.54
   4 -10  13   16.54    4.11
  -4  10 -14  254.18    9.94
   4 -10  14  268.52   10.32
  -4  10 -15   69.97    5.64
   4 -10  15   53.15    5.26
  -4  10 -16   -4.59    4.68
   4 -10  16   -1.34    4.30
   5 -11 -17  132.59    5.83
   5 -11 -17  141.86    6.02
   5 -11 -16  102.09    4.97
   5 -11 -16  111.75    5.07
   5 -11 -15  394.42   13.10
   5 -11 -15  387.34   12.91
   5 -11 -14   20.55    3.54
   5 -11 -14   21.22    3.25
  -5  11  13   48.85    4.01
   5 -11 -13   47.89    3.92
  -5  11  12    2.39    3.06
   5 -11 -12   -2.10    3.15
  -5  11  11   40.34    3.92
   5 -11 -11   46.74    3.92
  -5  11  10  295.09   10.71
   5 -11 -10  301.60   10.99
  -5  11   9  223.97    8.89
   5 -11  -9  227.99    9.08
  -5  11   8   21.22    3.44
   5 -11  -8   17.49    3.44
  -5  11   7  164.61    7.27
   5 -11  -7  169.01    7.46
  -5  11   6  167.96    7.46
   5 -11  -6  154.19    7.07
  -5  11   5  225.22    9.08
   5 -11  -5  240.61    9.46
  -5  11   4    3.54    3.54
   5 -11  -4    7.46    3.54
  -5  11   3  388.20   13.67
   5 -11  -3  392.03   13.86
  -5  11   2    5.54    3.82
   5 -11  -2    3.44    3.54
  -5  11   1 1192.04   37.09
   5 -11  -1 1366.98   42.35
  -5  11   0  112.70    6.21
   5 -11   0  113.18    6.40
  -5  11  -1  190.42    8.13
   5 -11   1  188.13    8.13
  -5  11  -2   93.49    5.74
   5 -11   2   92.15    5.83
  -5  11  -3  202.94    8.60
   5 -11   3  191.66    8.22
  -5  11  -4   86.99    5.54
   5 -11   4   84.98    5.64
  -5  11  -5 1375.58   42.35
   5 -11   5 1492.20   46.08
  -5  11  -6    3.35    3.54
   5 -11   6   -0.10    3.44
  -5  11  -7  152.95    7.07
   5 -11   7  147.60    7.36
  -5  11  -8  137.27    6.69
   5 -11   8  119.68    6.21
  -5  11  -9   77.91    5.07
   5 -11   9   74.08    5.16
  -5  11 -10  266.42   10.13
   5 -11  10  267.18   10.04
  -5  11 -11   39.29    4.11
   5 -11  11   52.29    4.40
  -5  11 -12   -4.21    3.73
   5 -11  12    0.57    4.01
  -5  11 -13  126.18    6.50
   5 -11  13  140.43    6.88
  -5  11 -14    8.22    4.30
   5 -11  14   10.80    3.92
   6 -12 -18    5.54    3.73
   6 -12 -18    5.26    3.82
   6 -12 -17   74.37    4.97
   6 -12 -17   72.65    5.07
   6 -12 -16   54.01    4.40
   6 -12 -16   50.86    4.30
   6 -12 -15  389.64   13.19
   6 -12 -15  364.59   12.71
  -6  12  14    4.30    3.35
   6 -12 -14    2.29    3.25
  -6  12  13  409.61   13.96
   6 -12 -13  419.46   14.15
  -6  12  12   79.34    4.88
   6 -12 -12   70.45    4.68
  -6  12  11  253.99    9.75
   6 -12 -11  251.79    9.75
  -6  12  10    2.20    3.25
   6 -12 -10    5.83    3.35
  -6  12   9   78.77    4.88
   6 -12  -9   67.11    4.97
  -6  12   8    8.99    3.73
   6 -12  -8    4.30    3.73
  -6  12   7  585.03   19.41
   6 -12  -7  523.75   17.68
  -6  12   6  215.37    9.08
   6 -12  -6  216.42    8.99
  -6  12   5  672.49   21.89
   6 -12  -5  664.56   21.70
  -6  12   4   87.18    5.64
   6 -12  -4   93.20    5.54
  -6  12   3   52.86    4.78
   6 -12  -3   53.53    4.78
  -6  12   2  354.84   12.91
   6 -12  -2  371.66   13.19
  -6  12   1   15.29    4.01
   6 -12  -1   26.57    4.59
  -6  12   0  117.29    6.21
   6 -12   0  124.17    6.60
  -6  12  -1  161.74    7.55
   6 -12   1  167.19    7.93
  -6  12  -2   38.52    4.49
   6 -12   2   25.62    4.68
  -6  12  -3  626.04   20.65
   6 -12   3  603.67   19.79
  -6  12  -4  404.64   14.34
   6 -12   4  439.92   15.58
  -6  12  -5   30.97    4.30
   6 -12   5   35.37    4.59
  -6  12  -6  171.30    7.65
   6 -12   6  180.77    8.13
  -6  12  -7  298.44   11.18
   6 -12   7  301.88   11.38
  -6  12  -8   47.13    4.49
   6 -12   8   50.95    4.68
  -6  12  -9  228.37    9.08
   6 -12   9  243.95    9.46
  -6  12 -10   82.97    5.26
   6 -12  10   94.35    5.74
  -6  12 -11   59.46    4.68
   6 -12  11   44.55    4.78
  -6  12 -12   89.19    5.54
   6 -12  12   70.64    5.07
  -6  12 -13    7.46    4.21
   6 -12  13    8.89    4.49
   7 -13 -18   50.47    4.88
   7 -13 -18   50.00    4.97
   7 -13 -17    0.86    4.01
   7 -13 -17    6.88    4.11
   7 -13 -16   13.19    3.92
   7 -13 -16   14.43    4.11
   7 -13 -15   36.04    4.01
  -7  13  14  332.47   12.04
   7 -13 -14  313.26   11.28
  -7  13  13    5.35    3.35
   7 -13 -13   11.47    3.73
  -7  13  12  156.87    6.88
   7 -13 -12  180.38    7.74
  -7  13  11   16.44    3.44
   7 -13 -11   18.93    3.82
  -7  13  10   17.68    4.01
   7 -13 -10   11.28    3.63
  -7  13   9    5.16    3.44
   7 -13  -9    8.70    3.44
  -7  13   8  149.89    7.07
   7 -13  -8  150.56    7.27
  -7  13   7  420.89   14.91
   7 -13  -7  399.39   14.05
  -7  13   6  633.49   20.84
   7 -13  -6  602.43   19.98
  -7  13   5   -2.68    3.63
   7 -13  -5    5.16    3.73
  -7  13   4  124.08    6.69
   7 -13  -4  120.83    6.50
  -7  13   3  513.24   17.40
   7 -13  -3  541.34   18.26
  -7  13   2   13.86    4.11
   7 -13  -2   15.77    4.01
  -7  13   1   47.61    4.78
   7 -13  -1   53.05    5.07
  -7  13   0  492.49   16.82
   7 -13   0  499.47   16.92
  -7  13  -1  113.47    6.40
   7 -13   1  122.55    6.88
  -7  13  -2  767.04   24.85
   7 -13   2  702.61   23.04
  -7  13  -3   91.86    5.74
   7 -13   3  100.85    5.93
  -7  13  -4    7.27    3.92
   7 -13   4   19.41    4.40
  -7  13  -5   61.85    5.07
   7 -13   5   52.77    4.78
  -7  13  -6   13.10    3.92
   7 -13   6   16.63    3.73
  -7  13  -7   38.81    4.30
   7 -13   7   42.92    4.40
  -7  13  -8   90.43    5.54
   7 -13   8   97.41    5.64
  -7  13  -9    8.89    3.92
   7 -13   9    9.56    3.82
  -7  13 -10  121.88    6.40
   7 -13  10  121.31    6.31
  -7  13 -11    6.40    3.92
   7 -13  11    4.01    3.92
  -7  13 -12   31.45    4.59
   7 -13  12   29.35    4.78
   8 -14 -18   30.21    5.16
   8 -14 -18   23.71    4.97
   8 -14 -17   36.71    4.78
   8 -14 -17   41.30    4.88
   8 -14 -16  340.60   12.14
   8 -14 -16  343.94   12.52
  -8  14  15    4.01    3.63
   8 -14 -15    1.63    3.92
  -8  14  14   93.30    5.64
   8 -14 -14   89.95    5.35
  -8  14  13   49.71    5.07
   8 -14 -13   48.08    4.49
  -8  14  12   23.80    3.92
   8 -14 -12   21.60    3.82
  -8  14  11    7.27    3.73
   8 -14 -11   12.71    3.82
  -8  14  10  658.54   21.51
   8 -14 -10  692.47   22.37
  -8  14   9   46.27    4.59
   8 -14  -9   60.32    4.88
  -8  14   8  486.38   16.44
   8 -14  -8  499.47   17.11
  -8  14   7   95.59    5.93
   8 -14  -7   87.95    5.54
  -8  14   6   68.16    5.26
   8 -14  -6   86.13    5.74
  -8  14   5   19.41    4.11
   8 -14  -5   15.29    4.01
  -8  14   4  167.48    7.74
   8 -14  -4  160.40    7.46
  -8  14   3    6.50    3.73
   8 -14  -3    9.08    4.11
  -8  14   2  287.26   10.90
   8 -14  -2  285.34   10.80
  -8  14   1    4.11    3.92
   8 -14  -1    2.87    3.82
  -8  14   0  252.75   10.04
   8 -14   0  268.04   10.23
  -8  14  -1  590.57   19.50
   8 -14   1  593.73   19.98
  -8  14  -2   43.02    4.59
   8 -14   2   49.80    4.88
  -8  14  -3   36.04    4.40
   8 -14   3   38.62    4.11
  -8  14  -4   78.29    5.26
   8 -14   4   76.09    5.64
  -8  14  -5    0.76    3.54
   8 -14   5    6.02    3.82
  -8  14  -6  155.43    7.17
   8 -14   6  160.31    7.36
  -8  14  -7    5.74    3.63
   8 -14   7    8.32    3.82
  -8  14  -8    2.29    3.54
   8 -14   8    1.15    4.01
  -8  14  -9    1.91    3.73
   8 -14   9    5.16    3.82
  -8  14 -10  101.23    5.83
   8 -14  10  120.35    6.50
   9 -15 -17   16.16    4.59
   9 -15 -17   14.53    4.49
   9 -15 -16    0.10    4.30
  -9  15  15  216.04    8.99
   9 -15 -15  221.30    9.18
  -9  15  14   97.50    5.93
   9 -15 -14   95.88    5.83
  -9  15  13    2.58    4.11
   9 -15 -13    8.60    3.92
  -9  15  12   93.49    5.74
   9 -15 -12   94.45    5.45
  -9  15  11  209.54    8.70
   9 -15 -11  196.92    8.32
  -9  15  10   29.63    4.11
   9 -15 -10   34.99    4.21
  -9  15   9  111.65    6.50
   9 -15  -9   97.12    5.74
  -9  15   8   76.38    5.45
   9 -15  -8   73.51    5.26
  -9  15   7  212.50    8.70
   9 -15  -7  226.17    9.18
  -9  15   6  226.46    9.18
   9 -15  -6  228.47    9.27
  -9  15   5   54.87    4.88
   9 -15  -5   32.60    4.59
  -9  15   4  106.11    6.02
   9 -15  -4  106.39    6.02
  -9  15   3  331.71   12.24
   9 -15  -3  302.74   11.57
  -9  15   2   27.72    4.11
   9 -15  -2   20.46    4.01
  -9  15   1  309.72   11.57
   9 -15  -1  344.80   12.71
  -9  15   0   46.94    4.59
   9 -15   0   38.81    4.21
  -9  15  -1   97.03    5.64
   9 -15   1   91.48    5.54
  -9  15  -2   51.62    4.49
   9 -15   2   45.69    4.59
  -9  15  -3    7.17    3.63
   9 -15   3   13.38    3.54
  -9  15  -4   37.28    4.21
   9 -15   4   42.25    4.40
  -9  15  -5  267.56   10.04
   9 -15   5  268.33   10.13
  -9  15  -6    6.79    3.63
   9 -15   6    2.68    3.63
  -9  15  -7   62.04    4.88
   9 -15   7   61.18    5.07
  -9  15  -8   71.89    4.97
   9 -15   8   67.49    5.26
 -10  16  16   11.47    4.40
  10 -16 -16    9.08    4.68
 -10  16  15   37.19    4.68
  10 -16 -15   45.50    4.68
 -10  16  14   29.06    4.59
  10 -16 -14   29.63    4.21
 -10  16  13  185.26    8.03
  10 -16 -13  179.14    7.84
 -10  16  12    1.34    3.54
  10 -16 -12    0.48    3.82
 -10  16  11   51.62    4.78
  10 -16 -11   55.25    5.07
 -10  16  10   -2.68    3.54
  10 -16 -10    1.72    3.63
 -10  16   9   54.68    4.78
  10 -16  -9   68.44    5.16
 -10  16   8   65.00    4.88
  10 -16  -8   61.75    4.78
 -10  16   7  475.38   15.96
  10 -16  -7  499.47   16.82
 -10  16   6   -0.10    3.44
  10 -16  -6    1.53    3.63
 -10  16   5  234.39    9.37
  10 -16  -5  242.90    9.85
 -10  16   4   34.13    4.11
  10 -16  -4   28.87    4.11
 -10  16   3   -3.06    3.82
  10 -16  -3    0.00    3.92
 -10  16   2    7.17    3.82
  10 -16  -2   -2.68    3.73
 -10  16   1  306.09   11.18
  10 -16  -1  322.63   11.66
 -10  16   0    5.54    3.44
  10 -16   0   13.77    4.01
 -10  16  -1  141.09    6.69
  10 -16   1  139.47    6.69
 -10  16  -2   15.58    3.92
  10 -16   2   13.38    3.92
 -10  16  -3   42.06    4.49
  10 -16   3   30.59    4.30
 -10  16  -4   15.96    4.11
  10 -16   4    4.59    3.82
 -10  16  -5   13.57    4.01
  10 -16   5   12.24    4.11
 -10  16  -6   14.34    4.01
  10 -16   6    9.46    3.82
 -11  17  14   62.71    5.35
  11 -17 -14   71.50    5.07
 -11  17  13    8.79    3.92
  11 -17 -13    6.12    4.21
 -11  17  12   69.88    5.35
  11 -17 -12   68.06    4.88
 -11  17  11   56.59    4.88
  11 -17 -11   59.65    4.97
 -11  17  10    1.72    3.63
  11 -17 -10    4.68    3.73
 -11  17   9   97.50    5.74
  11 -17  -9   73.99    5.26
 -11  17   8   91.29    5.74
  11 -17  -8   82.02    5.45
 -11  17   7   31.26    4.30
  11 -17  -7   34.80    4.59
 -11  17   6   60.70    4.88
  11 -17  -6   62.23    5.07
 -11  17   5  184.49    8.13
  11 -17  -5  207.25    8.51
 -11  17   4    1.63    3.54
  11 -17  -4   -1.05    4.11
 -11  17   3  356.08   12.62
  11 -17  -3  382.47   13.38
 -11  17   2   22.56    3.92
  11 -17  -2   22.66    4.21
 -11  17   1    0.96    3.63
  11 -17  -1    5.64    4.01
 -11  17   0   63.28    4.78
  11 -17   0   64.33    4.78
 -11  17  -1   -1.91    3.63
  11 -17   1    2.01    3.63
 -11  17  -2   70.64    5.07
  11 -17   2   94.45    6.02
 -11  17  -3  114.04    6.02
  11 -17   3  118.25    6.21
 -11  17  -4    1.05    3.63
  11 -17   4    2.01    4.11
 -12  18  12   26.77    4.11
  12 -18 -12   24.18    4.68
 -12  18  11   -2.58    3.73
  12 -18 -11    3.15    3.63
 -12  18  10  148.55    6.98
  12 -18 -10  140.71    6.50
 -12  18   9   43.21    4.30
  12 -18  -9   49.13    4.68
 -12  18   8   55.54    4.78
  12 -18  -8   55.83    4.88
 -12  18   7   46.17    4.30
  12 -18  -7   49.23    4.68
 -12  18   6   44.64    4.40
  12 -18  -6   48.08    4.78
 -12  18   5   55.63    4.59
  12 -18  -5   45.60    4.59
 -12  18   4   97.79    5.45
  12 -18  -4  106.59    5.83
 -12  18   3    2.68    3.54
  12 -18  -3    3.25    4.11
 -12  18   2   54.30    4.49
  12 -18  -2   60.80    4.68
 -12  18   1    6.40    3.54
  12 -18  -1    8.13    3.92
 -12  18   0    6.02    3.54
  12 -18   0    2.58    3.54
  20 -12  -5    0.19    3.54
 -20  12   5    6.31    3.63
  20 -12  -6    2.39    3.82
 -20  12   6    2.10    3.63
  20 -12  -7   10.23    3.92
 -20  12   7    0.38    3.54
  20 -12  -8   13.29    3.82
 -20  12   8   14.63    3.73
  20 -12  -9   96.07    5.45
 -20  12   9  108.31    5.74
  20 -12 -10   13.57    3.82
 -20  12  10   14.63    3.82
  20 -12 -11  157.63    6.98
 -20  12  11  158.30    7.07
  20 -12 -12   16.44    3.92
 -20  12  12    9.18    3.54
  20 -12 -13   -4.30    3.73
  20 -12 -13    3.63    3.15
  20 -12 -14   49.13    4.68
  20 -12 -14   35.08    4.40
  19 -11  -1   40.34    4.49
 -19  11   1   33.17    4.30
  19 -11  -2   12.04    3.73
 -19  11   2    3.63    3.82
  19 -11  -3   83.36    5.07
 -19  11   3   77.05    5.07
  19 -11  -4   15.20    4.01
 -19  11   4    5.16    3.54
  19 -11  -5   90.81    5.35
 -19  11   5   93.39    5.35
  19 -11  -6    0.67    3.82
 -19  11   6    3.25    3.63
  19 -11  -7  108.21    5.74
 -19  11   7  126.56    6.40
  19 -11  -8   -1.24    3.44
 -19  11   8   -0.86    3.54
  19 -11  -9    7.93    3.15
 -19  11   9    8.13    3.63
  19 -11 -10   13.38    3.82
 -19  11  10    8.32    3.35
  19 -11 -11   91.58    5.35
 -19  11  11   84.50    5.45
  19 -11 -12    1.63    4.11
 -19  11  12    2.77    3.35
  19 -11 -13  295.48   11.09
  19 -11 -13  286.30   10.80
  19 -11 -14   -3.73    3.82
  19 -11 -14    9.56    3.63
  19 -11 -15   37.95    4.59
  19 -11 -15   34.41    4.49
  19 -11 -16   -1.63    4.01
  19 -11 -16   -0.38    3.82
  19 -11 -17   11.85    4.01
  19 -11 -17    7.74    3.82
  18 -10   2   53.44    4.88
 -18  10  -2   48.08    5.26
  18 -10   1    8.89    4.11
 -18  10  -1   10.80    3.73
  18 -10   0  120.45    6.40
 -18  10   0  119.11    6.12
  18 -10  -1   98.56    5.54
 -18  10   1   97.12    5.74
  18 -10  -2   45.41    4.49
 -18  10   2   32.02    4.40
  18 -10  -3    3.82    3.92
 -18  10   3    9.37    3.73
  18 -10  -4  104.67    5.74
 -18  10   4  101.52    5.74
  18 -10  -5    2.87    3.63
 -18  10   5   -1.05    3.54
  18 -10  -6   80.58    4.88
 -18  10   6   71.69    5.35
  18 -10  -7   54.01    4.68
 -18  10   7   58.79    4.68
  18 -10  -8    4.97    3.92
 -18  10   8    3.92    3.82
  18 -10  -9  190.13    8.13
 -18  10   9  199.31    8.51
  18 -10 -10   25.81    4.40
 -18  10  10   34.99    4.21
  18 -10 -11   50.00    4.78
 -18  10  11   41.39    4.59
  18 -10 -12  156.29    7.27
 -18  10  12  162.32    7.46
  18 -10 -13   -4.01    3.82
  18 -10 -13    3.73    3.35
  18 -10 -14  119.49    6.40
  18 -10 -14  128.00    6.60
  18 -10 -15  215.85    8.79
  18 -10 -15  224.16    9.08
  18 -10 -16    0.67    3.54
  18 -10 -16    1.63    3.82
  18 -10 -17   52.38    4.68
  18 -10 -17   48.47    4.78
  18 -10 -18   30.59    4.40
  18 -10 -18   22.18    4.30
  18 -10 -19    3.92    4.21
  18 -10 -19    9.75    4.21
  17  -9   4  137.84    7.17
 -17   9  -4  126.85    6.50
  17  -9   3   12.62    4.30
 -17   9  -3   16.25    3.92
  17  -9   2   -1.15    3.73
 -17   9  -2    1.43    3.82
  17  -9   1   16.44    4.01
 -17   9  -1    2.68    3.82
  17  -9   0   69.02    5.16
 -17   9   0   77.33    5.26
  17  -9  -1   11.85    3.82
 -17   9   1    8.22    3.63
  17  -9  -2   35.08    4.30
 -17   9   2   21.99    4.30
  17  -9  -3   57.74    4.68
 -17   9   3   66.44    4.97
  17  -9  -4  143.01    7.07
 -17   9   4  131.73    6.50
  17  -9  -5   -0.57    3.44
 -17   9   5    1.43    3.54
  17  -9  -6   73.61    5.45
 -17   9   6   77.24    5.26
  17  -9  -7  138.23    6.50
 -17   9   7  129.43    6.69
  17  -9  -8  196.63    8.51
 -17   9   8  202.56    8.51
  17  -9  -9   38.24    4.68
 -17   9   9   53.34    4.78
  17  -9 -10  178.09    8.32
 -17   9  10  158.49    7.27
  17  -9 -11   36.33    4.59
 -17   9  11   32.31    4.49
  17  -9 -12    2.49    4.21
 -17   9  12    1.05    3.63
  17  -9 -13   13.96    4.01
  17  -9 -13   14.53    3.92
  17  -9 -14  445.75   15.29
  17  -9 -14  442.88   15.20
  17  -9 -15   16.25    4.11
  17  -9 -15   18.74    4.11
  17  -9 -16  251.89    9.85
  17  -9 -16  248.92    9.65
  17  -9 -17   27.05    4.11
  17  -9 -17   19.21    4.01
  17  -9 -18    8.89    4.01
  17  -9 -18   15.49    3.82
  17  -9 -19    2.01    3.73
  17  -9 -19   -1.24    3.82
  17  -9 -20   16.73    4.59
  17  -9 -20   11.47    3.92
  16  -8   6    6.50    4.59
 -16   8  -6   -2.87    4.40
  16  -8   5    1.34    3.73
 -16   8  -5    2.39    3.92
  16  -8   4  158.59    7.46
 -16   8  -4  148.55    7.07
  16  -8   3   69.78    5.07
 -16   8  -3   72.55    5.26
  16  -8   2   96.17    5.83
 -16   8  -2   82.78    5.26
  16  -8   1   43.11    4.30
 -16   8  -1   55.92    4.88
  16  -8   0  131.54    6.69
 -16   8   0  120.26    6.31
  16  -8  -1  200.94    8.51
 -16   8   1  193.38    8.22
  16  -8  -2  165.47    7.36
 -16   8   2  189.18    8.32
  16  -8  -3  140.43    6.79
 -16   8   3  159.35    7.46
  16  -8  -4  390.59   13.96
 -16   8   4  360.38   13.00
  16  -8  -5  283.24   10.61
 -16   8   5  303.89   11.57
  16  -8  -6  437.05   15.49
 -16   8   6  411.34   14.43
  16  -8  -7   65.67    5.07
 -16   8   7   77.43    5.35
  16  -8  -8    1.63    3.82
 -16   8   8   -3.44    3.82
  16  -8  -9    5.07    3.82
 -16   8   9   14.15    3.82
  16  -8 -10  111.37    6.60
 -16   8  10  100.37    6.21
  16  -8 -11  186.41    8.32
 -16   8  11  200.65    8.70
  16  -8 -12  179.62    8.13
  16  -8 -13  229.33    9.37
  16  -8 -13  220.44    9.08
  16  -8 -14  256.57   10.04
  16  -8 -14  262.50   10.23
  16  -8 -15  210.21    8.60
  16  -8 -15  201.99    8.41
  16  -8 -16    1.63    3.54
  16  -8 -16    2.96    3.54
  16  -8 -17   73.13    5.07
  16  -8 -17   68.92    5.07
  16  -8 -18  117.29    6.31
  16  -8 -18  101.90    5.93
  16  -8 -19   17.40    3.73
  16  -8 -19   11.66    4.30
  16  -8 -20   45.98    4.49
  16  -8 -20   41.39    4.59
  16  -8 -21   48.66    5.16
  16  -8 -21   47.22    4.68
  15  -7   7   10.23    4.59
 -15   7  -7   14.43    4.30
  15  -7   6   78.96    5.54
 -15   7  -6   73.03    5.16
  15  -7   5   36.42    4.78
 -15   7  -5   43.59    4.68
  15  -7   4   85.36    5.35
 -15   7  -4   73.03    5.16
  15  -7   3  347.67   12.33
 -15   7  -3  360.58   12.81
  15  -7   2   12.24    3.73
 -15   7  -2   21.60    3.92
  15  -7   1  433.51   15.01
 -15   7  -1  417.55   14.53
  15  -7   0   63.86    4.78
 -15   7   0   64.24    4.97
  15  -7  -1   47.13    4.59
 -15   7   1   58.69    4.88
  15  -7  -2  281.23   10.61
 -15   7   2  283.53   10.80
  15  -7  -3  353.60   13.19
 -15   7   3  335.05   12.43
  15  -7  -4  144.54    7.27
 -15   7   4  127.14    6.60
  15  -7  -5  346.05   12.71
 -15   7   5  318.80   11.95
  15  -7  -6    4.68    4.40
 -15   7   6    1.63    3.63
  15  -7  -7  162.60    7.65
 -15   7   7  133.07    6.79
  15  -7  -8    7.65    4.11
 -15   7   8    2.87    3.63
  15  -7  -9  106.49    6.12
 -15   7   9  121.21    6.79
  15  -7 -10   -0.38    3.82
 -15   7  10    6.40    3.92
  15  -7 -11  541.44   18.07
 -15   7  11  544.50   18.45
  15  -7 -12   20.17    3.92
  15  -7 -12   21.99    4.30
  15  -7 -13  223.59    9.27
  15  -7 -13  216.52    9.18
  15  -7 -14    6.50    3.73
  15  -7 -14    1.05    3.44
  15  -7 -15   12.91    4.21
  15  -7 -15   12.14    3.82
  15  -7 -16    2.87    3.73
  15  -7 -16    6.60    3.54
  15  -7 -17  170.44    7.65
  15  -7 -17  161.07    7.36
  15  -7 -18    7.46    3.63
  15  -7 -18    3.73    3.63
  15  -7 -19  280.28   10.61
  15  -7 -19  292.32   10.80
  15  -7 -20    3.92    4.30
  15  -7 -20    6.02    3.73
  15  -7 -21   91.58    5.83
  15  -7 -21   99.23    6.12
  15  -7 -22    0.19    4.59
  15  -7 -22    5.83    4.97
  14  -6   9   15.49    5.07
 -14   6  -9    9.18    4.21
  14  -6   8    7.84    4.78
 -14   6  -8   11.85    4.21
  14  -6   7  266.32   10.13
 -14   6  -7  275.21   10.52
  14  -6   6   32.12    4.01
 -14   6  -6   38.91    4.49
  14  -6   5  299.21   10.80
 -14   6  -5  295.09   10.99
  14  -6   4  145.40    6.69
 -14   6  -4  145.68    6.88
  14  -6   3    8.79    3.54
 -14   6  -3    3.63    3.35
  14  -6   2  344.13   12.43
 -14   6  -2  324.15   11.76
  14  -6   1    8.89    3.54
 -14   6  -1    4.59    3.54
  14  -6   0   13.96    4.11
 -14   6   0   18.93    3.92
  14  -6  -1  973.13   30.88
 -14   6   1  965.49   30.40
  14  -6  -2  220.82    9.08
 -14   6   2  206.00    8.60
  14  -6  -3   45.12    5.07
 -14   6   3   52.29    4.68
  14  -6  -4  205.24    8.89
 -14   6   4  205.52    8.70
  14  -6  -5    7.27    3.92
 -14   6   5   20.46    4.11
  14  -6  -6  618.39   20.74
 -14   6   6  601.57   20.07
  14  -6  -7  352.35   12.91
 -14   6   7  336.58   12.43
  14  -6  -8   38.81    4.78
 -14   6   8   27.72    4.11
  14  -6  -9  471.27   16.25
 -14   6   9  486.57   16.73
  14  -6 -10  586.37   19.60
 -14   6  10  622.12   20.65
  14  -6 -11   41.68    4.59
  14  -6 -11   40.05    4.59
  14  -6 -12  106.68    6.02
  14  -6 -12  105.82    6.21
  14  -6 -13   67.58    5.16
  14  -6 -13   72.84    5.16
  14  -6 -14   92.06    6.02
  14  -6 -14   93.01    5.64
  14  -6 -15   41.49    4.97
  14  -6 -15   39.96    4.40
  14  -6 -16   52.19    4.78
  14  -6 -16   59.65    4.88
  14  -6 -17   81.06    5.45
  14  -6 -17   79.72    5.26
  14  -6 -18  227.80    8.99
  14  -6 -18  221.39    8.99
  14  -6 -19   80.58    5.16
  14  -6 -19   81.06    5.54
  14  -6 -20    2.39    3.82
  14  -6 -20    6.98    4.11
  14  -6 -21  115.86    6.31
  14  -6 -21  114.90    6.60
  14  -6 -22   16.35    4.68
  14  -6 -22   17.21    4.49
  13  -5  10    3.25    5.16
 -13   5 -10    3.92    4.01
  13  -5   9    2.87    4.40
 -13   5  -9    3.82    3.82
  13  -5   8  230.38    9.18
 -13   5  -8  225.79    9.08
  13  -5   7   15.49    4.01
 -13   5  -7   11.85    3.82
  13  -5   6  506.74   16.63
 -13   5  -6  508.74   16.82
  13  -5   5    3.44    3.06
 -13   5  -5   -3.25    3.54
  13  -5   4   22.75    3.44
 -13   5  -4   24.66    3.92
  13  -5   3   72.94    5.07
 -13   5  -3   78.00    5.07
  13  -5   2   11.38    3.54
 -13   5  -2    7.65    3.54
  13  -5   1    5.64    3.44
 -13   5  -1    4.49    3.54
  13  -5   0  666.85   22.08
 -13   5   0  663.32   21.60
  13  -5  -1   11.47    3.73
 -13   5   1    8.03    3.54
  13  -5  -2  593.15   19.60
 -13   5   2  593.44   19.50
  13  -5  -3   90.72    5.83
 -13   5   3   88.81    5.54
  13  -5  -4  601.47   19.79
 -13   5   4  612.46   20.27
  13  -5  -5   22.75    4.30
 -13   5   5   25.05    4.21
  13  -5  -6  841.98   26.96
 -13   5   6  890.45   28.30
  13  -5  -7   70.45    5.26
 -13   5   7   70.45    5.16
  13  -5  -8  507.02   17.40
 -13   5   8  493.16   17.02
  13  -5  -9    0.86    3.54
 -13   5   9   -4.68    3.54
  13  -5 -10   15.01    3.92
  13  -5 -10   12.71    3.82
  13  -5 -11  377.50   13.77
  13  -5 -11  359.43   13.10
  13  -5 -12  110.41    6.40
  13  -5 -12  100.95    5.93
  13  -5 -13   70.26    5.16
  13  -5 -13   71.69    5.07
  13  -5 -14  549.56   18.35
  13  -5 -14  502.34   16.92
  13  -5 -15   49.90    4.68
  13  -5 -15   56.97    4.68
  13  -5 -16  158.59    7.17
  13  -5 -16  153.04    7.55
  13  -5 -17   19.69    3.92
  13  -5 -17   11.47    3.73
  13  -5 -18  148.55    6.98
  13  -5 -18  155.91    7.27
  13  -5 -20   11.95    4.11
  13  -5 -20   10.23    3.92
  13  -5 -21   42.44    4.88
  13  -5 -21   39.67    4.59
  13  -5 -22   88.90    5.83
  13  -5 -22   96.17    6.02
  12  -4  11   11.47    4.59
  12  -4  11   12.04    4.01
  12  -4  10   84.22    5.35
 -12   4 -10   98.46    5.54
  12  -4   9   29.54    3.82
 -12   4  -9   30.97    4.01
  12  -4   8   11.66    3.54
 -12   4  -8    9.27    3.44
  12  -4   7  193.86    7.65
 -12   4  -7  200.08    7.93
  12  -4   6   75.61    4.68
 -12   4  -6   83.26    4.88
  12  -4   5   57.55    4.49
 -12   4  -5   71.03    4.78
  12  -4   4  514.77   16.92
 -12   4  -4  513.24   17.11
  12  -4   3   78.00    5.26
 -12   4  -3   73.80    4.78
  12  -4   2  459.90   15.20
 -12   4  -2  462.86   15.77
  12  -4   1   -0.29    3.25
 -12   4  -1   -4.11    3.15
  12  -4   0    1.53    3.25
 -12   4   0    4.40    3.25
  12  -4  -1  418.60   14.34
 -12   4   1  401.68   14.05
  12  -4  -2  501.86   17.21
 -12   4   2  492.78   16.73
  12  -4  -3  210.11    8.79
 -12   4   3  205.81    8.60
  12  -4  -4 2303.78   69.30
 -12   4   4 2258.86   68.06
  12  -4  -5  104.48    6.21
 -12   4   5   92.15    5.64
  12  -4  -6  381.22   13.48
 -12   4   6  363.73   13.10
  12  -4  -7   45.02    4.59
 -12   4   7   52.48    4.68
  12  -4  -8  250.84   10.04
 -12   4   8  260.30   10.32
  12  -4  -9  315.93   11.76
  12  -4  -9  328.55   12.04
  12  -4 -10 1129.91   35.18
  12  -4 -10 1177.70   36.61
  12  -4 -11  103.72    5.93
  12  -4 -11   97.79    5.74
  12  -4 -12  124.27    6.60
  12  -4 -12  128.19    6.31
  12  -4 -13   12.33    3.82
  12  -4 -13    9.75    3.63
  12  -4 -14  335.82   12.24
  12  -4 -14  326.16   11.95
  12  -4 -15    0.38    3.44
  12  -4 -15   -1.24    3.35
  12  -4 -16  395.56   13.86
  12  -4 -16  385.05   13.48
  12  -4 -17   11.95    4.01
  12  -4 -17   17.88    3.92
  12  -4 -18   76.19    5.26
  12  -4 -18   74.28    5.07
  12  -4 -19    7.07    3.35
  12  -4 -19   11.85    3.54
  12  -4 -20   36.61    4.30
  12  -4 -20   36.33    4.40
  12  -4 -21   40.91    4.40
  12  -4 -21   42.06    4.68
  12  -4 -22    2.20    4.01
  12  -4 -22   -1.43    3.92
  12  -4 -23   10.99    4.40
  12  -4 -23   12.04    4.49
  11  -3  11  187.74    7.07
  11  -3  11  204.19    7.65
  11  -3  10   13.29    3.25
  11  -3  10   12.91    3.06
  11  -3   9  186.21    7.36
 -11   3  -9  168.15    7.07
  11  -3   8   38.72    3.73
 -11   3  -8   34.99    3.54
  11  -3   7  143.58    6.31
 -11   3  -7  135.84    6.12
  11  -3   6  233.53    8.89
 -11   3  -6  235.54    8.89
  11  -3   5  421.47   14.05
 -11   3  -5  435.71   14.63
  11  -3   4   21.32    3.92
 -11   3  -4   28.49    3.63
  11  -3   3  272.44    9.85
 -11   3  -3  271.10   10.13
  11  -3   2  129.53    6.12
 -11   3  -2  129.05    6.12
  11  -3   1    2.96    3.35
 -11   3  -1    1.91    2.87
  11  -3   0  243.38    9.27
 -11   3   0  228.28    8.89
  11  -3  -1  742.09   23.61
 -11   3   1  735.49   23.52
  11  -3  -2 1022.84   32.02
 -11   3   2 1009.46   31.55
  11  -3  -3 1865.97   56.30
 -11   3   3 1851.63   56.11
  11  -3  -4   90.53    5.26
 -11   3   4   95.50    5.54
  11  -3  -5   36.04    4.11
 -11   3   5   36.71    4.01
  11  -3  -6  378.74   13.29
 -11   3   6  383.71   13.67
  11  -3  -7   27.34    4.11
 -11   3   7   28.39    4.01
  11  -3  -8  214.51    8.79
  11  -3  -8  213.84    8.70
  11  -3  -9  472.61   16.16
  11  -3  -9  458.18   15.68
  11  -3 -10   10.99    3.54
  11  -3 -10   10.13    3.82
  11  -3 -11  889.68   28.30
  11  -3 -11  870.75   27.53
  11  -3 -12   49.90    4.59
  11  -3 -12   35.37    4.11
  11  -3 -13   45.98    4.59
  11  -3 -13   38.62    4.01
  11  -3 -14   -2.49    3.35
  11  -3 -14    2.58    3.44
  11  -3 -15   93.11    5.35
  11  -3 -15   99.99    5.64
  11  -3 -16   99.51    5.54
  11  -3 -16   91.77    5.45
  11  -3 -18   14.24    3.54
  11  -3 -18   23.13    4.01
  11  -3 -19   78.00    5.26
  11  -3 -19   90.91    5.26
  11  -3 -20   87.66    5.35
  11  -3 -20   84.70    5.26
  11  -3 -21  102.95    5.74
  11  -3 -21   94.92    5.64
  11  -3 -22    3.25    4.11
  11  -3 -22    4.30    3.82
  11  -3 -23   47.89    5.26
  11  -3 -23   54.20    5.07
  10  -2  11  139.28    5.26
  10  -2  11  140.04    5.26
  10  -2  10   18.26    2.87
  10  -2  10   20.93    2.87
  10  -2   9  179.52    6.88
 -10   2  -9  194.82    7.36
  10  -2   8   17.97    3.15
 -10   2  -8   15.01    2.96
  10  -2   7  184.49    7.46
 -10   2  -7  168.91    6.88
  10  -2   6  212.69    7.74
 -10   2  -6  229.14    8.60
  10  -2   5   32.12    3.54
 -10   2  -5   31.16    3.35
  10  -2   4  164.80    6.79
 -10   2  -4  182.10    7.36
  10  -2   3  511.71   16.63
 -10   2  -3  489.82   16.06
  10  -2   2   25.43    3.82
 -10   2  -2   27.72    3.44
  10  -2   1 1713.98   52.00
 -10   2  -1 1767.51   53.44
  10  -2   0  127.90    6.02
 -10   2   0  127.33    6.12
  10  -2  -1 1112.70   34.60
 -10   2   1 1052.48   32.69
  10  -2  -2  129.53    6.40
 -10   2   2  143.39    6.69
  10  -2  -3  146.35    6.69
 -10   2   3  143.77    6.88
  10  -2  -4  214.13    8.89
 -10   2   4  187.84    8.03
  10  -2  -5 1031.45   32.21
 -10   2   5 1008.50   31.45
  10  -2  -6   63.09    4.88
  10  -2  -6   68.73    4.88
  10  -2  -7  595.16   19.60
  10  -2  -7  571.07   19.02
  10  -2  -8   46.84    4.30
  10  -2  -8   42.73    4.40
  10  -2  -9 1778.02   54.11
  10  -2  -9 1851.63   56.02
  10  -2 -10   24.38    3.82
  10  -2 -10   25.71    3.82
  10  -2 -11   43.59    4.21
  10  -2 -11   54.11    4.40
  10  -2 -12   -1.43    3.25
  10  -2 -12    6.12    3.54
  10  -2 -13  709.11   22.94
  10  -2 -13  714.17   23.04
  10  -2 -14  114.52    5.93
  10  -2 -14  118.44    5.93
  10  -2 -15  189.75    8.13
  10  -2 -15  208.49    8.51
  10  -2 -16   84.79    5.45
  10  -2 -16   97.41    5.83
  10  -2 -17   81.25    5.07
  10  -2 -17   77.72    4.88
  10  -2 -18   76.47    4.68
  10  -2 -18   89.86    5.07
  10  -2 -19  260.97    9.75
  10  -2 -19  280.66   10.23
  10  -2 -20   68.64    4.78
  10  -2 -20   59.46    4.59
  10  -2 -21   74.94    4.97
  10  -2 -21   90.24    5.64
  10  -2 -22    3.73    3.92
  10  -2 -22    0.29    3.82
  10  -2 -23   14.24    4.78
  10  -2 -23    9.27    4.30
   9  -1  10   14.34    2.10
   9  -1  10   13.29    2.10
   9  -1   9   17.78    2.58
   9  -1   9   14.53    2.39
   9  -1   8  293.37   10.04
   9  -1   8  288.21    9.75
   9  -1   7   79.34    4.21
  -9   1  -7   72.65    3.82
   9  -1   6  159.74    6.40
  -9   1  -6  156.96    6.21
   9  -1   5  471.56   15.20
  -9   1  -5  471.94   15.29
   9  -1   4    4.78    2.10
  -9   1  -4    6.79    2.49
   9  -1   3  401.87   13.48
  -9   1  -3  390.69   12.91
   9  -1   2  549.85   17.78
  -9   1  -2  554.44   17.78
   9  -1   1  123.41    5.35
  -9   1  -1  133.35    6.02
   9  -1   0  757.86   23.80
  -9   1   0  765.79   24.18
   9  -1  -1 1095.49   33.84
  -9   1   1 1084.02   33.46
   9  -1  -2  121.69    5.83
  -9   1   2  121.59    5.93
   9  -1  -3  117.67    5.93
  -9   1   3  122.26    5.93
   9  -1  -4  236.40    8.99
   9  -1  -4  210.69    8.51
   9  -1  -5  885.57   27.72
   9  -1  -5  964.53   30.11
   9  -1  -6 2231.13   67.20
   9  -1  -6 2221.58   66.91
   9  -1  -7 1007.55   31.35
   9  -1  -7  949.04   29.73
   9  -1  -9  557.50   18.35
   9  -1  -9  546.31   18.07
   9  -1 -10    2.29    3.15
   9  -1 -10   -1.24    3.06
   9  -1 -11 1039.09   32.41
   9  -1 -11 1017.11   31.64
   9  -1 -12  576.23   19.02
   9  -1 -12  560.46   18.45
   9  -1 -13    3.54    2.96
   9  -1 -13   -2.58    3.25
   9  -1 -14  640.66   20.84
   9  -1 -14  650.22   21.03
   9  -1 -15   -3.06    3.35
   9  -1 -15   -0.29    3.35
   9  -1 -16  535.89   17.78
   9  -1 -16  525.57   17.30
   9  -1 -17  770.00   24.57
   9  -1 -17  721.25   23.04
   9  -1 -18    8.32    3.44
   9  -1 -18    4.01    3.15
   9  -1 -19   35.56    3.82
   9  -1 -19   39.58    4.11
   9  -1 -20  112.61    5.54
   9  -1 -20  126.66    6.12
   9  -1 -21   59.17    4.59
   9  -1 -21   58.89    4.68
   9  -1 -22   73.51    5.64
   9  -1 -22   69.30    4.97
   9  -1 -23   22.94    4.97
   9  -1 -23   25.14    4.59
   8   0   9   -1.34    1.43
   8   0   9    0.96    1.43
   8   0   8    1.05    1.63
   8   0   8    0.00    1.53
   8   0   7   -1.72    2.10
   8   0   7   -1.91    2.01
   8   0   6  568.11   17.59
   8   0   6  545.93   17.21
   8   0   5   -0.76    1.91
  -8   0  -5    0.86    2.01
   8   0   4 1234.10   37.38
  -8   0  -4 1208.29   36.52
   8   0   3    1.34    2.49
  -8   0  -3    2.68    2.20
   8   0   2   10.71    2.68
  -8   0  -2    8.41    2.58
   8   0   1   -0.19    2.77
  -8   0  -1   -2.49    2.29
   8   0   0  863.49   26.96
  -8   0   0  851.73   26.48
   8   0  -1   -1.05    2.77
   8   0  -1    1.24    2.68
   8   0  -2  858.81   26.86
   8   0  -2  803.93   25.24
   8   0  -3   -0.29    3.44
   8   0  -3   -0.38    3.15
   8   0  -4  678.33   21.70
   8   0  -4  687.69   22.08
   8   0  -5    1.53    3.35
   8   0  -5   -0.96    2.96
   8   0  -6 2201.50   65.96
   8   0  -6 2234.00   67.01
   8   0  -7    3.54    3.25
   8   0  -7   -0.57    3.35
   8   0  -8  602.62   19.60
   8   0  -8  625.27   20.36
   8   0  -9   -1.34    3.15
   8   0  -9    4.68    3.15
   8   0 -10  743.42   23.71
   8   0 -10  818.08   25.91
   8   0 -11    0.67    3.06
   8   0 -11   -0.57    3.25
   8   0 -12   59.55    4.40
   8   0 -12   62.52    4.59
   8   0 -13   -0.76    3.06
   8   0 -13    3.25    3.06
   8   0 -14  206.58    8.22
   8   0 -14  187.07    7.74
   8   0 -15   -0.86    2.96
   8   0 -15    0.48    3.25
   8   0 -16 1009.46   31.26
   8   0 -16 1025.71   31.83
   8   0 -17    1.43    3.15
   8   0 -17   -4.21    2.96
   8   0 -18  604.15   19.50
   8   0 -18  613.51   19.60
   8   0 -19   -2.96    3.15
   8   0 -19   -0.57    3.06
   8   0 -20   17.78    3.63
   8   0 -20   18.35    3.44
   8   0 -21   -0.38    3.54
   8   0 -21   -0.29    3.35
   8   0 -22  107.45    6.02
   8   0 -22  102.09    5.83
   8   0 -23    2.77    4.97
   8   0 -23   -2.10    4.49
   7   1   8  913.10   28.30
   7   1   8  838.92   26.00
   7   1   7   50.38    2.39
   7   1   7   51.72    2.49
   7   1   6  288.21    9.08
   7   1   6  306.18    9.75
   7   1   5  253.32    8.32
   7   1   5  225.89    7.65
   7   1   4  330.94   10.90
   7   1   4  311.92   10.13
   7   1   3   84.79    3.82
   7   1   3   79.25    3.63
   7   1   2 1238.88   37.28
   7   1   2 1258.00   37.95
   7   1   1   19.31    2.77
   7   1   1   16.92    2.58
   7   1   0  347.67   11.66
   7   1   0  349.87   11.85
   7   1  -1 1309.62   39.58
   7   1  -1 1368.89   41.39
   7   1  -2   86.89    4.97
   7   1  -2   97.31    5.07
   7   1  -3  272.82    9.94
   7   1  -3  278.08   10.04
   7   1  -4 1803.83   54.49
   7   1  -4 1711.11   51.72
   7   1  -5 1279.03   39.10
  -7  -1   5 1304.84   39.96
   7   1  -6  580.44   18.83
  -7  -1   6  606.63   19.69
   7   1  -7   45.60    4.11
  -7  -1   7   54.77    4.30
   7   1  -8   36.71    3.92
  -7  -1   8   35.37    3.92
   7   1  -9  328.84   11.66
  -7  -1   9  316.79   11.09
   7   1 -10  391.74   13.38
  -7  -1  10  381.32   13.38
   7   1 -11  488.10   16.25
  -7  -1  11  498.61   16.44
   7   1 -12  566.86   18.64
  -7  -1  12  558.64   18.26
   7   1 -13   11.85    3.06
  -7  -1  13    7.84    3.25
   7   1 -14  340.31   11.95
  -7  -1  14  319.09   11.09
   7   1 -15  587.90   19.12
  -7  -1  15  647.35   21.03
   7   1 -16    7.46    2.87
   7   1 -16    5.26    3.06
   7   1 -17  911.19   28.39
   7   1 -17  938.24   29.16
   7   1 -19   30.88    3.54
   7   1 -19   22.27    3.35
   7   1 -20  106.68    5.54
   7   1 -20  118.15    5.83
   7   1 -21    3.63    3.82
   7   1 -21    1.91    3.63
   7   1 -22   67.20    5.07
   7   1 -22   71.50    5.26
   6   2   6    0.48    1.05
   6   2   6    1.53    1.05
   6   2   5    5.64    1.43
   6   2   5    7.27    1.53
   6   2   4   29.63    2.10
   6   2   4   30.11    2.10
   6   2   3 2000.76   59.46
   6   2   3 2047.60   60.80
   6   2   2   29.44    2.77
   6   2   2   33.65    2.68
   6   2   1 3490.09  103.34
   6   2   1 3417.44  101.04
   6   2   0   65.86    3.82
   6   2   0   65.10    3.82
   6   2  -1 3703.26  109.55
  -6  -2   1 3879.15  114.81
   6   2  -2  217.66    8.32
  -6  -2   2  211.45    8.13
   6   2  -3 3651.64  108.21
  -6  -2   3 3532.15  104.77
   6   2  -4    8.79    3.44
  -6  -2   4   19.50    3.54
   6   2  -5 3870.55  114.71
  -6  -2   5 3860.99  114.52
   6   2  -6   82.31    4.97
  -6  -2   6   94.64    5.26
   6   2  -7   15.96    3.35
  -6  -2   7   23.52    3.92
   6   2  -8    8.13    3.25
  -6  -2   8   13.48    3.54
   6   2  -9  230.28    8.89
  -6  -2   9  217.00    8.41
   6   2 -10  164.80    6.98
  -6  -2  10  167.77    7.27
   6   2 -11 1619.34   49.23
  -6  -2  11 1607.87   48.66
   6   2 -12   26.19    3.54
  -6  -2  12   31.07    3.63
   6   2 -13 1000.86   31.07
  -6  -2  13 1026.67   31.83
   6   2 -14    2.29    2.96
  -6  -2  14    9.37    2.87
   6   2 -15   52.29    4.01
  -6  -2  15   52.58    4.30
   6   2 -16   -1.15    2.87
  -6  -2  16    7.93    2.68
   6   2 -17   75.71    4.40
  -6  -2  17   79.15    4.59
   6   2 -18   31.83    3.63
   6   2 -18   32.88    3.63
   6   2 -19  331.04   11.47
   6   2 -19  337.82   11.76
   6   2 -20   32.98    3.82
   6   2 -20   28.58    3.92
   6   2 -21  239.94    9.37
   6   2 -21  238.31    9.08
   6   2 -22    4.68    4.49
   6   2 -22   10.90    4.59
   5   3   5  659.97   20.17
   5   3   5  727.17   22.18
   5   3   4   22.27    1.53
   5   3   4   21.51    1.82
   5   3   3  972.18   29.16
   5   3   3  947.42   28.49
   5   3   2  270.81    9.08
   5   3   2  260.01    8.70
   5   3   1  904.59   27.53
  -5  -3  -1  901.82   27.44
   5   3   0  754.04   23.32
  -5  -3   0  785.10   24.28
   5   3  -1  248.06    8.79
  -5  -3   1  249.98    9.08
   5   3  -2  241.08    8.99
  -5  -3   2  232.29    8.79
   5   3  -3 1174.83   35.85
  -5  -3   3 1140.42   34.99
   5   3  -4 1873.62   56.40
  -5  -3   4 2262.68   67.68
   5   3  -5  167.67    7.07
  -5  -3   5  169.68    7.27
   5   3  -6  349.01   12.14
  -5  -3   6  350.92   12.24
   5   3  -7 1439.63   43.78
  -5  -3   7 1578.24   47.99
   5   3  -8   18.45    3.44
  -5  -3   8   20.55    3.44
   5   3  -9 1418.60   43.21
  -5  -3   9 1337.34   40.91
   5   3 -10  343.27   11.95
  -5  -3  10  329.89   11.76
   5   3 -11   46.08    4.11
  -5  -3  11   58.60    4.30
   5   3 -12  553.77   18.16
  -5  -3  12  548.03   18.26
   5   3 -13  292.70   10.61
  -5  -3  13  301.88   10.71
   5   3 -14  564.76   18.45
  -5  -3  14  584.55   18.93
   5   3 -15  413.44   14.15
  -5  -3  15  453.11   15.20
   5   3 -16  144.63    6.50
  -5  -3  16  123.70    5.74
   5   3 -17    6.60    3.25
  -5  -3  17   12.43    2.87
   5   3 -18  298.25   10.71
  -5  -3  18  303.12   10.52
   5   3 -19    2.96    3.25
  -5  -3  19    2.39    3.06
   5   3 -20   87.18    5.16
   5   3 -20   84.89    5.16
   5   3 -21  137.56    6.69
   5   3 -21  124.37    6.12
   5   3 -22    0.67    4.68
   5   3 -22    0.67    4.68
   4   4   4 1582.06   47.03
   4   4   4 1537.13   45.79
   4   4   3   93.78    3.63
  -4  -4  -3  103.14    4.11
   4   4   2  171.21    6.21
  -4  -4  -2  160.02    5.93
   4   4   1   15.96    2.49
  -4  -4  -1   11.95    2.29
   4   4   0 2719.61   80.68
  -4  -4   0 2937.56   87.18
   4   4  -1 1598.31   48.08
  -4  -4   1 1531.40   46.17
   4   4  -2   21.41    3.54
  -4  -4   2   31.07    3.63
   4   4  -3  136.79    6.31
  -4  -4   3  139.85    6.12
   4   4  -4 3313.24   98.36
  -4  -4   4 3215.74   95.59
   4   4  -5  156.87    6.79
  -4  -4   5  138.32    6.50
   4   4  -6    2.96    3.06
  -4  -4   6    3.73    2.87
   4   4  -7  147.21    6.69
  -4  -4   7  134.50    6.50
   4   4  -8  128.09    6.12
  -4  -4   8  120.64    5.64
   4   4  -9   92.63    4.97
  -4  -4   9   88.04    5.16
   4   4 -10  441.83   14.82
  -4  -4  10  270.53    9.94
   4   4 -11  119.68    5.83
  -4  -4  11  130.58    6.31
   4   4 -12   30.02    3.73
  -4  -4  12   37.76    3.92
   4   4 -13  112.03    5.64
  -4  -4  13  119.11    5.64
   4   4 -14  740.56   23.52
  -4  -4  14  737.12   23.61
   4   4 -15  127.43    6.12
  -4  -4  15  130.10    5.83
   4   4 -16  232.29    8.89
  -4  -4  16  240.03    9.18
   4   4 -17   95.31    5.16
  -4  -4  17   99.13    5.07
   4   4 -18   23.80    3.54
  -4  -4  18   18.74    3.25
   4   4 -19   16.54    3.73
  -4  -4  19   19.31    3.44
   4   4 -20   76.67    5.16
  -4  -4  20   73.32    4.88
   4   4 -21   41.87    4.49
   4   4 -21   44.83    4.49
   3   5   5   41.30    2.10
  -3  -5  -5   40.24    2.01
   3   5   4 1154.76   34.51
  -3  -5  -4 1057.26   31.74
   3   5   3  362.20   11.66
  -3  -5  -3  353.22   11.28
   3   5   2  270.34    9.08
  -3  -5  -2  262.88    8.99
   3   5   1  351.97   11.66
  -3  -5  -1  351.49   11.66
   3   5   0    8.79    2.68
  -3  -5   0    9.27    2.96
   3   5  -1  254.75    9.27
  -3  -5   1  240.13    8.89
   3   5  -2 3399.28  100.75
  -3  -5   2 3344.79   99.32
   3   5  -3   -0.57    3.15
  -3  -5   3    3.73    3.15
   3   5  -4  597.26   19.31
  -3  -5   4  597.55   19.41
   3   5  -5  202.75    8.03
  -3  -5   5  199.60    8.13
   3   5  -6 2762.63   82.40
  -3  -5   6 2785.57   83.26
   3   5  -7   12.43    3.35
  -3  -5   7   11.95    2.96
   3   5  -8    7.17    3.06
  -3  -5   8    6.21    3.25
   3   5  -9  136.22    6.31
  -3  -5   9  100.85    5.64
   3   5 -10  976.00   30.40
  -3  -5  10 1000.86   31.07
   3   5 -11   25.71    3.44
  -3  -5  11   31.64    3.82
   3   5 -12  734.34   23.32
  -3  -5  12  712.55   22.75
   3   5 -13   -2.49    2.96
  -3  -5  13   -1.72    2.68
   3   5 -14  472.99   15.87
  -3  -5  14  486.09   16.25
   3   5 -15   23.52    3.63
  -3  -5  15   23.52    3.35
   3   5 -16   51.62    4.21
  -3  -5  16   53.25    4.01
   3   5 -17   -3.06    2.87
  -3  -5  17   -2.20    2.96
   3   5 -18  368.89   12.71
  -3  -5  18  413.63   13.96
   3   5 -19   60.70    4.68
  -3  -5  19   57.45    4.40
   3   5 -20   89.09    5.64
  -3  -5  20   84.50    5.54
   3   5 -21   13.96    4.68
  -3  -5  21   15.96    4.30
   2   6   7   -0.29    0.76
  -2  -6  -7    1.63    0.96
   2   6   6  556.64   17.02
  -2  -6  -6  549.85   16.82
   2   6   5  247.97    8.13
  -2  -6  -5  225.50    7.55
   2   6   4    0.86    1.91
  -2  -6  -4    2.01    2.10
   2   6   3   88.52    4.21
  -2  -6  -3   83.26    4.11
   2   6   2   62.80    3.73
  -2  -6  -2   57.36    3.73
   2   6   1  277.41    9.85
  -2  -6  -1  266.13    9.46
   2   6   0    6.21    2.87
  -2  -6   0    2.58    3.15
   2   6  -1  289.93   10.42
  -2  -6   1  278.84   10.13
   2   6  -2  319.95   11.38
  -2  -6   2  318.99   11.38
   2   6  -3  252.46    9.46
  -2  -6   3  260.20    9.85
   2   6  -4 2476.81   73.99
  -2  -6   4 2535.12   75.90
   2   6  -5 3896.36  115.67
  -2  -6   5 3851.43  114.23
   2   6  -6  883.47   27.72
  -2  -6   6  888.25   27.82
   2   6  -7   88.90    5.26
  -2  -6   7   91.48    5.07
   2   6  -8  124.94    6.02
  -2  -6   8  135.17    6.69
   2   6  -9  114.04    5.74
  -2  -6   9  136.03    6.50
   2   6 -10  199.12    8.13
  -2  -6  10  176.85    7.36
   2   6 -11 1206.38   37.09
  -2  -6  11 1167.19   36.23
   2   6 -12    4.49    3.25
  -2  -6  12    2.49    2.96
   2   6 -13   17.88    3.25
  -2  -6  13   13.86    3.35
   2   6 -14  112.32    5.74
  -2  -6  14  148.07    6.79
   2   6 -15   53.91    4.40
  -2  -6  15   50.57    4.11
   2   6 -16   86.51    4.88
  -2  -6  16   81.45    4.68
   2   6 -17  116.05    5.83
  -2  -6  17  111.94    5.54
   2   6 -18   -0.57    3.54
  -2  -6  18    6.50    3.54
   2   6 -19  180.96    7.84
  -2  -6  19  185.07    8.03
   2   6 -20   34.51    4.88
  -2  -6  20   29.25    4.59
  -1  -7  -9  465.82   14.72
  -1  -7  -9  431.22   13.67
   1   7   8  141.48    4.88
  -1  -7  -8  154.86    5.35
   1   7   7 1679.56   50.09
  -1  -7  -7 1465.44   43.78
   1   7   6    3.63    1.82
  -1  -7  -6   -1.72    1.82
   1   7   5  429.31   13.67
  -1  -7  -5  424.14   13.67
   1   7   4  485.13   15.49
  -1  -7  -4  487.52   15.58
   1   7   3  138.42    5.83
  -1  -7  -3  123.41    5.45
   1   7   2   53.05    3.82
  -1  -7  -2   47.03    3.73
   1   7   1 1792.36   53.82
  -1  -7  -1 1816.26   54.68
   1   7   0  691.52   21.99
  -1  -7   0  645.63   20.74
   1   7  -1 1199.69   36.90
  -1  -7   1 1179.61   36.33
   1   7  -2  164.61    7.17
  -1  -7   2  157.15    6.79
   1   7  -3 1301.97   39.77
  -1  -7   3 1269.47   38.91
   1   7  -4  784.24   24.85
  -1  -7   4  770.86   24.28
   1   7  -5   83.45    5.16
  -1  -7   5   84.41    5.26
   1   7  -6  188.22    7.93
  -1  -7   6  209.54    8.41
   1   7  -7  723.45   23.13
  -1  -7   7  795.24   25.52
   1   7  -8  152.76    6.88
  -1  -7   8  139.47    6.88
   1   7  -9 1511.32   46.08
  -1  -7   9 1527.57   46.36
   1   7 -10    6.21    3.44
  -1  -7  10    4.40    3.73
   1   7 -11   20.55    3.63
  -1  -7  11   23.42    3.92
   1   7 -12  353.41   12.62
  -1  -7  12  339.07   11.76
   1   7 -13  321.57   11.57
  -1  -7  13  335.63   12.24
   1   7 -14   63.09    4.49
  -1  -7  14   51.91    4.01
   1   7 -15  267.56    9.94
  -1  -7  15  265.84    9.75
   1   7 -16   61.94    4.59
  -1  -7  16   50.00    3.92
   1   7 -17   24.76    4.11
  -1  -7  17   26.86    3.92
   1   7 -18   10.23    4.01
  -1  -7  18   10.71    3.73
   1   7 -19   -3.25    4.21
  -1  -7  19   -0.96    4.30
   0  -8 -10   13.67    1.53
   0  -8 -10   14.91    1.82
   0   8   9  166.52    5.93
   0  -8  -9  166.71    6.02
   0   8   8  975.05   29.54
   0  -8  -8  989.38   30.02
   0   8   7  148.46    5.83
   0  -8  -7  170.44    6.40
   0   8   6  658.54   20.46
   0  -8  -6  642.10   20.17
   0   8   5   82.50    4.40
   0  -8  -5   76.95    4.30
   0   8   4  104.77    5.07
   0  -8  -4  108.12    5.35
   0   8   3 3509.21  104.20
   0  -8  -3 3531.20  104.77
   0   8   2  386.86   13.10
   0  -8  -2  396.90   13.57
   0   8   1  874.77   27.53
   0  -8  -1  829.74   26.10
   0   8   0   28.77    3.73
   0  -8   0   30.40    3.92
   0   8  -1  895.42   28.10
   0  -8   1  899.53   28.10
   0   8  -2  418.03   14.53
   0  -8   2  387.82   13.48
   0   8  -3 3437.51  102.28
   0  -8   3 3531.20  105.25
   0   8  -4  110.51    5.83
   0  -8   4  120.64    6.21
   0   8  -5   81.64    5.26
   0  -8   5   82.40    5.45
   0   8  -6  681.58   21.99
   0  -8   6  541.15   17.78
   0   8  -7  172.26    7.55
   0  -8   7  165.09    7.65
   0   8  -8  990.34   30.97
   0  -8   8 1034.31   32.41
   0   8  -9  189.66    7.93
   0  -8   9  183.54    7.84
   0   8 -10   17.59    3.44
   0  -8  10   18.07    4.21
   0   8 -11  680.62   21.89
   0  -8  11  700.89   22.56
   0   8 -12   15.87    3.54
   0  -8  12   13.38    3.63
   0   8 -13  138.80    6.31
   0  -8  13  126.66    6.02
   0   8 -14  302.84   11.09
   0  -8  14  284.87   10.42
   0   8 -15    3.35    3.06
   0  -8  15    1.15    3.25
   0   8 -16   26.10    4.11
   0  -8  16   30.21    3.82
   0   8 -17  148.07    6.88
   0  -8  17  115.57    5.93
   0   8 -18    8.13    4.30
   0  -8  18   10.80    4.30
   0   8 -19   34.89    4.88
   0  -8  19   39.67    5.26
   1  -9 -11  494.98   15.58
  -1   9  10 1270.43   38.33
   1  -9 -10 1298.15   39.19
  -1   9   9   32.88    2.96
   1  -9  -9   26.57    2.77
  -1   9   8  285.82    9.85
   1  -9  -8  260.11    9.18
  -1   9   7   26.48    2.96
   1  -9  -7   29.06    3.15
  -1   9   6  543.35   17.68
   1  -9  -6  540.10   17.49
  -1   9   5   56.69    3.92
   1  -9  -5   62.90    4.21
  -1   9   4  762.83   24.18
   1  -9  -4  739.60   23.42
  -1   9   3   35.08    3.54
   1  -9  -3   27.82    3.63
  -1   9   2 2200.54   66.15
   1  -9  -2 2152.75   64.81
  -1   9   1  775.45   24.57
   1  -9  -1  792.18   25.24
  -1   9   0    6.50    3.44
   1  -9   0   12.24    3.63
  -1   9  -1    5.35    3.15
   1  -9   1    3.25    3.63
  -1   9  -2 2150.84   64.81
   1  -9   2 2242.61   67.68
  -1   9  -3   86.89    5.45
   1  -9   3   91.58    5.35
  -1   9  -4  151.32    6.98
   1  -9   4  144.63    6.88
  -1   9  -5   34.41    4.01
   1  -9   5   24.28    3.73
  -1   9  -6  193.38    8.22
   1  -9   6  193.67    8.32
  -1   9  -7   89.09    5.35
   1  -9   7   87.95    5.93
  -1   9  -8  442.40   15.20
   1  -9   8  466.49   15.68
  -1   9  -9   -6.69    3.25
   1  -9   9    1.82    3.44
  -1   9 -10  782.33   25.05
   1  -9  10  858.61   27.53
  -1   9 -11   95.69    5.45
   1  -9  11  106.11    5.93
  -1   9 -12   42.63    4.21
   1  -9  12   59.94    4.68
  -1   9 -13    2.20    3.15
   1  -9  13    2.29    3.15
  -1   9 -14   10.52    3.63
   1  -9  14   14.91    3.63
  -1   9 -15    4.97    3.44
   1  -9  15    4.78    3.44
  -1   9 -16  173.88    7.65
   1  -9  16  174.17    7.46
  -1   9 -17    7.07    4.30
   1  -9  17    3.25    4.01
  -1   9 -18  155.91    7.65
   1  -9  18  143.77    7.17
   2 -10 -13  424.81   13.48
   2 -10 -13  432.75   13.67
   2 -10 -12   22.37    2.68
  -2  10  11  295.38   10.13
   2 -10 -11  294.33   10.23
  -2  10  10    5.26    2.58
   2 -10 -10    8.60    2.87
  -2  10   9  783.00   24.38
   2 -10  -9  822.10   25.71
  -2  10   8  366.88   12.43
   2 -10  -8  374.63   12.71
  -2  10   7   50.86    3.63
   2 -10  -7   47.70    3.82
  -2  10   6  358.76   12.52
   2 -10  -6  366.60   12.71
  -2  10   5  197.69    8.13
   2 -10  -5  184.30    7.65
  -2  10   4  168.34    7.17
   2 -10  -4  171.49    7.27
  -2  10   3  626.71   20.46
   2 -10  -3  600.70   19.60
  -2  10   2  665.61   21.51
   2 -10  -2  763.59   24.38
  -2  10   1  437.81   14.91
   2 -10  -1  436.38   15.10
  -2  10   0 2166.13   65.39
   2 -10   0 2120.25   63.95
  -2  10  -1  382.18   13.67
   2 -10   1  371.28   13.38
  -2  10  -2   62.71    4.59
   2 -10   2   60.51    4.97
  -2  10  -3  153.90    7.07
   2 -10   3  153.81    7.36
  -2  10  -4   88.04    5.35
   2 -10   4   91.96    5.93
  -2  10  -5  311.35   11.47
   2 -10   5  311.63   11.38
  -2  10  -6 1369.84   42.06
   2 -10   6 1457.79   44.93
  -2  10  -7  197.69    8.22
   2 -10   7  211.16    8.99
  -2  10  -8  597.93   19.69
   2 -10   8  468.60   15.87
  -2  10  -9  559.22   18.64
   2 -10   9  337.73   12.62
  -2  10 -10    7.55    3.35
   2 -10  10    6.21    3.54
  -2  10 -11   10.90    3.54
   2 -10  11    7.93    3.54
  -2  10 -12  274.92   10.32
   2 -10  12  267.85    9.94
  -2  10 -13   23.04    3.92
   2 -10  13   26.48    3.82
  -2  10 -14   95.02    5.54
   2 -10  14   89.09    5.35
  -2  10 -15  178.57    8.03
   2 -10  15  208.30    8.70
  -2  10 -16    9.18    3.92
   2 -10  16    2.68    4.01
  -2  10 -17   73.89    5.93
   2 -10  17   77.24    5.35
   3 -11 -15  156.77    5.74
   3 -11 -15  167.77    6.02
   3 -11 -14    1.43    2.49
   3 -11 -14    6.12    2.49
   3 -11 -13  162.22    6.40
   3 -11 -13  161.74    6.50
  -3  11  12   13.00    2.77
   3 -11 -12   14.43    3.06
  -3  11  11   40.82    3.73
   3 -11 -11   39.77    3.63
  -3  11  10    5.07    2.77
   3 -11 -10    3.82    3.15
  -3  11   9  416.31   14.05
   3 -11  -9  412.87   13.86
  -3  11   8   25.81    3.35
   3 -11  -8   27.05    3.35
  -3  11   7  454.93   15.29
   3 -11  -7  446.32   15.01
  -3  11   6   13.38    3.15
   3 -11  -6   12.24    3.35
  -3  11   5  177.42    7.65
   3 -11  -5  179.62    7.74
  -3  11   4    8.32    3.35
   3 -11  -4    7.65    3.63
  -3  11   3  224.83    8.89
   3 -11  -3  223.02    8.99
  -3  11   2    4.21    3.63
   3 -11  -2    3.63    3.54
  -3  11   1 2673.73   80.30
   3 -11  -1 2709.10   81.35
  -3  11   0  198.55    8.41
   3 -11   0  198.74    8.41
  -3  11  -1  681.48   22.18
   3 -11   1  675.55   22.18
  -3  11  -2  137.27    6.79
   3 -11   2  133.07    6.60
  -3  11  -3   11.09    3.44
   3 -11   3   23.90    4.01
  -3  11  -4  570.59   19.12
   3 -11   4  546.89   18.45
  -3  11  -5 1688.17   51.43
   3 -11   5 1763.69   53.63
  -3  11  -6   25.14    4.01
   3 -11   6   29.25    4.68
  -3  11  -7  522.89   17.59
   3 -11   7  542.97   18.16
  -3  11  -8    6.98    3.54
   3 -11   8    8.70    4.21
  -3  11  -9  110.98    6.02
   3 -11   9  104.58    6.02
  -3  11 -10  199.50    8.41
   3 -11  10  202.08    8.32
  -3  11 -11   78.00    5.16
   3 -11  11   83.36    5.26
  -3  11 -12    1.72    3.54
   3 -11  12    9.46    3.82
  -3  11 -13  365.07   12.81
   3 -11  13  346.05   12.33
  -3  11 -14   27.91    4.01
   3 -11  14   25.43    4.21
  -3  11 -15  171.11    7.84
   3 -11  15  156.29    7.27
  -3  11 -16    9.56    4.88
   3 -11  16   24.85    4.59
   4 -12 -16   87.18    4.59
   4 -12 -16   91.29    4.49
   4 -12 -15   17.11    3.35
   4 -12 -15   11.09    2.96
   4 -12 -14   74.94    4.40
   4 -12 -14   89.86    4.88
  -4  12  13  451.48   14.91
   4 -12 -13  472.80   15.58
  -4  12  12   33.17    3.73
   4 -12 -12   38.62    3.82
  -4  12  11  123.12    6.02
   4 -12 -11  115.57    5.93
  -4  12  10  143.20    6.50
   4 -12 -10  144.73    6.60
  -4  12   9  290.79   10.61
   4 -12  -9  309.53   11.38
  -4  12   8  224.45    8.99
   4 -12  -8  210.97    8.60
  -4  12   7  197.11    8.13
   4 -12  -7  189.18    8.03
  -4  12   6  271.58   10.32
   4 -12  -6  248.54    9.75
  -4  12   5  513.62   17.11
   4 -12  -5  520.50   17.49
  -4  12   4  137.56    6.79
   4 -12  -4  151.13    7.07
  -4  12   3  865.02   27.53
   4 -12  -3  875.44   27.82
  -4  12   2  269.86   10.52
   4 -12  -2  277.03   10.71
  -4  12   1   16.25    3.92
   4 -12  -1   15.49    4.01
  -4  12   0   17.78    4.11
   4 -12   0   14.24    3.82
  -4  12  -1  319.47   11.95
   4 -12   1  282.76   10.90
  -4  12  -2    2.20    3.54
   4 -12   2    5.45    3.82
  -4  12  -3 1566.76   47.99
   4 -12   3 1612.65   49.52
  -4  12  -4   54.97    4.59
   4 -12   4   40.63    4.68
  -4  12  -5   13.38    3.73
   4 -12   5   17.88    4.11
  -4  12  -6  174.74    7.84
   4 -12   6  169.58    7.84
  -4  12  -7  103.34    6.02
   4 -12   7  106.49    5.83
  -4  12  -8    4.40    3.54
   4 -12   8   -3.54    4.21
  -4  12  -9  262.98   10.13
   4 -12   9  237.45    9.08
  -4  12 -10    3.25    3.63
   4 -12  10   -0.19    3.73
  -4  12 -11  205.24    8.41
   4 -12  11  223.69    8.99
  -4  12 -12   87.28    5.35
   4 -12  12  102.28    6.12
  -4  12 -13    5.26    3.63
   4 -12  13   -2.10    3.44
  -4  12 -14   40.24    4.97
   4 -12  14   33.46    4.59
   5 -13 -17    3.82    3.54
   5 -13 -17    2.77    3.44
   5 -13 -16    3.35    3.82
   5 -13 -16   -0.29    3.25
   5 -13 -15   12.62    3.54
   5 -13 -15   10.42    3.73
  -5  13  14  305.51   11.09
   5 -13 -14  405.50   13.57
  -5  13  13   52.58    4.30
   5 -13 -13   56.78    4.40
  -5  13  12  460.09   15.49
   5 -13 -12  473.57   15.77
  -5  13  11    4.59    3.35
   5 -13 -11   -1.34    3.44
  -5  13  10   71.31    4.78
   5 -13 -10   65.39    5.07
  -5  13   9  238.41    9.37
   5 -13  -9  244.24    9.75
  -5  13   8  108.88    5.83
   5 -13  -8   98.75    6.12
  -5  13   7   10.99    3.63
   5 -13  -7   12.52    3.63
  -5  13   6 1396.61   42.83
   5 -13  -6 1363.15   42.06
  -5  13   5  120.92    6.40
   5 -13  -5  138.42    6.88
  -5  13   4 1040.05   32.60
   5 -13  -4 1073.51   33.65
  -5  13   3  191.95    8.41
   5 -13  -3  194.05    8.41
  -5  13   2  125.90    6.69
   5 -13  -2  117.87    6.60
  -5  13   1  166.24    7.65
   5 -13  -1  155.05    7.27
  -5  13   0  346.05   12.71
   5 -13   0  374.34   13.57
  -5  13  -1  195.49    8.60
   5 -13   1  161.84    7.65
  -5  13  -2  775.74   24.95
   5 -13   2  835.67   26.96
  -5  13  -3   66.25    5.07
   5 -13   3   63.66    5.54
  -5  13  -4  151.51    7.27
   5 -13   4  144.44    7.07
  -5  13  -5  190.52    8.41
   5 -13   5  193.10    8.79
  -5  13  -6    8.32    3.73
   5 -13   6    6.12    3.63
  -5  13  -7   96.55    5.64
   5 -13   7  102.76    6.12
  -5  13  -8  266.70   10.23
   5 -13   8  243.28    9.65
  -5  13  -9   -0.67    3.54
   5 -13   9    3.82    3.63
  -5  13 -10  178.66    7.84
   5 -13  10  137.37    6.79
  -5  13 -11   40.72    4.40
   5 -13  11   30.30    4.11
  -5  13 -12   -3.63    3.92
   5 -13  12    6.88    3.73
  -5  13 -13   63.00    4.97
   5 -13  13   67.97    5.07
   6 -14 -17   -6.79    4.21
   6 -14 -17    1.24    4.30
   6 -14 -16  144.25    6.98
   6 -14 -16  141.67    6.98
   6 -14 -15   15.29    3.82
  -6  14  14   90.91    5.45
   6 -14 -14   91.20    5.35
  -6  14  13   60.99    4.78
   6 -14 -13   70.17    4.68
  -6  14  12   13.77    3.63
   6 -14 -12   10.61    3.73
  -6  14  11    7.84    3.35
   6 -14 -11   15.68    3.73
  -6  14  10  256.57    9.94
   6 -14 -10  257.81    9.94
  -6  14   9   28.58    3.82
   6 -14  -9   32.88    4.40
  -6  14   8  199.69    8.60
   6 -14  -8  209.63    9.08
  -6  14   7   44.16    4.49
   6 -14  -7   40.63    4.88
  -6  14   6    7.93    3.92
   6 -14  -6   13.10    3.82
  -6  14   5  395.75   14.05
   6 -14  -5  398.81   14.05
  -6  14   4  252.27    9.94
   6 -14  -4  237.83    9.75
  -6  14   3    5.07    3.63
   6 -14  -3    3.06    3.63
  -6  14   2  375.01   13.57
   6 -14  -2  380.65   13.86
  -6  14   1   40.15    4.78
   6 -14  -1   45.02    4.59
  -6  14   0  214.70    8.99
   6 -14   0  215.18    9.27
  -6  14  -1  103.53    6.12
   6 -14   1  112.99    6.21
  -6  14  -2    8.03    3.73
   6 -14   2    5.64    3.82
  -6  14  -3   47.61    4.68
   6 -14   3   56.88    5.35
  -6  14  -4  164.52    7.65
   6 -14   4  165.28    7.65
  -6  14  -5   -4.59    3.44
   6 -14   5   -2.96    4.11
  -6  14  -6  165.28    7.55
   6 -14   6  149.12    6.88
  -6  14  -7    6.69    3.63
   6 -14   7    1.91    4.11
  -6  14  -8   39.38    4.30
   6 -14   8   47.99    4.21
  -6  14  -9   11.47    3.63
   6 -14   9   12.62    4.01
  -6  14 -10   45.88    4.49
   6 -14  10   45.79    4.49
  -6  14 -11   32.79    4.40
   6 -14  11   32.69    4.11
  -6  14 -12   69.97    5.54
   6 -14  12   77.14    5.54
   7 -15 -17   -2.96    4.68
   7 -15 -17    1.82    4.88
   7 -15 -16    5.26    4.40
   7 -15 -16   -6.12    4.30
  -7  15  15  124.46    6.60
   7 -15 -15  128.09    6.40
  -7  15  14   42.54    4.59
   7 -15 -14   31.16    4.40
  -7  15  13   21.51    4.30
   7 -15 -13   27.15    4.21
  -7  15  12  145.11    6.79
   7 -15 -12  144.63    6.88
  -7  15  11   15.01    3.82
   7 -15 -11   14.91    3.82
  -7  15  10  106.39    5.83
   7 -15 -10  103.24    5.93
  -7  15   9  357.04   12.71
   7 -15  -9  378.83   13.19
  -7  15   8   46.46    4.68
   7 -15  -8   55.92    4.68
  -7  15   7   30.02    4.30
   7 -15  -7   31.74    4.21
  -7  15   6   75.42    5.45
   7 -15  -6   74.18    5.74
  -7  15   5    3.63    3.63
   7 -15  -5    7.84    3.82
  -7  15   4    3.54    3.63
   7 -15  -4   -0.57    3.92
  -7  15   3  148.74    7.17
   7 -15  -3  170.06    7.65
  -7  15   2   -2.01    3.92
   7 -15  -2    2.58    3.92
  -7  15   1  103.05    5.93
   7 -15  -1  109.74    6.21
  -7  15   0   18.35    3.92
   7 -15   0   17.40    4.11
  -7  15  -1    2.01    3.63
   7 -15   1   -2.29    3.63
  -7  15  -2   20.36    4.21
   7 -15   2   28.10    4.11
  -7  15  -3   86.70    5.64
   7 -15   3   84.03    5.74
  -7  15  -4   37.19    4.40
   7 -15   4   36.23    4.11
  -7  15  -5  115.76    6.21
   7 -15   5   98.46    5.74
  -7  15  -6    5.93    3.73
   7 -15   6   11.57    3.92
  -7  15  -7  206.10    8.32
   7 -15   7  205.33    8.70
  -7  15  -8   51.05    4.59
   7 -15   8   54.58    4.68
  -7  15  -9   11.38    3.92
   7 -15   9    8.13    3.73
  -7  15 -10  106.30    5.93
   7 -15  10   80.58    5.54
   8 -16 -16    4.59    4.30
  -8  16  15   12.33    4.40
   8 -16 -15    8.03    4.21
  -8  16  14    3.06    4.21
   8 -16 -14    3.54    4.21
  -8  16  13  264.41   10.61
   8 -16 -13  258.48   10.13
  -8  16  12    5.26    4.21
   8 -16 -12    7.84    3.73
  -8  16  11  190.61    7.93
   8 -16 -11  200.17    8.13
  -8  16  10   17.78    4.21
   8 -16 -10   18.74    4.01
  -8  16   9   28.30    4.30
   8 -16  -9   23.52    4.40
  -8  16   8   40.05    4.30
   8 -16  -8   37.57    4.59
  -8  16   7  517.16   17.40
   8 -16  -7  534.27   17.88
  -8  16   6   48.56    4.59
   8 -16  -6   59.08    5.07
  -8  16   5  279.61   10.52
   8 -16  -5  287.54   10.99
  -8  16   4   15.87    3.82
   8 -16  -4   15.10    4.21
  -8  16   3   41.49    4.49
   8 -16  -3   44.83    4.59
  -8  16   2    6.21    3.54
   8 -16  -2    0.76    3.82
  -8  16   1  148.07    6.98
   8 -16  -1  140.43    6.88
  -8  16   0   23.04    4.01
   8 -16   0   34.89    4.68
  -8  16  -1  311.92   11.66
   8 -16   1  286.49   11.09
  -8  16  -2    8.13    3.92
   8 -16   2   12.71    3.54
  -8  16  -3   62.23    4.78
   8 -16   3   56.30    4.88
  -8  16  -4    5.54    3.54
   8 -16   4    7.84    4.11
  -8  16  -5   19.21    4.11
   8 -16   5    9.75    3.63
  -8  16  -6   89.47    5.64
   8 -16   6   92.34    5.74
  -8  16  -7  108.98    6.21
   8 -16   7   95.31    5.83
  -8  16  -8    3.92    3.73
   8 -16   8   -2.58    3.82
  -9  17  15   20.93    4.68
   9 -17 -15   21.70    5.07
  -9  17  14   18.54    4.40
   9 -17 -14   10.32    4.30
  -9  17  13    3.15    3.82
   9 -17 -13    9.65    4.11
  -9  17  12   59.36    4.97
   9 -17 -12   58.98    5.45
  -9  17  11  128.00    6.50
   9 -17 -11  128.57    6.69
  -9  17  10    6.40    4.01
   9 -17 -10    8.51    4.21
  -9  17   9  235.25    9.56
   9 -17  -9  236.11    9.65
  -9  17   8   61.56    4.88
   9 -17  -8   65.00    5.35
  -9  17   7    1.15    3.44
   9 -17  -7    5.35    3.73
  -9  17   6  251.98    9.65
   9 -17  -6  237.83    9.37
  -9  17   5    4.78    3.82
   9 -17  -5    8.70    3.92
  -9  17   4   24.76    4.11
   9 -17  -4   28.68    4.30
  -9  17   3  212.22    8.60
   9 -17  -3  225.50    9.18
  -9  17   2   29.25    4.30
   9 -17  -2   30.78    4.21
  -9  17   1  105.15    5.83
   9 -17  -1  101.62    6.31
  -9  17   0  193.58    8.03
   9 -17   0  193.00    8.03
  -9  17  -1    9.18    3.73
   9 -17   1   22.94    4.11
  -9  17  -2  117.10    6.12
   9 -17   2  124.65    6.69
  -9  17  -3   43.97    4.30
   9 -17   3   39.38    4.59
  -9  17  -4    3.63    3.63
   9 -17   4    1.72    3.54
  -9  17  -5   48.66    4.40
   9 -17   5   38.91    4.40
  -9  17  -6   13.38    3.82
   9 -17   6   20.17    4.11
 -10  18  13   21.60    4.11
  10 -18 -13   23.80    4.40
 -10  18  12   65.00    4.97
  10 -18 -12   67.30    5.16
 -10  18  11    4.59    3.73
  10 -18 -11   -2.29    4.01
 -10  18  10   65.00    4.78
  10 -18 -10   93.30    5.93
 -10  18   9   26.48    4.11
  10 -18  -9   28.58    4.68
 -10  18   8   62.71    4.88
  10 -18  -8   62.42    5.16
 -10  18   7   -0.57    3.44
  10 -18  -7    4.40    3.73
 -10  18   6    4.68    3.63
  10 -18  -6    7.27    3.82
 -10  18   5   50.76    4.59
  10 -18  -5   61.94    5.07
 -10  18   4  200.46    8.22
  10 -18  -4  209.06    8.79
 -10  18   3   32.60    4.21
  10 -18  -3   49.04    4.59
 -10  18   2  221.30    8.99
  10 -18  -2  207.05    8.79
 -10  18   1   -0.29    3.54
  10 -18  -1    2.29    3.82
 -10  18   0    4.30    3.92
  10 -18   0    4.88    3.63
 -10  18  -1   34.80    4.11
  10 -18   1   30.69    4.68
 -10  18  -2    6.02    3.63
  10 -18   2    7.65    3.82
 -10  18  -3   -1.72    3.44
  10 -18   3   -1.05    3.54
 -11  19  10    6.79    3.73
  11 -19 -10    7.17    4.01
 -11  19   9   59.27    4.68
  11 -19  -9   61.18    4.78
 -11  19   8  159.83    7.07
  11 -19  -8  157.06    7.07
 -11  19   7   92.44    5.74
  11 -19  -7  100.66    5.93
 -11  19   6   34.51    3.92
  11 -19  -6   25.91    4.11
 -11  19   5   88.71    5.26
  11 -19  -5   93.59    5.54
 -11  19   4    0.19    3.35
  11 -19  -4   -2.96    3.82
 -11  19   3    8.32    3.54
  11 -19  -3    0.00    3.82
 -11  19   2   70.55    5.07
  11 -19  -2   75.52    4.68
 -11  19   1    4.01    3.63
  11 -19  -1   10.90    3.92
 -11  19   0   98.65    5.83
  11 -19   0   87.08    5.35
  21 -11  -6   -2.96    4.01
 -21  11   6    8.51    3.82
  21 -11  -7  146.64    6.69
 -21  11   7  141.67    6.60
  21 -11  -8    2.39    3.63
 -21  11   8    3.44    3.54
  21 -11  -9    7.84    3.63
 -21  11   9   12.43    3.82
  21 -11 -10   21.60    3.73
 -21  11  10   21.22    3.73
  21 -11 -11   14.05    3.63
  21 -11 -12   39.29    4.40
  21 -11 -12   44.26    4.49
  21 -11 -13   59.55    4.78
  21 -11 -13   62.71    4.49
  21 -11 -14    3.92    4.21
  21 -11 -14    1.15    3.63
  20 -10  -2    1.34    3.63
 -20  10   2    0.96    3.82
  20 -10  -3   40.34    4.40
 -20  10   3   42.44    4.59
  20 -10  -4   30.30    4.01
 -20  10   4   36.42    4.11
  20 -10  -5    2.01    3.73
 -20  10   5   13.77    3.44
  20 -10  -6  190.99    7.74
 -20  10   6  195.58    8.32
  20 -10  -7   17.40    3.82
 -20  10   7   12.14    3.73
  20 -10  -8   21.41    3.44
 -20  10   8   20.17    3.63
  20 -10  -9  130.48    6.60
 -20  10   9  109.36    5.83
  20 -10 -10   10.23    3.63
 -20  10  10    9.18    3.63
  20 -10 -11  108.21    6.21
  20 -10 -12   96.93    5.74
  20 -10 -12  100.75    5.93
  20 -10 -13   29.82    4.11
  20 -10 -13   35.18    4.40
  20 -10 -14  184.02    7.84
  20 -10 -14  188.13    8.03
  20 -10 -15   71.50    5.16
  20 -10 -15   84.31    5.64
  20 -10 -16    4.68    3.82
  20 -10 -16   18.74    4.30
  20 -10 -17  100.56    5.74
  20 -10 -17  103.05    5.54
  19  -9   1    4.59    3.82
 -19   9  -1    2.87    4.01
  19  -9   0   43.40    4.49
 -19   9   0   39.77    4.49
  19  -9  -1    0.67    3.73
 -19   9   1   -1.43    3.63
  19  -9  -2   55.44    4.88
 -19   9   2   68.54    4.97
  19  -9  -3   39.19    4.30
 -19   9   3   38.62    4.40
  19  -9  -4  207.15    8.41
 -19   9   4  214.99    8.79
  19  -9  -5   -1.15    3.44
 -19   9   5    2.20    3.63
  19  -9  -6   26.19    4.21
 -19   9   6   19.41    3.63
  19  -9  -7    7.55    3.54
 -19   9   7    6.21    3.63
  19  -9  -8  192.71    8.41
 -19   9   8  208.49    8.60
  19  -9  -9   35.27    4.21
 -19   9   9   29.73    4.01
  19  -9 -10  182.87    8.03
 -19   9  10  206.67    8.70
  19  -9 -11    1.05    3.63
  19  -9 -12   68.92    5.16
  19  -9 -12   66.34    5.54
  19  -9 -13   21.60    4.11
  19  -9 -13   10.80    4.01
  19  -9 -14   56.50    4.78
  19  -9 -14   52.38    4.68
  19  -9 -15   -0.67    3.92
  19  -9 -15   -0.10    3.63
  19  -9 -16  374.82   13.38
  19  -9 -16  362.68   12.91
  19  -9 -17    4.88    3.82
  19  -9 -17    9.46    4.01
  19  -9 -18   36.13    4.49
  19  -9 -18   38.24    4.30
  19  -9 -19   12.04    3.92
  19  -9 -19    1.24    3.82
  18  -8   3   29.54    4.59
 -18   8  -3   35.27    4.88
  18  -8   2  100.37    5.83
 -18   8  -2   96.55    5.64
  18  -8   1   26.19    4.11
 -18   8  -1   24.47    4.11
  18  -8   0   43.11    4.59
 -18   8   0   45.98    4.49
  18  -8  -1   91.96    5.74
 -18   8   1   99.32    5.74
  18  -8  -2   41.77    4.11
 -18   8   2   36.23    4.30
  18  -8  -3  121.88    6.40
 -18   8   3  130.96    6.60
  18  -8  -4   80.97    5.26
 -18   8   4   82.69    5.54
  18  -8  -5    4.21    3.63
 -18   8   5    0.76    3.44
  18  -8  -6   45.50    4.30
 -18   8   6   65.10    4.97
  18  -8  -7  162.41    7.65
 -18   8   7  158.21    7.55
  18  -8  -8  185.16    7.74
 -18   8   8  195.97    8.32
  18  -8  -9   18.16    4.30
 -18   8   9   21.70    3.82
  18  -8 -10   68.64    5.26
 -18   8  10   64.91    5.16
  18  -8 -12  156.10    7.27
  18  -8 -12  158.88    7.36
  18  -8 -13   11.28    3.92
  18  -8 -13    4.68    4.11
  18  -8 -14   51.14    4.88
  18  -8 -14   48.56    4.78
  18  -8 -15  127.62    6.50
  18  -8 -15  116.34    6.31
  18  -8 -16   33.46    4.30
  18  -8 -16   27.15    4.21
  18  -8 -17  167.19    7.36
  18  -8 -17  159.16    7.27
  18  -8 -18   29.16    4.21
  18  -8 -18   27.44    4.30
  18  -8 -19    5.45    4.01
  18  -8 -19   -0.86    3.73
  18  -8 -20   98.27    5.83
  18  -8 -20  114.81    6.31
  17  -7   5   58.69    5.45
 -17   7  -5   62.04    5.26
  17  -7   4   -2.20    3.92
 -17   7  -4   -1.43    3.92
  17  -7   3  181.05    7.93
 -17   7  -3  176.66    7.74
  17  -7   2   12.24    3.82
 -17   7  -2   17.40    4.01
  17  -7   1  178.28    7.84
 -17   7  -1  172.83    7.55
  17  -7   0   12.91    3.82
 -17   7   0   13.00    3.82
  17  -7  -1  149.32    7.17
 -17   7   1  162.99    7.46
  17  -7  -2  277.41   10.61
 -17   7   2  270.81   10.42
  17  -7  -3  491.06   16.44
 -17   7   3  509.80   17.21
  17  -7  -4    7.46    3.82
 -17   7   4    3.63    3.44
  17  -7  -5  546.41   18.54
 -17   7   5  549.37   18.26
  17  -7  -6   30.30    4.21
 -17   7   6   24.85    4.11
  17  -7  -7  240.22    9.75
 -17   7   7  226.55    9.18
  17  -7  -8  119.49    6.21
 -17   7   8  106.49    6.12
  17  -7  -9   36.13    4.30
 -17   7   9   35.46    4.40
  17  -7 -10   17.02    3.92
 -17   7  10   18.07    3.25
  17  -7 -11  229.61    9.46
  17  -7 -11  220.05    9.37
  17  -7 -12   -0.38    3.82
  17  -7 -12   -5.64    3.92
  17  -7 -13  473.28   16.25
  17  -7 -13  483.41   16.44
  17  -7 -14   16.54    3.92
  17  -7 -14    9.94    3.82
  17  -7 -15   54.39    4.68
  17  -7 -15   40.82    4.49
  17  -7 -16   -1.63    3.54
  17  -7 -16    5.93    3.92
  17  -7 -18   21.70    4.11
  17  -7 -18   22.37    4.21
  17  -7 -19  237.07    9.27
  17  -7 -19  234.87    9.46
  17  -7 -20   19.41    4.11
  17  -7 -20   18.83    4.59
  17  -7 -21   66.15    5.07
  17  -7 -21   54.39    4.78
  16  -6   7   22.18    5.26
 -16   6  -7   35.27    4.78
  16  -6   6   -2.10    4.68
 -16   6  -6    4.30    3.92
  16  -6   5  199.31    8.70
 -16   6  -5  194.24    8.32
  16  -6   4   -3.73    3.82
 -16   6  -4    5.26    3.73
  16  -6   3   -0.19    3.54
 -16   6  -3    3.63    3.54
  16  -6   2  149.79    6.88
 -16   6  -2  147.02    6.88
  16  -6   1    8.79    3.44
 -16   6  -1   13.57    3.73
  16  -6   0  182.10    8.03
 -16   6   0  165.76    7.55
  16  -6  -1   40.63    4.11
 -16   6   1   33.94    4.30
  16  -6  -2    9.85    4.11
 -16   6   2   11.09    3.63
  16  -6  -3   58.89    4.97
 -16   6   3   64.05    5.07
  16  -6  -4   -0.48    4.01
 -16   6   4    7.36    3.73
  16  -6  -5   45.12    4.88
 -16   6   5   34.99    4.30
  16  -6  -6  173.79    7.84
 -16   6   6  177.80    8.13
  16  -6  -7  327.79   12.52
 -16   6   7  307.71   11.85
  16  -6  -8   -2.39    3.44
 -16   6   8    2.20    3.63
  16  -6  -9  343.75   12.81
 -16   6   9  356.18   13.10
  16  -6 -10   85.65    5.74
  16  -6 -10   87.66    5.64
  16  -6 -11    7.27    3.92
  16  -6 -11   16.82    4.01
  16  -6 -12   97.50    5.93
  16  -6 -12   95.59    6.02
  16  -6 -13  546.89   18.54
  16  -6 -13  536.47   18.16
  16  -6 -14   -1.91    3.82
  16  -6 -14   -1.05    4.01
  16  -6 -15  204.38    8.51
  16  -6 -15  220.63    9.08
  16  -6 -16   20.36    4.11
  16  -6 -16   23.42    4.11
  16  -6 -17  109.84    6.02
  16  -6 -17  123.79    6.50
  16  -6 -18   38.91    4.49
  16  -6 -18   35.94    4.40
  16  -6 -19   16.73    3.92
  16  -6 -19   25.81    4.11
  16  -6 -20  117.10    6.02
  16  -6 -20  116.15    6.50
  16  -6 -21   75.33    5.35
  16  -6 -21   63.28    5.16
  16  -6 -22   13.86    4.40
  16  -6 -22   17.59    4.59
  15  -5   8  103.34    6.88
  15  -5   8   96.84    6.98
  15  -5   7    2.77    4.59
 -15   5  -7   -2.10    3.44
  15  -5   6  164.23    7.55
 -15   5  -6  151.99    7.17
  15  -5   5   17.11    3.92
 -15   5  -5   22.56    3.92
  15  -5   4  218.81    8.70
 -15   5  -4  208.49    8.60
  15  -5   3   41.01    4.30
 -15   5  -3   45.02    4.40
  15  -5   2   46.94    4.30
 -15   5  -2   41.49    4.30
  15  -5   1    3.44    3.73
 -15   5  -1   -1.72    3.35
  15  -5   0  182.30    7.55
 -15   5   0  156.96    7.17
  15  -5  -1   48.47    4.97
 -15   5   1   40.44    4.49
  15  -5  -2  494.50   17.02
 -15   5   2  521.55   17.59
  15  -5  -3   -4.97    3.54
 -15   5   3   -1.63    3.44
  15  -5  -4  340.31   13.00
 -15   5   4  337.35   12.33
  15  -5  -5  155.34    7.46
 -15   5   5  147.98    6.98
  15  -5  -6   44.16    4.59
 -15   5   6   46.55    4.59
  15  -5  -7   16.73    4.30
 -15   5   7   14.43    3.92
  15  -5  -8  749.64   24.09
 -15   5   8  766.75   24.85
  15  -5  -9   32.69    4.78
  15  -5  -9   34.99    4.01
  15  -5 -10   15.20    4.21
  15  -5 -10   13.00    3.82
  15  -5 -11    4.78    4.21
  15  -5 -11    1.24    4.11
  15  -5 -12  231.91    9.37
  15  -5 -12  238.12    9.75
  15  -5 -13   24.28    4.49
  15  -5 -13   15.29    4.01
  15  -5 -15   13.48    4.21
  15  -5 -15   12.81    3.92
  15  -5 -16  123.89    6.50
  15  -5 -16  133.93    6.79
  15  -5 -17   14.53    3.82
  15  -5 -17   14.63    3.73
  15  -5 -18   24.28    4.40
  15  -5 -18   19.60    3.82
  15  -5 -19    8.51    3.63
  15  -5 -19    0.76    3.92
  15  -5 -21   54.01    5.26
  15  -5 -21   55.54    5.16
  15  -5 -22  216.52    8.99
  15  -5 -22  214.03    8.70
  14  -4   9   15.29    5.07
  14  -4   9   17.97    4.49
  14  -4   8   25.91    4.49
  14  -4   8   17.97    4.97
  14  -4   7   20.84    4.11
 -14   4  -7   26.00    3.73
  14  -4   6   21.80    3.92
 -14   4  -6   17.97    3.54
  14  -4   5  101.62    5.54
 -14   4  -5  122.84    6.12
  14  -4   4  497.08   16.35
 -14   4  -4  487.33   16.35
  14  -4   3  129.81    6.21
 -14   4  -3  118.73    6.02
  14  -4   2  757.95   24.18
 -14   4  -2  749.35   23.90
  14  -4   1    5.35    3.63
 -14   4  -1    0.38    3.35
  14  -4   0    0.86    3.63
 -14   4   0    3.54    3.54
  14  -4  -1   22.08    4.21
 -14   4   1   22.75    3.82
  14  -4  -2   63.86    5.16
 -14   4   2   72.08    5.07
  14  -4  -3   66.44    5.16
 -14   4   3   75.33    5.16
  14  -4  -4 1398.52   43.30
 -14   4   4 1362.20   41.97
  14  -4  -5  198.07    8.41
 -14   4   5  180.48    8.03
  14  -4  -6  753.18   24.47
 -14   4   6  752.12   24.38
  14  -4  -7  793.32   25.52
 -14   4   7  763.79   24.57
  14  -4  -8  113.37    6.60
  14  -4  -8  100.47    6.02
  14  -4  -9   21.89    4.30
  14  -4  -9   12.91    4.11
  14  -4 -10  679.00   22.08
  14  -4 -10  702.42   22.94
  14  -4 -11   17.21    4.49
  14  -4 -11   13.96    3.92
  14  -4 -12  327.21   12.14
  14  -4 -12  318.13   11.85
  14  -4 -13   -1.72    3.63
  14  -4 -13   -1.63    3.54
  14  -4 -14  265.37   10.32
  14  -4 -14  262.78   10.32
  14  -4 -15    6.79    3.63
  14  -4 -15   -1.15    3.63
  14  -4 -16  177.13    7.93
  14  -4 -16  196.35    8.41
  14  -4 -17  258.48   10.23
  14  -4 -17  271.77   10.42
  14  -4 -18  313.54   11.28
  14  -4 -18  307.52   11.38
  14  -4 -19   61.47    4.68
  14  -4 -19   68.73    4.78
  14  -4 -20   50.38    4.78
  14  -4 -20   34.13    4.30
  14  -4 -21   24.95    4.21
  14  -4 -21   16.44    4.40
  14  -4 -22   11.85    4.68
  14  -4 -22    5.64    4.11
  14  -4 -23    6.12    4.68
  14  -4 -23    7.55    4.11
  13  -3  11   70.83    4.88
  13  -3  11   74.28    4.88
  13  -3  10    0.67    4.21
  13  -3  10   -1.43    3.73
  13  -3   9   61.08    4.68
  13  -3   9   62.42    4.59
  13  -3   8   98.46    5.64
  13  -3   8   97.31    5.07
  13  -3   7    6.12    3.63
  13  -3   7   10.04    3.06
  13  -3   6   39.29    3.63
 -13   3  -6   42.92    3.73
  13  -3   5  444.98   14.72
 -13   3  -5  438.68   14.72
  13  -3   4  263.74    9.85
 -13   3  -4  265.17   10.04
  13  -3   3  510.08   16.82
 -13   3  -3  519.93   17.21
  13  -3   2  218.24    8.99
 -13   3  -2  246.15    9.46
  13  -3   1   79.92    4.88
 -13   3  -1   83.83    5.16
  13  -3   0  398.05   14.05
 -13   3   0  379.31   13.29
  13  -3  -1  128.19    6.40
 -13   3   1  156.77    7.07
  13  -3  -2  449.67   15.10
 -13   3   2  440.40   15.20
  13  -3  -3  694.67   22.66
 -13   3   3  686.45   22.18
  13  -3  -4   48.85    4.59
 -13   3   4   54.01    4.68
  13  -3  -5 1262.78   38.91
 -13   3   5 1247.49   38.72
  13  -3  -6   65.77    5.07
 -13   3   6   62.80    4.78
  13  -3  -7  113.76    6.12
  13  -3  -7  108.02    6.02
  13  -3  -8  369.08   13.48
  13  -3  -8  384.28   13.67
  13  -3  -9  423.76   15.01
  13  -3  -9  419.27   14.63
  13  -3 -10   19.21    3.92
  13  -3 -10   23.23    4.11
  13  -3 -11  818.66   26.19
  13  -3 -11  816.94   26.10
  13  -3 -12    8.03    3.92
  13  -3 -12    5.45    3.63
  13  -3 -13   64.14    4.88
  13  -3 -13   63.66    4.97
  13  -3 -14    4.49    3.44
  13  -3 -14   -2.39    3.44
  13  -3 -15   -3.35    3.35
  13  -3 -15    5.26    3.54
  13  -3 -16   74.47    5.26
  13  -3 -16   62.14    4.88
  13  -3 -17  626.42   20.36
  13  -3 -17  664.08   21.51
  13  -3 -18   25.62    3.82
  13  -3 -18   20.17    3.82
  13  -3 -19   82.31    5.07
  13  -3 -19   76.76    5.26
  13  -3 -20  142.91    6.88
  13  -3 -20  150.37    7.17
  13  -3 -21    6.50    3.54
  13  -3 -21    3.25    3.92
  13  -3 -22   -3.25    3.82
  13  -3 -22    3.15    3.92
  13  -3 -23   48.47    5.35
  13  -3 -23   49.33    5.26
  12  -2  10   -2.77    2.87
  12  -2  10    0.76    3.06
  12  -2   9   65.67    4.11
  12  -2   9   75.61    4.30
  12  -2   8   29.63    3.73
  12  -2   8   28.77    3.35
  12  -2   7  815.60   25.33
  12  -2   7  757.09   23.61
  12  -2   5   99.61    5.35
 -12   2  -5   95.59    4.97
  12  -2   4   35.94    3.54
 -12   2  -4   38.24    4.01
  12  -2   3   89.86    5.26
 -12   2  -3   85.75    4.97
  12  -2   2  116.91    5.83
 -12   2  -2  105.06    5.54
  12  -2   1 1074.46   33.27
 -12   2  -1 1123.21   34.80
  12  -2   0  139.28    6.69
 -12   2   0  143.39    6.60
  12  -2  -1 1177.70   36.23
 -12   2   1 1130.86   34.99
  12  -2  -2    4.49    3.15
 -12   2   2    0.86    3.44
  12  -2  -3   57.55    4.88
 -12   2   3   56.78    4.49
  12  -2  -4   75.81    4.97
 -12   2   4   75.33    5.07
  12  -2  -5  793.13   25.24
  12  -2  -5  787.40   25.24
  12  -2  -6  173.60    8.03
  12  -2  -6  173.60    7.84
  12  -2  -7  640.57   20.93
  12  -2  -7  626.80   20.55
  12  -2  -8  108.12    6.12
  12  -2  -8  107.26    5.93
  12  -2  -9  282.09   10.71
  12  -2  -9  291.94   10.99
  12  -2 -10    1.91    3.63
  12  -2 -10    1.63    3.54
  12  -2 -11  217.86    8.89
  12  -2 -11  219.96    9.08
  12  -2 -12  124.75    6.40
  12  -2 -12  108.69    6.12
  12  -2 -13  718.28   23.32
  12  -2 -13  715.70   23.13
  12  -2 -14    2.68    3.44
  12  -2 -14    0.96    3.44
  12  -2 -15  325.78   11.95
  12  -2 -15  312.40   11.66
  12  -2 -16   46.55    4.21
  12  -2 -16   43.40    4.59
  12  -2 -17   17.97    3.54
  12  -2 -17   17.68    3.54
  12  -2 -18   37.85    3.92
  12  -2 -18   29.44    3.82
  12  -2 -20    3.15    3.35
  12  -2 -20    8.32    3.35
  12  -2 -21  147.50    6.98
  12  -2 -21  155.24    6.98
  12  -2 -22   -3.25    4.11
  12  -2 -22   -0.96    3.82
  12  -2 -23    1.53    4.01
  12  -2 -23    2.01    4.30
  11  -1  10   32.02    2.39
  11  -1  10   29.73    2.29
  11  -1   9   10.61    2.49
  11  -1   9   11.18    2.68
  11  -1   8  728.13   22.56
  11  -1   8  714.75   22.27
  11  -1   7   13.19    2.96
  11  -1   7    8.70    2.77
  11  -1   6    9.18    2.77
  11  -1   6    6.21    2.96
  11  -1   5  216.61    7.84
  11  -1   5  230.57    8.41
  11  -1   4  151.80    6.50
 -11   1  -4  140.81    6.12
  11  -1   3  808.24   25.24
 -11   1  -3  821.43   25.81
  11  -1   2  109.45    5.35
 -11   1  -2  108.31    5.35
  11  -1   1   27.91    3.63
 -11   1  -1   30.02    3.44
  11  -1   0 1890.82   57.07
 -11   1   0 1883.18   56.88
  11  -1  -1  630.53   20.27
 -11   1   1  644.39   20.84
  11  -1  -3 1218.81   37.57
  11  -1  -3 1233.15   38.14
  11  -1  -4    6.50    3.54
  11  -1  -4    6.02    3.44
  11  -1  -5    4.01    3.44
  11  -1  -5   -0.76    3.25
  11  -1  -6  104.87    5.83
  11  -1  -6   99.23    5.83
  11  -1  -7   11.85    3.73
  11  -1  -7   11.38    3.63
  11  -1  -8   33.27    4.11
  11  -1  -8   30.59    3.92
  11  -1  -9  233.15    9.46
  11  -1  -9  225.69    9.18
  11  -1 -10  735.39   23.71
  11  -1 -10  723.73   23.42
  11  -1 -11  882.32   28.01
  11  -1 -11  851.83   27.05
  11  -1 -12   13.48    3.63
  11  -1 -12   11.95    3.44
  11  -1 -13  316.32   11.66
  11  -1 -13  309.62   11.47
  11  -1 -14    9.46    3.54
  11  -1 -14   -3.35    3.63
  11  -1 -16   11.47    3.73
  11  -1 -16    9.46    3.63
  11  -1 -17  257.81    9.75
  11  -1 -17  270.43   10.32
  11  -1 -18   13.19    3.35
  11  -1 -18    8.60    3.25
  11  -1 -19   29.54    3.73
  11  -1 -19   31.74    3.73
  11  -1 -20  175.80    7.55
  11  -1 -20  161.84    6.98
  11  -1 -21   -0.48    3.35
  11  -1 -21   -4.68    3.63
  11  -1 -22   21.70    4.40
  11  -1 -22   30.49    4.30
  11  -1 -23   33.74    4.78
  11  -1 -23   26.77    4.59
  10   0   9    2.68    1.72
  10   0   9    0.48    1.82
  10   0   7   -6.02    2.29
  10   0   7   -0.96    2.10
  10   0   5   -2.77    2.49
  10   0   5   -2.49    2.49
  10   0   4  720.20   22.56
  10   0   4  695.44   21.89
  10   0   3    3.92    2.58
  10   0   3    0.38    2.29
  10   0   2  136.22    6.02
  10   0   2  129.62    5.83
  10   0   1    1.72    2.87
  10   0   1    2.10    2.58
  10   0   0 1979.73   59.27
  10   0   0 2026.57   60.99
  10   0  -1    0.00    2.77
  10   0  -1   -1.24    2.77
  10   0  -2 1885.09   56.97
  10   0  -2 1997.89   60.22
  10   0  -3    1.34    3.25
  10   0  -3    1.91    2.96
  10   0  -4  865.50   27.34
  10   0  -4  846.09   26.67
  10   0  -5    3.82    3.44
  10   0  -5    1.72    3.35
  10   0  -6   10.71    3.63
  10   0  -6    8.51    3.35
  10   0  -7   -4.59    3.54
  10   0  -7   -0.86    3.35
  10   0  -8  281.14   10.61
  10   0  -8  257.43    9.75
  10   0  -9    4.40    3.25
  10   0  -9    6.12    3.35
  10   0 -10  705.47   22.85
  10   0 -10  691.71   22.37
  10   0 -11    2.96    3.35
  10   0 -11   -1.24    3.35
  10   0 -12 1692.95   51.52
  10   0 -12 1690.08   51.43
  10   0 -13    3.25    3.44
  10   0 -13    3.63    3.35
  10   0 -14   91.10    5.26
  10   0 -14   91.77    5.26
  10   0 -15   -2.49    2.96
  10   0 -15   -2.29    3.44
  10   0 -16    8.70    3.25
  10   0 -16   10.71    3.44
  10   0 -17   -2.01    3.35
  10   0 -17   -3.25    3.06
  10   0 -18  816.65   25.71
  10   0 -18  834.91   26.38
  10   0 -19   -2.77    3.06
  10   0 -19    2.39    3.25
  10   0 -20  165.66    7.07
  10   0 -20  181.15    7.65
  10   0 -21   -1.43    3.73
  10   0 -21   -2.58    3.54
  10   0 -22   45.41    4.49
  10   0 -22   37.38    4.49
  10   0 -23   -0.86    4.21
  10   0 -23   -0.29    3.82
   9   1   7   71.41    3.25
   9   1   7   68.44    3.25
   9   1   6  137.37    5.26
   9   1   6  149.12    5.64
   9   1   5  459.61   14.72
   9   1   5  434.37   13.86
   9   1   4    2.20    2.20
   9   1   4    0.67    2.39
   9   1   3  398.43   13.00
   9   1   3  440.11   14.15
   9   1   2  578.43   18.64
   9   1   2  545.55   17.49
   9   1   1  124.75    5.54
   9   1   1  129.24    5.74
   9   1   0  809.67   25.33
   9   1   0  792.37   24.85
   9   1  -1 1152.85   35.56
   9   1  -1 1087.85   33.46
   9   1  -2  118.63    5.93
   9   1  -2  120.54    5.83
   9   1  -3  122.17    5.83
   9   1  -3  132.49    6.31
   9   1  -4  215.66    8.60
   9   1  -4  207.63    8.51
   9   1  -5 1004.68   31.26
   9   1  -5  946.56   29.73
   9   1  -6 2192.90   66.05
   9   1  -6 2227.31   67.11
   9   1  -7  954.97   30.02
   9   1  -7  932.89   29.25
   9   1  -8  997.99   31.16
   9   1  -9  564.57   18.74
  -9  -1   9  541.63   17.97
   9   1 -10    3.82    3.25
  -9  -1  10   -3.63    3.06
   9   1 -11  706.33   22.85
  -9  -1  11  961.66   30.21
   9   1 -12  571.74   18.83
  -9  -1  12  564.00   18.45
   9   1 -13   -2.87    2.96
   9   1 -14  615.62   20.07
   9   1 -14  621.54   20.17
   9   1 -15    7.84    3.35
   9   1 -15    2.49    3.06
   9   1 -16  529.11   17.49
   9   1 -16  534.65   17.68
   9   1 -17  741.70   23.80
   9   1 -17  796.48   25.24
   9   1 -18    6.31    3.44
   9   1 -18    8.13    3.06
   9   1 -19   38.33    3.92
   9   1 -19   33.08    4.01
   9   1 -20  112.90    5.83
   9   1 -20  115.76    5.93
   9   1 -21   49.90    4.88
   9   1 -21   57.36    4.68
   9   1 -22   60.32    4.97
   9   1 -22   70.36    5.26
   9   1 -23   23.42    4.59
   9   1 -23   21.03    4.49
   8   2   7  710.45   21.70
   8   2   7  774.59   23.71
   8   2   6   23.23    1.91
   8   2   6   21.22    2.01
   8   2   5  171.02    5.93
   8   2   5  187.07    6.50
   8   2   4    4.59    1.82
   8   2   4    3.92    2.01
   8   2   3  509.60   16.16
   8   2   3  515.53   16.25
   8   2   2   61.94    3.73
   8   2   2   66.82    3.63
   8   2   1 1678.61   50.28
   8   2   1 1663.31   50.00
   8   2   0  298.73   10.52
   8   2   0  300.26   10.61
   8   2  -1  574.61   18.54
   8   2  -1  595.73   19.12
   8   2  -2   76.76    4.68
   8   2  -2   79.92    4.68
   8   2  -3  685.11   21.89
  -8  -2   3  747.82   23.99
   8   2  -4   35.56    4.01
  -8  -2   4   34.70    3.92
   8   2  -5 4740.44  140.33
  -8  -2   5 4757.65  140.52
   8   2  -6    9.75    3.54
  -8  -2   6    8.99    3.54
   8   2  -7 3517.81  104.67
  -8  -2   7 3431.78  102.09
   8   2  -8   12.33    3.54
  -8  -2   8    7.17    3.54
   8   2  -9  385.05   13.57
  -8  -2   9  400.25   13.96
   8   2 -10  470.03   15.87
  -8  -2  10  496.22   16.82
   8   2 -11   94.16    5.54
  -8  -2  11   85.75    5.26
   8   2 -12    4.01    3.15
  -8  -2  12    2.87    2.77
   8   2 -13 1077.33   33.36
  -8  -2  13 1134.69   35.37
   8   2 -14   29.54    3.63
  -8  -2  14   36.52    3.73
   8   2 -15 1561.03   47.61
  -8  -2  15 1540.00   46.55
   8   2 -16   40.53    4.21
  -8  -2  16   52.77    4.40
   8   2 -17   17.49    3.44
  -8  -2  17   14.63    2.77
   8   2 -18  145.97    6.60
   8   2 -18  124.27    6.12
   8   2 -19  248.06    9.37
   8   2 -19  251.50    9.37
   8   2 -20   36.90    4.01
   8   2 -20   39.29    4.01
   8   2 -21  118.53    6.02
   8   2 -21  111.27    6.12
   8   2 -22    5.54    3.73
   8   2 -22    5.26    4.11
   8   2 -23    2.29    4.59
   8   2 -23    5.64    4.49
   7   3   6  178.28    5.74
   7   3   6  188.99    6.12
   7   3   5 1160.50   34.89
   7   3   5 1076.37   32.31
   7   3   4   74.18    3.35
   7   3   4   74.94    3.54
   7   3   3 1091.67   32.98
   7   3   3 1008.50   30.40
   7   3   1  303.98   10.23
   7   3   1  336.39   11.09
   7   3   0  187.07    7.17
   7   3  -1   18.83    2.96
  -7  -3   1   19.31    3.15
   7   3  -2    0.67    2.77
  -7  -3   2    5.74    3.15
   7   3  -3 1862.15   56.02
  -7  -3   3 1703.46   51.43
   7   3  -4   21.70    3.73
  -7  -3   4   23.42    3.92
   7   3  -5   91.67    5.26
  -7  -3   5   83.64    4.97
   7   3  -6 1398.52   42.63
  -7  -3   6 1426.24   43.49
   7   3  -7 1187.26   36.61
  -7  -3   7 1151.89   35.46
   7   3  -8  928.78   29.16
  -7  -3   8  961.66   30.11
   7   3  -9  852.02   26.96
  -7  -3   9  795.71   25.14
   7   3 -10   82.97    5.07
  -7  -3  10   92.06    5.64
   7   3 -11  503.39   16.92
  -7  -3  11  500.52   16.82
   7   3 -12  385.81   13.38
  -7  -3  12  420.61   14.15
   7   3 -13  137.18    6.40
  -7  -3  13  141.57    6.98
   7   3 -14  780.71   24.76
  -7  -3  14  620.40   20.07
   7   3 -15  573.75   18.83
  -7  -3  15  594.78   19.12
   7   3 -16  149.60    6.79
  -7  -3  16  149.22    6.79
   7   3 -17  781.57   24.66
  -7  -3  17  763.59   23.99
   7   3 -18   13.48    3.15
  -7  -3  18    4.97    2.77
   7   3 -19   39.67    4.01
  -7  -3  19   27.91    3.44
   7   3 -20  168.91    7.07
   7   3 -20  176.75    7.55
   7   3 -21   21.99    4.30
   7   3 -21   22.66    3.82
   7   3 -22    5.45    3.82
   7   3 -22    6.02    4.01
   6   4   5  143.58    4.88
   6   4   5  145.78    4.78
   6   4   4   92.44    3.73
   6   4   4   88.52    3.73
   6   4   3 1159.54   34.80
   6   4   3 1164.32   34.89
   6   4   2  117.39    4.88
  -6  -4  -2  120.83    4.97
   6   4   1   29.16    2.77
  -6  -4  -1   31.07    3.06
   6   4   0 1052.48   32.21
  -6  -4   0 1102.18   33.55
   6   4  -1   16.16    3.06
  -6  -4   1   14.05    3.06
   6   4  -2  251.22    9.18
  -6  -4   2  245.67    9.18
   6   4  -3 1135.64   34.89
  -6  -4   3 1134.69   34.89
   6   4  -4  340.98   12.14
  -6  -4   4  337.63   11.95
   6   4  -5   37.57    4.11
  -6  -4   5   39.19    4.21
   6   4  -6  317.94   11.38
  -6  -4   6  282.19   10.52
   6   4  -7   40.82    4.01
  -6  -4   7   35.85    3.92
   6   4  -8 3474.80  103.43
  -6  -4   8 3532.15  105.06
   6   4  -9  188.51    7.93
  -6  -4   9  194.72    8.03
   6   4 -10  801.16   25.43
  -6  -4  10  818.27   26.29
   6   4 -11  293.85   10.90
  -6  -4  11  290.03   10.61
   6   4 -12    2.20    2.96
  -6  -4  12    6.60    3.06
   6   4 -13  439.82   14.82
  -6  -4  13  401.87   14.24
   6   4 -14  877.83   27.53
  -6  -4  14  885.95   27.63
   6   4 -15  221.20    8.70
  -6  -4  15  239.46    9.37
   6   4 -16  945.51   29.44
  -6  -4  16  982.69   30.40
   6   4 -17   85.56    5.16
  -6  -4  17   97.31    5.35
   6   4 -18  147.12    6.79
  -6  -4  18  177.80    7.36
   6   4 -19    2.49    3.35
  -6  -4  19   -1.91    3.25
   6   4 -20    6.88    3.63
  -6  -4  20    6.50    3.54
   6   4 -21   29.25    3.63
   6   4 -21   27.53    4.49
   6   4 -22  129.53    6.79
   6   4 -22  122.55    6.40
   5   5   5   44.07    2.10
   5   5   5   44.93    2.01
   5   5   4   67.30    3.15
  -5  -5  -4   62.33    2.96
   5   5   3 1460.66   43.59
  -5  -5  -3 1524.70   45.60
   5   5   2  362.87   11.95
  -5  -5  -2  350.83   11.47
   5   5   1  125.42    5.26
  -5  -5  -1  109.26    4.88
   5   5   0  880.12   27.24
  -5  -5   0  880.22   27.15
   5   5  -1    5.07    2.68
  -5  -5   1    7.65    2.96
   5   5  -2  353.60   12.24
  -5  -5   2  360.96   12.43
   5   5  -3  350.25   12.24
  -5  -5   3  353.12   12.43
   5   5  -4  298.63   10.99
  -5  -5   4  291.27   10.61
   5   5  -5  198.16    7.93
  -5  -5   5  209.54    8.41
   5   5  -6 1635.59   49.61
  -5  -5   6 1586.84   47.99
   5   5  -7  205.05    8.32
  -5  -5   7  209.16    8.32
   5   5  -8   26.48    3.73
  -5  -5   8   15.29    3.54
   5   5  -9  119.59    6.02
  -5  -5   9  136.89    6.88
   5   5 -10  833.38   26.48
  -5  -5  10  820.19   26.19
   5   5 -11    2.77    3.25
  -5  -5  11    1.82    2.87
   5   5 -12 2377.39   71.31
  -5  -5  12 2320.99   70.07
   5   5 -13   37.66    3.73
  -5  -5  13   37.95    3.92
   5   5 -14    9.46    3.44
  -5  -5  14   16.25    3.06
   5   5 -15  204.28    8.22
  -5  -5  15  207.53    8.51
   5   5 -16   22.18    3.73
  -5  -5  16   18.45    3.06
   5   5 -17   18.93    3.73
  -5  -5  17   20.65    3.25
   5   5 -18  193.67    7.84
  -5  -5  18  203.80    7.93
   5   5 -19   22.85    3.92
  -5  -5  19   10.99    3.44
   5   5 -20  294.62   10.99
  -5  -5  20  305.99   11.09
   5   5 -21    3.73    4.21
  -5  -5  21   15.01    4.11
   4   6   6  465.25   14.43
   4   6   6  442.02   13.67
   4   6   5  132.30    4.68
  -4  -6  -5  142.24    5.07
   4   6   4   48.66    2.58
  -4  -6  -4   45.88    2.68
   4   6   3  840.93   25.62
  -4  -6  -3  874.20   26.67
   4   6   2  148.07    5.93
  -4  -6  -2  140.90    5.64
   4   6   1  982.69   30.11
  -4  -6  -1  948.38   29.06
   4   6   0  140.33    6.12
  -4  -6   0  126.09    5.74
   4   6  -1  107.92    5.26
  -4  -6   1  109.26    5.35
   4   6  -2  144.44    6.50
  -4  -6   2  144.35    6.60
   4   6  -3   13.67    3.54
  -4  -6   3    8.13    3.25
   4   6  -4 2435.70   72.84
  -4  -6   4 2534.16   75.71
   4   6  -5 4620.00  136.79
  -4  -6   5 4616.17  136.70
   4   6  -6  124.46    6.21
  -4  -6   6  123.79    6.12
   4   6  -7  432.37   14.82
  -4  -6   7  446.90   15.29
   4   6  -8   37.09    3.92
  -4  -6   8   35.85    3.92
   4   6  -9  110.79    5.83
  -4  -6   9  119.68    6.40
   4   6 -10   21.99    3.73
  -4  -6  10   16.63    3.54
   4   6 -11 1148.07   35.46
  -4  -6  11 1144.24   35.46
   4   6 -12    5.83    3.06
  -4  -6  12    7.74    3.35
   4   6 -13  131.06    6.31
  -4  -6  13  127.43    5.93
   4   6 -14  158.30    7.07
  -4  -6  14  173.60    7.46
   4   6 -15    8.79    3.15
  -4  -6  15   10.61    3.15
   4   6 -16  253.99    9.75
  -4  -6  16  258.10    9.65
   4   6 -17  196.25    8.13
  -4  -6  17  194.44    7.84
   4   6 -18    2.29    3.54
  -4  -6  18    3.82    3.44
   4   6 -19  357.04   12.71
  -4  -6  19  346.05   12.33
   4   6 -20   98.65    5.93
  -4  -6  20  112.70    6.12
   4   6 -21   62.33    5.16
  -4  -6  21   63.47    5.16
   3   7   7 2645.05   79.53
  -3  -7  -7 2685.20   80.58
   3   7   6   33.08    2.10
  -3  -7  -6   35.85    2.20
   3   7   5  800.97   24.38
  -3  -7  -5  834.24   25.33
   3   7   4  301.12    9.94
  -3  -7  -4  304.56   10.13
   3   7   3  316.32   10.61
  -3  -7  -3  322.91   10.90
   3   7   2   45.02    3.35
  -3  -7  -2   48.85    3.73
   3   7   1 2661.30   79.34
  -3  -7  -1 2695.72   80.20
   3   7   0  130.68    5.83
  -3  -7   0  127.90    5.93
   3   7  -1  629.67   20.27
  -3  -7   1  641.52   20.65
   3   7  -2  405.89   13.96
  -3  -7   2  386.00   13.29
   3   7  -3 2150.84   64.72
  -3  -7   3 2038.04   61.18
   3   7  -4  113.66    5.93
  -3  -7   4  113.28    5.93
   3   7  -5  353.12   12.52
  -3  -7   5  339.26   12.24
   3   7  -6   10.52    3.44
  -3  -7   6    5.64    3.54
   3   7  -7  136.89    6.60
  -3  -7   7  127.81    6.31
   3   7  -8  125.04    6.21
  -3  -7   8  122.45    6.12
   3   7  -9  760.44   24.38
  -3  -7   9  742.76   23.99
   3   7 -10  308.19   11.28
  -3  -7  10  304.27   11.18
   3   7 -11   -2.20    3.44
  -3  -7  11    2.39    3.15
   3   7 -12 1082.11   33.65
  -3  -7  12 1206.38   37.38
   3   7 -13  627.09   20.36
  -3  -7  13  610.46   19.79
   3   7 -14  127.90    6.31
  -3  -7  14  130.39    6.40
   3   7 -15  182.39    7.65
  -3  -7  15  210.40    8.03
   3   7 -16   10.61    3.63
  -3  -7  16   10.13    3.54
   3   7 -17   98.46    5.54
  -3  -7  17   93.97    5.07
   3   7 -18   24.28    4.01
  -3  -7  18   24.57    3.82
   3   7 -19   39.29    4.59
  -3  -7  19   36.13    4.30
   3   7 -20   28.10    4.11
  -3  -7  20   39.38    4.78
   2   8   8  563.23   17.21
  -2  -8  -8  572.70   17.49
   2   8   7   38.33    2.39
  -2  -8  -7   42.25    2.58
   2   8   6 1277.12   38.52
  -2  -8  -6 1289.55   38.91
   2   8   5  183.44    6.60
  -2  -8  -5  198.93    7.27
   2   8   4  129.43    5.45
  -2  -8  -4  132.68    5.64
   2   8   3 1722.58   51.72
  -2  -8  -3 1703.46   51.24
   2   8   2 1114.61   34.22
  -2  -8  -2 1056.30   32.50
   2   8   1  212.60    8.13
  -2  -8  -1  233.72    8.79
   2   8   0 3216.70   95.78
  -2  -8   0 3607.67  107.16
   2   8  -1   35.18    4.01
  -2  -8   1   41.20    4.01
   2   8  -2  682.25   21.99
  -2  -8   2  692.47   22.18
   2   8  -3 1417.64   43.49
  -2  -8   3 1568.68   47.80
   2   8  -4   37.09    4.11
  -2  -8   4   35.56    4.21
   2   8  -5   95.88    5.54
  -2  -8   5   98.84    5.64
   2   8  -6   11.18    3.54
  -2  -8   6   12.04    3.63
   2   8  -7   94.92    5.54
  -2  -8   7   80.87    4.88
   2   8  -8  591.34   19.50
  -2  -8   8  604.53   20.07
   2   8  -9    3.15    3.35
  -2  -8   9    1.72    3.35
   2   8 -10   40.15    4.21
  -2  -8  10   42.06    3.92
   2   8 -11  326.54   11.76
  -2  -8  11  325.11   12.04
   2   8 -12  256.28    9.85
  -2  -8  12  262.69   10.23
   2   8 -13  568.78   18.83
  -2  -8  13  569.54   18.54
   2   8 -14    1.43    3.44
  -2  -8  14    0.96    3.25
   2   8 -15    4.11    3.54
  -2  -8  15    8.03    3.25
   2   8 -16    6.50    3.35
  -2  -8  16    4.78    3.44
   2   8 -17  225.31    8.99
  -2  -8  17  223.88    8.79
   2   8 -18   -0.96    3.82
  -2  -8  18    0.38    3.82
   2   8 -19   22.18    4.68
  -2  -8  19   13.38    4.40
  -1  -9 -10  735.68   22.46
   1   9   9   -1.82    1.72
  -1  -9  -9   -0.86    1.72
   1   9   8  395.18   12.52
  -1  -9  -8  382.56   12.33
   1   9   7   72.94    3.92
  -1  -9  -7   87.18    4.11
   1   9   6  187.27    6.88
  -1  -9  -6  178.57    6.79
   1   9   5   31.26    3.25
  -1  -9  -5   31.35    3.15
   1   9   4  148.65    6.31
  -1  -9  -4  142.72    6.12
   1   9   3   90.91    4.88
  -1  -9  -3   82.11    4.68
   1   9   2 2125.03   63.76
  -1  -9  -2 2142.23   64.33
   1   9   1    4.68    3.06
  -1  -9  -1    4.40    3.15
   1   9   0    3.63    3.15
  -1  -9   0    9.85    3.63
   1   9  -1  803.17   25.52
  -1  -9   1  773.06   24.76
   1   9  -2 2253.12   67.87
  -1  -9   2 2169.00   65.39
   1   9  -3   35.46    4.21
  -1  -9   3   35.46    4.21
   1   9  -4  823.53   26.29
  -1  -9   4  755.47   23.99
   1   9  -5   53.72    4.49
  -1  -9   5   51.81    4.68
   1   9  -6  546.79   18.26
  -1  -9   6  596.98   19.69
   1   9  -7   29.82    4.11
  -1  -9   7   29.06    4.01
   1   9  -8  312.49   11.57
  -1  -9   8  289.74   11.28
   1   9  -9   21.51    3.73
  -1  -9   9   26.77    3.92
   1   9 -10 1339.25   41.20
  -1  -9  10 1306.75   40.24
   1   9 -11  582.35   19.41
  -1  -9  11  578.43   19.41
   1   9 -12   42.44    4.21
  -1  -9  12   38.81    4.11
   1   9 -13  297.58   10.90
  -1  -9  13  295.00   10.99
   1   9 -14    0.86    3.25
  -1  -9  14    2.20    3.15
   1   9 -15    0.67    3.25
  -1  -9  15   -1.63    2.87
   1   9 -16  197.97    8.41
  -1  -9  16  195.49    7.93
   1   9 -17    8.51    3.92
  -1  -9  17    4.49    3.63
   1   9 -18  180.67    8.22
  -1  -9  18  185.64    8.03
   1   9 -19    6.40    4.59
  -1  -9  19   -1.24    4.21
   0 -10 -11   10.80    1.91
   0  10  10  117.77    4.78
   0 -10 -10  118.34    4.97
   0  10   9  286.78    9.85
   0 -10  -9  259.34    8.99
   0  10   8   28.77    3.15
   0 -10  -8   31.55    3.06
   0  10   7    4.68    2.49
   0 -10  -7    1.15    2.49
   0  10   6  904.98   28.10
   0 -10  -6  902.97   28.01
   0  10   5  243.57    8.79
   0 -10  -5  241.37    8.99
   0  10   4    1.15    2.68
   0 -10  -4    0.29    2.96
   0  10   3  986.52   30.59
   0 -10  -3  948.28   29.54
   0  10   2   32.21    3.82
   0 -10  -2   34.89    3.82
   0  10   1  125.32    6.21
   0 -10  -1  112.70    5.93
   0  10   0 4234.76  125.80
   0 -10   0 3987.17  118.44
   0  10  -1  113.47    5.93
   0 -10   1  117.01    6.12
   0  10  -2   31.64    4.01
   0 -10   2   25.52    3.92
   0  10  -3  953.54   30.02
   0 -10   3 1010.42   31.74
   0  10  -4   -1.53    3.25
   0 -10   4    6.31    3.54
   0  10  -5  235.83    9.37
   0 -10   5  238.12    9.85
   0  10  -6  892.36   28.30
   0 -10   6  883.47   27.91
   0  10  -7    3.54    3.35
   0 -10   7    4.88    3.63
   0  10  -8   30.11    4.01
   0 -10   8   25.71    4.21
   0  10  -9  291.56   10.90
   0 -10   9  285.06   10.71
   0  10 -10  125.99    6.40
   0 -10  10  140.23    6.98
   0  10 -11   13.29    3.44
   0 -10  11   13.57    3.92
   0  10 -12   84.03    5.26
   0 -10  12   83.83    5.16
   0  10 -13  244.43    9.46
   0 -10  13  209.35    8.32
   0  10 -14  201.70    8.32
   0 -10  14  177.13    7.65
   0  10 -15   39.96    4.21
   0 -10  15   36.04    4.01
   0  10 -16   35.75    4.49
   0 -10  16   30.78    4.21
   0  10 -17   41.87    4.78
   0 -10  17   49.61    4.49
   0  10 -18    4.11    4.11
   0 -10  18   -4.78    3.92
   1 -11 -13  103.24    4.11
   1 -11 -13  109.26    4.11
   1 -11 -12   -1.34    2.20
  -1  11  11  155.05    6.12
   1 -11 -11  159.54    6.21
  -1  11  10   -0.67    2.68
   1 -11 -10   -2.29    2.68
  -1  11   9    7.07    2.87
   1 -11  -9    5.35    2.77
  -1  11   8   52.58    4.01
   1 -11  -8   58.02    4.30
  -1  11   7  770.96   24.18
   1 -11  -7  801.74   25.14
  -1  11   6   27.34    3.44
   1 -11  -6   29.06    3.63
  -1  11   5  106.49    5.64
   1 -11  -5  100.18    5.45
  -1  11   4    2.01    2.96
   1 -11  -4    2.87    3.06
  -1  11   3   76.28    4.88
   1 -11  -3   69.40    4.78
  -1  11   2  822.19   26.00
   1 -11  -2  811.77   25.71
  -1  11   1 1997.89   60.32
   1 -11  -1 2042.82   61.75
  -1  11   0  415.16   14.43
   1 -11   0  416.31   14.63
  -1  11  -1  754.99   24.38
   1 -11   1  744.29   23.99
  -1  11  -2   28.39    3.82
   1 -11   2   31.45    4.40
  -1  11  -3  131.44    6.60
   1 -11   3  124.27    6.50
  -1  11  -4  391.36   13.86
   1 -11   4  389.35   13.86
  -1  11  -5 1325.87   40.91
   1 -11   5 1350.73   41.87
  -1  11  -6   44.36    4.59
   1 -11   6   49.33    4.59
  -1  11  -7 1200.64   37.28
   1 -11   7 1208.29   37.76
  -1  11  -8    0.38    3.35
   1 -11   8    4.21    3.92
  -1  11  -9  237.74    9.37
   1 -11   9  243.38    9.65
  -1  11 -10   12.14    3.35
   1 -11  10   10.99    3.92
  -1  11 -11  178.57    7.65
   1 -11  11  184.21    7.84
  -1  11 -12   48.37    4.40
   1 -11  12   34.13    4.21
  -1  11 -13  493.93   16.63
   1 -11  13  491.35   16.35
  -1  11 -14   24.47    3.82
   1 -11  14   26.48    4.01
  -1  11 -15  303.51   11.18
   1 -11  15  295.67   10.90
  -1  11 -16    9.75    3.92
   1 -11  16    3.54    4.01
  -1  11 -17    7.46    4.30
   1 -11  17    6.98    4.11
   2 -12 -14    2.87    2.39
   2 -12 -14   -0.76    2.29
  -2  12  12   19.12    2.96
   2 -12 -12   27.24    3.15
  -2  12  11  277.03    9.75
   2 -12 -11  270.34    9.65
  -2  12  10  245.96    9.08
   2 -12 -10  233.82    8.79
  -2  12   9  233.53    8.89
   2 -12  -9  224.74    8.70
  -2  12   8    4.30    3.35
   2 -12  -8    4.11    3.15
  -2  12   7    3.63    3.06
   2 -12  -7    7.46    3.35
  -2  12   6   -4.30    3.06
   2 -12  -6    3.82    3.25
  -2  12   5  502.15   16.73
   2 -12  -5  512.76   17.21
  -2  12   4    6.12    3.35
   2 -12  -4   11.76    3.63
  -2  12   3  912.62   28.68
   2 -12  -3  983.65   30.97
  -2  12   2  120.64    6.31
   2 -12  -2  117.58    6.31
  -2  12   1  157.06    7.27
   2 -12  -1  151.13    7.17
  -2  12   0  288.50   10.99
   2 -12   0  309.15   11.57
  -2  12  -1  561.80   18.83
   2 -12   1  554.34   18.45
  -2  12  -2   37.28    4.30
   2 -12   2   39.00    4.59
  -2  12  -3 1384.18   42.54
   2 -12   3 1350.73   41.58
  -2  12  -4  100.18    5.83
   2 -12   4   88.52    5.93
  -2  12  -5  175.51    7.84
   2 -12   5  171.88    7.93
  -2  12  -6  113.37    6.12
   2 -12   6  131.82    6.88
  -2  12  -7  122.65    6.31
   2 -12   7  124.27    6.98
  -2  12  -8    1.82    3.44
   2 -12   8    1.82    3.35
  -2  12  -9  100.56    5.83
   2 -12   9  107.35    6.21
  -2  12 -10  135.45    6.88
   2 -12  10  146.07    6.88
  -2  12 -11  489.43   16.54
   2 -12  11  506.55   17.21
  -2  12 -12  223.21    8.99
   2 -12  12  215.47    8.60
  -2  12 -13  105.92    5.83
   2 -12  13  107.73    5.83
  -2  12 -14   31.07    4.11
   2 -12  14   47.70    4.59
  -2  12 -15    7.17    3.73
   2 -12  15    4.78    4.11
  -2  12 -16   13.77    4.11
   2 -12  16   12.71    4.11
   3 -13 -15   26.96    3.35
   3 -13 -15   39.58    3.54
   3 -13 -14   15.49    3.25
   3 -13 -14   10.52    2.87
  -3  13  13    1.82    2.87
   3 -13 -13   -1.43    3.06
  -3  13  12  784.15   24.66
   3 -13 -12  721.06   22.66
  -3  13  11    7.84    3.06
   3 -13 -11   11.47    3.35
  -3  13  10  201.03    8.22
   3 -13 -10  207.05    8.41
  -3  13   9    5.16    3.25
   3 -13  -9    1.91    3.35
  -3  13   8   41.97    3.92
   3 -13  -8   50.19    4.49
  -3  13   7  101.62    5.74
   3 -13  -7  107.16    6.12
  -3  13   6   26.19    3.82
   3 -13  -6   23.23    4.01
  -3  13   5   -2.20    3.35
   3 -13  -5   -2.20    3.35
  -3  13   4  399.10   14.05
   3 -13  -4  412.48   14.53
  -3  13   3   13.00    3.82
   3 -13  -3   19.60    3.92
  -3  13   2  577.19   19.31
   3 -13  -2  587.03   19.50
  -3  13   1    0.48    3.44
   3 -13  -1    0.48    3.44
  -3  13   0  280.28   10.90
   3 -13   0  272.44   10.61
  -3  13  -1  109.74    6.02
   3 -13   1  119.49    6.40
  -3  13  -2  500.05   17.02
   3 -13   2  530.83   18.07
  -3  13  -3   -1.15    3.63
   3 -13   3    4.01    3.54
  -3  13  -4  118.06    6.31
   3 -13   4  106.97    6.40
  -3  13  -5  251.12   10.04
   3 -13   5  260.78   10.23
  -3  13  -6   25.52    4.01
   3 -13   6   25.33    4.59
  -3  13  -7   93.39    5.74
   3 -13   7   95.69    6.21
  -3  13  -8  105.25    5.83
   3 -13   8   92.25    5.45
  -3  13  -9   -0.57    3.15
   3 -13   9   -7.93    3.82
  -3  13 -10  565.53   18.74
   3 -13  10  536.94   17.59
  -3  13 -11  105.63    5.83
   3 -13  11   80.68    5.26
  -3  13 -12   19.69    4.01
   3 -13  12   21.22    4.01
  -3  13 -13   98.08    5.74
   3 -13  13   95.88    5.54
  -3  13 -14   30.02    4.30
   3 -13  14   31.26    4.11
   4 -14 -15    2.77    3.25
   4 -14 -15    0.00    3.73
  -4  14  14    4.49    3.44
   4 -14 -14  230.67    8.70
  -4  14  13  129.72    6.31
   4 -14 -13  106.20    5.45
  -4  14  12   -0.48    3.35
   4 -14 -12   -0.76    3.44
  -4  14  11   85.94    5.26
   4 -14 -11   83.07    5.16
  -4  14  10  289.26   10.71
   4 -14 -10  278.84   10.52
  -4  14   9   12.43    3.63
   4 -14  -9   17.68    4.01
  -4  14   8  401.20   14.05
   4 -14  -8  392.50   13.86
  -4  14   7   60.80    4.68
   4 -14  -7   56.21    4.68
  -4  14   6  116.05    6.02
   4 -14  -6  116.34    6.40
  -4  14   5   38.05    4.40
   4 -14  -5   31.64    4.21
  -4  14   4  114.42    6.31
   4 -14  -4  107.73    6.21
  -4  14   3  423.86   14.91
   4 -14  -3  433.32   15.10
  -4  14   2  961.66   30.40
   4 -14  -2  991.30   31.26
  -4  14   1  277.31   10.80
   4 -14  -1  267.76   10.71
  -4  14   0  227.61    9.46
   4 -14   0  224.74    9.37
  -4  14  -1  333.52   12.33
   4 -14   1  353.50   13.19
  -4  14  -2    6.12    3.82
   4 -14   2    0.38    3.92
  -4  14  -3   -2.39    3.73
   4 -14   3    4.59    3.82
  -4  14  -4  271.77   10.52
   4 -14   4  283.72   11.09
  -4  14  -5   14.05    3.92
   4 -14   5   10.23    3.63
  -4  14  -6  255.71    9.94
   4 -14   6  276.26   10.90
  -4  14  -7   41.39    4.40
   4 -14   7   43.78    4.68
  -4  14  -8  292.23   10.99
   4 -14   8  301.69   11.28
  -4  14  -9   97.89    5.83
   4 -14   9  109.26    6.02
  -4  14 -10  117.96    6.21
   4 -14  10  115.48    6.12
  -4  14 -11   22.08    4.11
   4 -14  11   18.74    3.82
  -4  14 -12   69.50    5.07
   4 -14  12   81.25    5.16
  -4  14 -13   -1.15    3.92
   4 -14  13    1.82    3.82
   5 -15 -16   15.01    4.59
   5 -15 -16   11.95    4.11
   5 -15 -15  228.18    9.18
  -5  15  14   34.41    4.78
   5 -15 -14   49.33    4.59
  -5  15  13   21.03    4.01
   5 -15 -13   18.35    3.82
  -5  15  12  104.58    5.83
   5 -15 -12   93.20    5.45
  -5  15  11   38.52    4.30
   5 -15 -11   31.74    4.11
  -5  15  10   58.02    4.88
   5 -15 -10   70.17    4.97
  -5  15   9  282.86   10.52
   5 -15  -9  275.50   10.42
  -5  15   8   54.39    4.78
   5 -15  -8   52.00    4.68
  -5  15   7  152.37    7.17
   5 -15  -7  163.27    7.65
  -5  15   6  238.60    9.46
   5 -15  -6  239.75    9.65
  -5  15   5   73.61    4.97
   5 -15  -5   62.71    4.97
  -5  15   4   -0.48    3.54
   5 -15  -4    5.35    3.82
  -5  15   3  228.56    9.27
   5 -15  -3  224.93    9.46
  -5  15   2    1.05    3.63
   5 -15  -2   -0.57    3.63
  -5  15   1    5.26    3.73
   5 -15  -1    1.91    4.01
  -5  15   0   89.00    5.64
   5 -15   0   84.31    5.64
  -5  15  -1   55.73    4.78
   5 -15   1   41.20    4.88
  -5  15  -2   13.48    4.01
   5 -15   2    6.12    3.73
  -5  15  -3  203.80    8.51
   5 -15   3  214.89    8.79
  -5  15  -4   16.73    3.92
   5 -15   4   17.78    4.21
  -5  15  -5   84.03    5.35
   5 -15   5   71.89    5.16
  -5  15  -6   27.63    4.11
   5 -15   6   25.05    4.59
  -5  15  -7  152.76    7.17
   5 -15   7  170.92    7.65
  -5  15  -8   61.75    4.88
   5 -15   8   53.53    4.78
  -5  15  -9   -0.29    3.44
   5 -15   9    0.76    3.73
  -5  15 -10   31.26    4.11
   5 -15  10   34.89    4.11
  -5  15 -11    4.97    3.73
   5 -15  11    2.87    3.63
  -5  15 -12    9.94    4.11
   5 -15  12   10.90    4.11
   6 -16 -16   -0.67    5.16
   6 -16 -16    6.69    5.26
  -6  16  15    3.92    4.68
   6 -16 -15    2.20    4.30
  -6  16  14   -2.29    4.21
   6 -16 -14    3.25    4.01
  -6  16  13  275.98   10.71
   6 -16 -13  280.85   10.52
  -6  16  12    4.88    3.82
   6 -16 -12    3.63    3.73
  -6  16  11  150.27    7.27
   6 -16 -11  160.21    7.17
  -6  16  10   12.91    4.11
   6 -16 -10    7.07    3.73
  -6  16   9   11.66    3.63
   6 -16  -9   17.59    4.21
  -6  16   8   54.68    4.68
   6 -16  -8   52.00    4.78
  -6  16   7  487.33   16.44
   6 -16  -7  438.68   15.20
  -6  16   6   10.32    3.73
   6 -16  -6    2.10    3.82
  -6  16   5  323.87   12.04
   6 -16  -5  326.16   12.04
  -6  16   4   36.04    4.40
   6 -16  -4   40.34    4.49
  -6  16   3   26.67    3.92
   6 -16  -3   22.94    4.40
  -6  16   2   63.86    4.88
   6 -16  -2   49.13    4.78
  -6  16   1   66.05    4.88
   6 -16  -1   57.74    5.35
  -6  16   0   63.47    5.16
   6 -16   0   52.77    4.68
  -6  16  -1  323.49   11.95
   6 -16   1  305.23   11.66
  -6  16  -2   -2.01    3.63
   6 -16   2    0.57    4.01
  -6  16  -3  128.57    6.60
   6 -16   3  132.49    6.40
  -6  16  -4    6.31    3.82
   6 -16   4   -0.19    3.73
  -6  16  -5   20.65    4.11
   6 -16   5   28.87    4.21
  -6  16  -6   -3.73    3.54
   6 -16   6    5.07    3.63
  -6  16  -7  113.85    6.12
   6 -16   7  129.72    6.40
  -6  16  -8    3.15    3.54
   6 -16   8    0.10    3.82
  -6  16  -9  160.50    7.36
   6 -16   9  168.53    7.46
  -6  16 -10    0.19    3.92
   6 -16  10   -2.77    4.21
  -7  17  15   13.96    5.45
   7 -17 -15    8.03    4.88
  -7  17  14   17.68    4.49
   7 -17 -14   16.92    4.30
  -7  17  13    2.29    4.30
   7 -17 -13   18.64    4.59
  -7  17  12   95.31    6.02
   7 -17 -12  102.19    5.93
  -7  17  11  147.79    7.27
   7 -17 -11  131.34    6.69
  -7  17  10    3.82    3.54
   7 -17 -10   -2.77    3.92
  -7  17   9  174.93    7.93
   7 -17  -9  172.54    7.55
  -7  17   8   58.41    4.78
   7 -17  -8   55.63    4.68
  -7  17   7   58.12    4.78
   7 -17  -7   50.09    4.59
  -7  17   6  341.36   12.24
   7 -17  -6  361.24   12.81
  -7  17   5   94.54    5.83
   7 -17  -5   87.95    5.45
  -7  17   4  117.67    6.12
   7 -17  -4  118.34    6.40
  -7  17   3   37.28    4.30
   7 -17  -3   33.65    4.40
  -7  17   2   13.38    4.01
   7 -17  -2   15.49    4.01
  -7  17   1  226.75    9.08
   7 -17  -1  250.84    9.94
  -7  17   0  110.03    5.93
   7 -17   0  105.73    6.21
  -7  17  -1    2.29    3.54
   7 -17   1    5.35    3.44
  -7  17  -2  389.16   13.48
   7 -17   2  376.35   13.48
  -7  17  -3    9.56    3.63
   7 -17   3   10.42    3.92
  -7  17  -4   11.47    3.73
   7 -17   4   18.74    3.92
  -7  17  -5   61.75    4.78
   7 -17   5   49.80    4.68
  -7  17  -6    4.97    3.63
   7 -17   6   -4.49    4.21
  -7  17  -7    4.40    3.82
   7 -17   7   -4.21    3.82
  -7  17  -8   56.40    4.88
   7 -17   8   51.81    4.88
  -8  18  13   17.40    4.59
   8 -18 -13   12.14    4.59
  -8  18  12   22.08    4.59
   8 -18 -12   15.58    4.21
  -8  18  11    2.58    4.01
   8 -18 -11    3.25    3.92
  -8  18  10  152.47    7.17
   8 -18 -10  155.24    7.17
  -8  18   9    5.35    4.49
   8 -18  -9   -1.72    4.11
  -8  18   8   45.79    4.68
   8 -18  -8   39.00    4.59
  -8  18   7    4.01    4.01
   8 -18  -7    9.75    4.01
  -8  18   6    7.65    3.82
   8 -18  -6    0.76    3.63
  -8  18   5    4.11    3.73
   8 -18  -5    9.08    3.92
  -8  18   4    4.78    3.63
   8 -18  -4   11.95    4.01
  -8  18   3  129.62    6.50
   8 -18  -3  113.47    6.02
  -8  18   2  341.55   12.33
   8 -18  -2  329.32   12.04
  -8  18   1   37.95    4.40
   8 -18  -1   31.93    4.30
  -8  18   0   23.61    4.01
   8 -18   0   15.29    3.82
  -8  18  -1   15.87    3.82
   8 -18   1    9.56    4.01
  -8  18  -2    4.01    3.44
   8 -18   2   -1.15    3.63
  -8  18  -3    0.10    3.44
   8 -18   3    0.10    3.63
  -8  18  -4  139.85    6.69
   8 -18   4  147.02    6.79
  -8  18  -5    8.32    3.63
   8 -18   5    6.79    4.11
  -8  18  -6   83.36    5.35
   8 -18   6   85.36    5.64
  -9  19  11   21.89    4.11
   9 -19 -11   21.89    4.21
  -9  19  10   10.71    4.30
   9 -19 -10   19.31    4.40
  -9  19   9   16.54    4.40
   9 -19  -9   11.66    4.11
  -9  19   8   32.12    4.78
   9 -19  -8   33.36    4.49
  -9  19   7   -2.01    3.54
   9 -19  -7   10.23    4.21
  -9  19   6  110.60    5.93
   9 -19  -6  115.00    6.21
  -9  19   5   45.31    4.49
   9 -19  -5   36.04    4.49
  -9  19   4  105.44    5.83
   9 -19  -4  107.26    6.21
  -9  19   3   10.99    3.63
   9 -19  -3    7.07    3.82
  -9  19   2   10.99    3.82
   9 -19  -2   13.19    4.21
  -9  19   1    5.35    3.82
   9 -19  -1    3.82    3.82
  -9  19   0   35.37    4.40
   9 -19   0   37.28    4.30
  -9  19  -1    1.82    3.63
   9 -19   1   -1.24    4.11
  -9  19  -2   87.37    5.16
   9 -19   2   81.73    5.26
  -9  19  -3   26.86    3.73
   9 -19   3   19.12    3.73
 -10  20   7   83.07    5.35
  10 -20  -7   76.86    4.88
 -10  20   6   15.01    3.82
  10 -20  -6   10.23    3.92
 -10  20   5  124.17    6.12
  10 -20  -5  134.88    6.60
 -10  20   4   29.92    4.01
  10 -20  -4   27.91    4.40
 -10  20   3    9.75    3.63
  10 -20  -3    5.93    3.92
 -10  20   2   13.19    3.92
  10 -20  -2    5.74    3.63
  22 -10  -9   27.72    4.01
  22 -10  -9   23.71    3.73
  22 -10 -10   15.39    3.63
  22 -10 -10    6.12    4.01
  22 -10 -11   26.86    4.30
  22 -10 -11   26.19    4.11
  22 -10 -12    2.77    3.54
  22 -10 -12   10.80    3.63
  22 -10 -13    6.40    4.40
  21  -9  -3   32.50    4.68
 -21   9   3   26.86    4.30
  21  -9  -4  140.33    6.69
 -21   9   4  119.97    6.21
  21  -9  -5   10.99    3.73
 -21   9   5    9.46    3.35
  21  -9  -6    7.93    3.82
 -21   9   6   12.71    3.82
  21  -9  -7   11.85    3.82
 -21   9   7   16.25    3.73
  21  -9  -8   51.14    4.59
  21  -9  -9   -4.88    3.82
  21  -9  -9   -2.87    3.44
  21  -9 -10  216.33    8.99
  21  -9 -10  219.48    8.79
  21  -9 -11   -1.15    3.63
  21  -9 -11    3.54    3.73
  21  -9 -12  124.27    6.31
  21  -9 -12  114.33    6.21
  21  -9 -13   52.96    4.88
  21  -9 -13   51.43    4.78
  21  -9 -14    3.82    4.11
  21  -9 -14    1.34    3.73
  21  -9 -15    1.82    3.73
  21  -9 -15   -0.29    4.21
  21  -9 -16  113.28    6.02
  21  -9 -16  119.59    6.21
  21  -9 -17    2.10    4.01
  21  -9 -17    3.73    4.01
  20  -8   0   34.13    4.49
 -20   8   0   30.49    4.68
  20  -8  -1  114.62    6.21
 -20   8   1  116.81    6.12
  20  -8  -2   19.12    4.30
 -20   8   2   14.43    3.82
  20  -8  -3    3.15    3.82
 -20   8   3   -1.05    3.54
  20  -8  -4   35.75    4.21
 -20   8   4   42.73    4.49
  20  -8  -5    3.15    3.44
 -20   8   5   10.42    3.82
  20  -8  -6  117.58    5.93
 -20   8   6  109.26    5.83
  20  -8  -7  101.81    6.02
 -20   8   7   89.00    5.54
  20  -8  -8   24.09    4.21
  20  -8  -9  109.55    6.21
  20  -8  -9   96.55    5.93
  20  -8 -10   10.61    4.01
  20  -8 -10    5.26    3.44
  20  -8 -11  205.62    8.70
  20  -8 -11  220.82    8.99
  20  -8 -12   91.58    5.45
  20  -8 -12   78.48    5.45
  20  -8 -13   20.74    4.11
  20  -8 -13   25.43    4.30
  20  -8 -14   42.06    4.68
  20  -8 -14   41.87    4.59
  20  -8 -15   75.90    5.26
  20  -8 -15   59.36    5.07
  20  -8 -16    8.32    3.92
  20  -8 -16   11.85    3.92
  20  -8 -17  148.84    6.88
  20  -8 -17  128.29    6.88
  20  -8 -18    4.30    3.82
  20  -8 -18    3.06    4.11
  20  -8 -19    1.72    4.01
  20  -8 -19    0.48    3.82
  19  -7   2   -2.39    3.92
 -19   7  -2    5.16    3.82
  19  -7   1  168.82    7.65
 -19   7  -1  169.77    7.46
  19  -7   0   27.82    4.30
 -19   7   0   24.09    4.11
  19  -7  -1   35.46    4.40
 -19   7   1   34.80    4.30
  19  -7  -2   32.12    4.30
 -19   7   2   20.65    4.01
  19  -7  -3    2.39    3.35
 -19   7   3    1.72    3.73
  19  -7  -4  101.04    5.93
 -19   7   4  103.81    6.12
  19  -7  -5  202.18    8.51
 -19   7   5  200.46    8.51
  19  -7  -6   14.05    4.01
 -19   7   6   18.45    4.01
  19  -7  -7  176.66    7.74
 -19   7   7  167.57    7.74
  19  -7  -9    1.63    3.63
  19  -7  -9   -1.53    3.73
  19  -7 -10  133.35    6.98
  19  -7 -10  130.87    6.50
  19  -7 -11  169.58    7.84
  19  -7 -11  179.91    7.84
  19  -7 -12    6.79    3.82
  19  -7 -12   11.76    3.63
  19  -7 -13  153.04    7.36
  19  -7 -13  173.31    7.65
  19  -7 -14    1.72    3.54
  19  -7 -14    2.20    3.82
  19  -7 -15   16.16    4.11
  19  -7 -15   16.82    4.01
  19  -7 -16   53.44    4.97
  19  -7 -16   37.38    4.49
  19  -7 -17    4.11    3.82
  19  -7 -17    0.48    3.82
  19  -7 -18    9.18    3.73
  19  -7 -18   15.96    4.11
  19  -7 -19   98.75    5.83
  19  -7 -19   95.59    5.64
  19  -7 -20   -0.96    4.01
  19  -7 -20    0.86    3.63
  18  -6   4   16.25    4.49
  18  -6   4    6.79    4.30
  18  -6   3   22.85    4.21
 -18   6  -3   22.75    3.73
  18  -6   2   35.37    4.49
 -18   6  -2   26.29    4.01
  18  -6   1    9.75    3.82
 -18   6  -1    4.40    3.63
  18  -6   0    2.68    3.92
 -18   6   0    4.30    3.63
  18  -6  -1   97.31    5.54
 -18   6   1  108.12    6.12
  18  -6  -2    5.35    3.92
 -18   6   2    1.72    3.73
  18  -6  -3  364.50   13.00
 -18   6   3  358.38   12.91
  18  -6  -4   21.51    4.11
 -18   6   4   26.29    4.21
  18  -6  -5   14.53    4.01
 -18   6   5   10.32    3.82
  18  -6  -6  206.77    8.89
 -18   6   6  216.04    8.89
  18  -6  -7  191.57    8.13
 -18   6   7  192.05    8.32
  18  -6  -8    1.82    3.63
  18  -6  -8    9.18    3.82
  18  -6  -9  504.35   16.82
  18  -6  -9  484.85   16.63
  18  -6 -10  101.90    6.21
  18  -6 -10   95.02    5.93
  18  -6 -11   38.52    4.21
  18  -6 -11   41.68    4.68
  18  -6 -12   11.28    4.01
  18  -6 -12   18.64    4.11
  18  -6 -13   54.11    4.88
  18  -6 -13   48.66    4.88
  18  -6 -14  168.34    7.84
  18  -6 -14  163.56    7.65
  18  -6 -15  265.08   10.23
  18  -6 -15  238.60    9.46
  18  -6 -16   10.61    3.92
  18  -6 -16    4.30    3.92
  18  -6 -17  108.50    6.02
  18  -6 -17  115.00    6.40
  18  -6 -18    2.49    3.54
  18  -6 -18    6.12    3.92
  18  -6 -19   22.08    4.30
  18  -6 -19   22.46    4.11
  18  -6 -20   18.16    3.92
  18  -6 -20   17.30    3.92
  18  -6 -21   18.16    3.92
  18  -6 -21   23.42    4.30
  17  -5   6   28.01    5.45
  17  -5   6   18.16    5.07
  17  -5   5    0.00    4.01
  17  -5   5   -7.36    4.40
  17  -5   4   98.56    5.93
  17  -5   4  106.01    6.02
  17  -5   3   74.56    5.54
 -17   5  -3   82.78    5.54
  17  -5   2    3.92    3.92
 -17   5  -2    6.98    4.11
  17  -5   1   60.70    4.88
 -17   5  -1   62.80    4.78
  17  -5   0  143.01    6.69
 -17   5   0  137.56    6.79
  17  -5  -1   77.05    5.45
 -17   5   1   91.48    5.54
  17  -5  -2  183.16    7.74
 -17   5   2  205.91    8.60
  17  -5  -3   32.98    4.49
 -17   5   3   34.99    4.40
  17  -5  -4    6.79    3.82
 -17   5   4   -1.82    3.63
  17  -5  -5  154.67    7.55
 -17   5   5  170.25    7.84
  17  -5  -6  129.53    6.69
 -17   5   6  145.49    6.98
  17  -5  -7   26.48    4.01
  17  -5  -7   31.93    4.11
  17  -5  -8  532.64   18.26
  17  -5  -8  516.68   17.59
  17  -5  -9   23.13    4.21
  17  -5  -9   21.60    4.30
  17  -5 -10   79.44    5.83
  17  -5 -10   83.93    5.64
  17  -5 -11  220.82    9.18
  17  -5 -11  200.94    8.79
  17  -5 -12   18.07    4.49
  17  -5 -12   17.68    4.11
  17  -5 -13    1.34    3.92
  17  -5 -13    0.00    3.73
  17  -5 -14  516.77   17.59
  17  -5 -14  538.76   18.07
  17  -5 -15   35.85    4.78
  17  -5 -15   30.78    4.40
  17  -5 -16   37.09    4.68
  17  -5 -16   33.08    4.30
  17  -5 -17    3.63    3.63
  17  -5 -17    4.88    3.82
  17  -5 -18  111.56    5.93
  17  -5 -18  117.67    6.21
  17  -5 -19    0.57    4.40
  17  -5 -19    0.57    3.92
  17  -5 -20   -6.02    3.63
  17  -5 -20   -1.24    3.73
  17  -5 -21   -2.77    3.63
  17  -5 -21    3.73    3.92
  17  -5 -22   38.33    4.78
  17  -5 -22   34.60    4.78
  16  -4   7    2.01    4.68
  16  -4   7   -4.11    5.16
  16  -4   6   -0.76    4.68
  16  -4   6    2.29    4.21
  16  -4   5   24.76    4.49
  16  -4   5   28.77    4.30
  16  -4   4   70.17    5.16
  16  -4   4   75.81    5.45
  16  -4   3   -4.11    3.44
  16  -4   2  443.36   15.01
 -16   4  -2  436.48   15.01
  16  -4   1    4.30    3.44
 -16   4  -1    3.35    3.54
  16  -4   0  239.56    9.56
 -16   4   0  227.22    9.08
  16  -4  -1   53.91    4.59
 -16   4   1   62.23    4.68
  16  -4  -2   77.24    5.35
 -16   4   2   73.89    5.16
  16  -4  -3   18.07    4.21
 -16   4   3   16.25    3.82
  16  -4  -4  449.09   15.29
 -16   4   4  462.76   15.96
  16  -4  -5   43.30    4.78
 -16   4   5   48.94    4.30
  16  -4  -6  567.92   18.83
  16  -4  -6  560.94   18.83
  16  -4  -7   21.41    4.40
  16  -4  -7   16.92    4.21
  16  -4  -8    5.16    4.21
  16  -4  -8    7.74    4.11
  16  -4  -9  111.08    6.21
  16  -4  -9  104.48    6.31
  16  -4 -10  421.47   15.01
  16  -4 -10  419.46   14.82
  16  -4 -11   11.76    3.92
  16  -4 -11    1.15    3.82
  16  -4 -12  460.18   16.16
  16  -4 -12  444.70   15.49
  16  -4 -13    8.03    4.21
  16  -4 -13    2.29    3.82
  16  -4 -14  180.57    8.32
  16  -4 -14  175.70    8.13
  16  -4 -15    9.08    3.82
  16  -4 -15    5.26    4.01
  16  -4 -16  100.28    5.83
  16  -4 -16  104.58    6.02
  16  -4 -17   47.41    4.59
  16  -4 -17   50.00    4.59
  16  -4 -18  210.59    8.51
  16  -4 -18  198.64    8.32
  16  -4 -19    1.24    3.82
  16  -4 -19    1.53    3.54
  16  -4 -20  225.89    9.08
  16  -4 -20  221.30    9.08
  16  -4 -21   32.69    4.78
  16  -4 -21   20.93    4.01
  16  -4 -22  113.37    6.31
  16  -4 -22  115.48    6.50
  15  -3   9   31.64    5.74
  15  -3   9   30.40    5.26
  15  -3   8   31.83    5.35
  15  -3   8   30.88    4.78
  15  -3   7   18.26    4.30
  15  -3   7   14.15    4.40
  15  -3   6   72.65    5.35
  15  -3   6   65.48    4.97
  15  -3   5   48.47    4.59
  15  -3   5   41.10    4.11
  15  -3   4  253.42    9.37
  15  -3   4  247.49    9.56
  15  -3   3  307.33   11.09
  15  -3   3  337.25   11.95
  15  -3   2   30.97    3.92
 -15   3  -2   32.50    3.73
  15  -3   1  489.43   16.35
 -15   3  -1  532.93   17.59
  15  -3   0  268.81   10.42
 -15   3   0  263.93   10.13
  15  -3  -1   13.77    4.11
 -15   3   1   17.49    3.63
  15  -3  -2  171.02    7.93
 -15   3   2  168.15    7.65
  15  -3  -3  408.09   14.15
 -15   3   3  412.48   14.24
  15  -3  -4    0.48    2.96
  15  -3  -4   -2.96    3.73
  15  -3  -5  524.33   18.07
  15  -3  -5  512.76   17.59
  15  -3  -6  211.16    8.89
  15  -3  -6  183.16    8.13
  15  -3  -7  951.91   30.30
  15  -3  -7  971.22   30.78
  15  -3  -8   96.55    6.12
  15  -3  -8  101.14    6.02
  15  -3 -10  189.08    8.60
  15  -3 -10  181.24    8.32
  15  -3 -11  915.11   29.16
  15  -3 -11  894.94   28.39
  15  -3 -12  180.19    8.32
  15  -3 -12  174.36    7.93
  15  -3 -13  172.64    8.03
  15  -3 -13  182.96    8.13
  15  -3 -14  115.67    6.60
  15  -3 -14  117.58    6.50
  15  -3 -15    0.10    3.82
  15  -3 -15    0.38    3.63
  15  -3 -16  293.47   11.09
  15  -3 -16  295.38   11.18
  15  -3 -17  124.56    6.31
  15  -3 -17  109.07    6.40
  15  -3 -18    5.93    3.82
  15  -3 -18    2.49    3.54
  15  -3 -20  169.20    7.55
  15  -3 -20  161.84    7.36
  15  -3 -21   53.82    4.97
  15  -3 -21   59.27    4.78
  15  -3 -22   24.38    4.30
  15  -3 -22   20.74    4.30
  15  -3 -23   34.99    4.59
  15  -3 -23   36.80    4.88
  14  -2  10    0.38    3.54
  14  -2  10   -5.26    3.25
  14  -2   9    2.29    3.82
  14  -2   9    4.30    3.73
  14  -2   8   24.57    4.11
  14  -2   8   23.71    3.82
  14  -2   7  374.05   12.91
  14  -2   7  360.00   12.24
  14  -2   6    3.63    3.54
  14  -2   6    7.27    3.54
  14  -2   5  565.05   18.16
  14  -2   5  564.00   18.26
  14  -2   4   21.22    3.63
  14  -2   4   28.30    3.63
  14  -2   3    2.68    3.15
  14  -2   3    8.22    3.54
  14  -2   2    2.77    3.35
  14  -2   2    7.55    3.54
  14  -2   1  407.61   14.34
  14  -2   1  430.45   14.72
  14  -2   0   33.46    4.30
  14  -2   0   29.16    3.82
  14  -2  -1  628.14   20.84
  14  -2  -1  589.81   19.41
  14  -2  -2  185.26    8.22
  14  -2  -2  195.39    8.32
  14  -2  -3  158.40    7.07
  14  -2  -3  151.32    7.07
  14  -2  -4    4.30    3.54
  14  -2  -4    0.48    3.54
  14  -2  -6  188.03    8.03
  14  -2  -6  184.02    8.32
  14  -2  -7  207.82    8.99
  14  -2  -7  183.16    8.03
  14  -2  -8    5.26    3.63
  14  -2  -8    0.00    3.54
  14  -2  -9  651.46   21.51
  14  -2  -9  597.17   19.88
  14  -2 -11  145.78    7.07
  14  -2 -11  156.10    7.55
  14  -2 -12  145.49    7.17
  14  -2 -12  159.93    7.55
  14  -2 -13  823.91   26.38
  14  -2 -13  801.83   25.71
  14  -2 -14   14.24    3.73
  14  -2 -14   17.02    4.01
  14  -2 -15  470.89   16.06
  14  -2 -15  479.02   16.35
  14  -2 -16    3.15    3.54
  14  -2 -16    2.01    3.54
  14  -2 -17   59.94    4.68
  14  -2 -17   64.72    5.07
  14  -2 -18    3.82    3.35
  14  -2 -18    2.20    3.54
  14  -2 -19  221.97    8.79
  14  -2 -19  197.40    8.41
  14  -2 -20   33.36    4.30
  14  -2 -20   26.48    3.82
  14  -2 -21  435.62   14.91
  14  -2 -21  428.54   14.82
  14  -2 -22    5.64    4.01
  14  -2 -22   -0.67    4.21
  14  -2 -23  141.86    6.98
  14  -2 -23  160.69    7.74
  13  -1   9    5.35    2.87
  13  -1   9    2.58    2.87
  13  -1   7    4.21    3.25
  13  -1   7    5.64    3.06
  13  -1   6  643.63   20.36
  13  -1   6  614.57   19.50
  13  -1   5   23.23    3.35
  13  -1   5   22.66    3.44
  13  -1   4    5.16    3.15
  13  -1   4   -2.01    2.96
  13  -1   3  904.50   28.01
  13  -1   3  950.67   29.63
  13  -1   2   74.94    4.97
  13  -1   2   81.83    4.88
  13  -1   1    2.77    3.25
  13  -1   1    1.72    3.25
  13  -1   0  674.41   21.80
  13  -1   0  722.20   23.13
  13  -1  -1    7.27    4.01
  13  -1  -1    8.03    3.35
  13  -1  -2  182.96    7.93
  13  -1  -2  184.78    7.93
  13  -1  -3 1029.53   32.12
  13  -1  -3  992.25   30.88
  13  -1  -4   -0.86    3.63
  13  -1  -4   -2.96    3.44
  13  -1  -5  226.65    9.18
  13  -1  -5  230.95    9.27
  13  -1  -6  612.08   20.17
  13  -1  -6  633.97   20.93
  13  -1  -7   10.99    3.63
  13  -1  -7   11.57    3.73
  13  -1  -8  240.61    9.65
  13  -1  -8  234.39    9.46
  13  -1  -9   33.17    4.21
  13  -1  -9   29.35    4.11
  13  -1 -11  167.48    7.65
  13  -1 -11  159.07    7.55
  13  -1 -12    3.44    3.44
  13  -1 -12    5.83    3.63
  13  -1 -13  445.37   15.49
  13  -1 -13  455.69   15.77
  13  -1 -14  915.97   28.96
  13  -1 -14  912.91   28.87
  13  -1 -15   19.79    3.92
  13  -1 -15   24.28    4.21
  13  -1 -16  187.55    8.41
  13  -1 -16  199.69    8.41
  13  -1 -18    0.38    3.44
  13  -1 -18   -2.29    3.15
  13  -1 -19  108.02    5.74
  13  -1 -19  112.23    6.02
  13  -1 -20  236.50    9.18
  13  -1 -20  225.12    8.89
  13  -1 -21   13.29    3.63
  13  -1 -21   17.97    3.73
  13  -1 -22  162.89    7.55
  13  -1 -22  162.70    7.46
  13  -1 -23   -4.01    4.49
  13  -1 -23    4.40    3.92
  12   0   9    1.05    1.82
  12   0   9    0.76    1.82
  12   0   8   -1.24    2.58
  12   0   8    1.15    2.29
  12   0   7    2.39    2.87
  12   0   7    1.15    2.49
  12   0   6  208.01    7.74
  12   0   6  206.86    7.84
  12   0   5    3.06    3.06
  12   0   5    2.10    2.77
  12   0   4  803.07   24.95
  12   0   4  843.22   26.19
  12   0   3    6.21    3.25
  12   0   3    1.15    2.87
  12   0   2  540.00   17.59
  12   0   2  520.41   17.02
  12   0   1   -2.29    2.58
  12   0   1    6.12    2.77
  12   0   0    0.48    3.25
  12   0   0    3.92    2.87
  12   0  -1   -1.53    2.96
  12   0  -1    3.25    2.96
  12   0  -2 2139.37   64.14
  12   0  -2 2133.63   64.33
  12   0  -3   -0.67    3.35
  12   0  -3   -0.57    3.35
  12   0  -4  355.51   12.81
  12   0  -4  370.42   13.10
  12   0  -5    0.86    2.96
  12   0  -5    7.17    3.35
  12   0  -6  107.54    6.02
  12   0  -6   96.26    5.93
  12   0  -7    3.15    3.54
  12   0  -7    3.25    3.54
  12   0  -8   35.08    4.30
  12   0  -8   50.57    4.59
  12   0  -9   -4.01    3.44
  12   0  -9    2.68    3.63
  12   0 -10   38.05    4.30
  12   0 -10   42.83    4.40
  12   0 -11    0.38    3.44
  12   0 -11   -3.25    3.35
  12   0 -12 1104.10   34.41
  12   0 -12 1098.36   34.32
  12   0 -13   -0.48    3.44
  12   0 -13   -2.20    3.35
  12   0 -14  131.82    6.69
  12   0 -14  151.04    7.17
  12   0 -15    2.96    3.44
  12   0 -15   -2.49    3.63
  12   0 -16  599.18   19.79
  12   0 -16  584.36   19.31
  12   0 -17   -3.06    3.25
  12   0 -17   -2.49    3.25
  12   0 -18  407.70   14.15
  12   0 -18  382.75   13.38
  12   0 -19   -5.45    3.44
  12   0 -19   -2.20    3.15
  12   0 -20   76.09    4.97
  12   0 -20   78.19    5.07
  12   0 -21   -1.34    3.25
  12   0 -21    3.35    3.35
  12   0 -22    2.96    3.63
  12   0 -22    3.35    3.73
  12   0 -23    1.72    3.73
  12   0 -23    2.01    4.21
  11   1   8  662.27   20.36
  11   1   8  653.28   19.98
  11   1   7    7.93    2.39
  11   1   7    8.13    2.20
  11   1   6    6.21    2.49
  11   1   6    3.63    2.29
  11   1   5  233.72    8.32
  11   1   5  221.58    8.13
  11   1   4  143.77    6.12
  11   1   4  133.45    5.64
  11   1   3  834.91   26.19
  11   1   3  798.68   24.85
  11   1   2  105.34    5.07
  11   1   2  100.95    5.16
  11   1   0 1946.27   58.89
  11   1   0 1867.88   56.40
  11   1  -1  710.73   22.75
  11   1  -1  698.69   22.37
  11   1  -2  257.62    9.75
  11   1  -2  252.94    9.46
  11   1  -3 1270.43   39.38
  11   1  -3 1252.26   38.52
  11   1  -4    1.24    3.25
  11   1  -4    7.84    3.44
  11   1  -5    0.10    3.35
  11   1  -5   -4.68    3.06
  11   1  -6  100.75    5.83
  11   1  -6  108.50    5.93
  11   1  -7   11.18    3.44
  11   1  -7   14.91    3.73
  11   1  -8   32.60    4.11
  11   1  -8   34.89    4.30
  11   1  -9  231.53    9.18
  11   1  -9  231.91    9.37
  11   1 -10  716.56   23.23
  11   1 -10  720.20   23.32
  11   1 -11  842.84   26.86
  11   1 -11  865.11   27.53
  11   1 -12   11.95    3.63
  11   1 -12   13.48    3.63
  11   1 -13  289.17   10.90
  11   1 -13  297.96   11.28
  11   1 -14   -0.57    3.15
  11   1 -14    8.03    3.73
  11   1 -15  104.10    5.74
  11   1 -15  112.23    6.02
  11   1 -16   12.71    3.54
  11   1 -16   13.86    3.44
  11   1 -17  270.24   10.32
  11   1 -17  245.29    9.46
  11   1 -18    6.21    3.15
  11   1 -18   12.62    3.44
  11   1 -19   39.96    4.01
  11   1 -19   37.47    4.30
  11   1 -20  173.79    7.46
  11   1 -20  160.69    7.36
  11   1 -21   -0.19    3.35
  11   1 -21   -0.86    3.73
  11   1 -22   27.91    4.49
  11   1 -22   15.58    4.11
  11   1 -23   40.63    4.30
  11   1 -23   40.05    4.78
  10   2   7  138.32    4.88
  10   2   7  144.15    5.07
  10   2   5   39.58    2.77
  10   2   5   40.05    2.87
  10   2   4  178.09    6.79
  10   2   4  177.42    6.79
  10   2   3  491.92   15.58
  10   2   3  484.08   15.68
  10   2   2   23.04    2.77
  10   2   2   24.47    3.06
  10   2   1 1762.73   53.15
  10   2   1 1890.82   56.88
  10   2   0  128.48    5.74
  10   2   0  123.31    5.64
  10   2  -1 1096.45   33.55
  10   2  -1 1127.99   34.80
  10   2  -2  143.10    6.50
  10   2  -2  130.87    6.12
  10   2  -3  148.36    6.79
  10   2  -3  153.24    6.88
  10   2  -4  221.49    8.79
  10   2  -4  199.60    8.03
  10   2  -5 1007.55   31.55
  10   2  -5 1069.68   33.36
  10   2  -6   65.00    4.49
  10   2  -6   66.53    4.97
  10   2  -7  557.02   18.54
 -10  -2   7  580.25   19.21
  10   2  -8   49.52    4.49
 -10  -2   8   43.40    4.11
  10   2  -9 1887.00   57.26
 -10  -2   9 1799.06   54.68
  10   2 -10   23.52    3.92
 -10  -2  10   25.81    3.63
  10   2 -11   51.33    4.59
 -10  -2  11   56.21    4.68
  10   2 -12   -7.36    3.35
 -10  -2  12    0.00    3.54
  10   2 -13  755.18   24.28
 -10  -2  13  763.21   24.18
  10   2 -14  111.65    5.83
 -10  -2  14  121.79    6.02
  10   2 -15  183.35    8.13
 -10  -2  15  189.37    8.32
  10   2 -16   83.17    5.26
  10   2 -17   88.42    5.35
  10   2 -17   70.64    4.78
  10   2 -19  266.61   10.04
  10   2 -19  275.02   10.42
  10   2 -20   73.03    4.88
  10   2 -20   61.56    4.68
  10   2 -21   92.72    5.45
  10   2 -21   73.99    5.07
  10   2 -22   -6.12    3.73
  10   2 -22    2.58    3.73
  10   2 -23   22.46    4.11
  10   2 -23    7.74    4.49
   9   3   6  326.45   10.32
   9   3   6  321.67   10.13
   9   3   5  145.49    5.54
   9   3   5  140.14    5.35
   9   3   4  240.13    8.22
   9   3   4  239.08    8.22
   9   3   3  190.13    6.88
   9   3   3  192.14    7.17
   9   3   2   99.89    4.88
   9   3   2   88.42    4.21
   9   3   1 1352.64   41.10
   9   3   1 1325.87   40.34
   9   3   0  538.86   17.30
   9   3   0  538.67   17.30
   9   3  -1  108.31    5.45
   9   3  -1  110.89    5.54
   9   3  -2  187.36    7.74
   9   3  -2  194.72    7.74
   9   3  -3 1346.90   41.20
  -9  -3   3 1327.78   40.63
   9   3  -4   -2.58    3.25
  -9  -3   4    4.49    3.25
   9   3  -5  255.81    9.85
  -9  -3   5  241.08    9.37
   9   3  -6   17.02    3.82
  -9  -3   6    8.41    3.54
   9   3  -7   69.50    4.78
  -9  -3   7   74.37    5.26
   9   3  -8   42.63    4.30
  -9  -3   8   39.19    4.21
   9   3  -9 1019.02   31.83
  -9  -3   9 1043.87   32.60
   9   3 -10   63.19    4.88
  -9  -3  10   60.70    4.30
   9   3 -11 1144.24   35.66
  -9  -3  11 1187.26   36.99
   9   3 -12  261.83   10.13
  -9  -3  12  250.84    9.94
   9   3 -13  125.61    6.31
  -9  -3  13  132.20    6.21
   9   3 -14   77.62    5.16
  -9  -3  14   80.39    5.07
   9   3 -15   45.02    4.49
  -9  -3  15   54.30    4.78
   9   3 -16    2.29    3.35
  -9  -3  16    1.91    2.96
   9   3 -17  217.38    8.60
  -9  -3  17  214.61    8.51
   9   3 -18  103.72    5.64
  -9  -3  18  106.87    5.35
   9   3 -19  287.73   10.71
   9   3 -20   11.95    3.35
   9   3 -20    5.54    3.15
   9   3 -21    3.82    3.63
   9   3 -21    5.93    3.73
   9   3 -22    9.85    4.11
   9   3 -22    6.98    3.82
   9   3 -23   68.44    5.26
   9   3 -23   68.06    5.54
   8   4   6   27.34    1.53
   8   4   6   27.34    1.53
   8   4   5  136.22    4.68
   8   4   5  137.75    4.97
   8   4   4  607.68   18.54
   8   4   4  603.86   18.54
   8   4   3  159.93    5.93
   8   4   3  169.10    6.31
   8   4   2  148.26    6.12
   8   4   2  135.26    5.35
   8   4   1  895.42   27.63
   8   4   1  847.24   26.19
   8   4   0  298.63   10.42
  -8  -4   0  281.43    9.94
   8   4  -1   46.65    3.82
  -8  -4   1   46.36    3.63
   8   4  -2   13.96    3.15
  -8  -4   2   15.29    3.15
   8   4  -3   66.72    4.59
  -8  -4   3   58.98    4.40
   8   4  -4 1135.64   35.08
  -8  -4   4 1111.74   34.32
   8   4  -5  442.12   15.10
  -8  -4   5  415.35   14.34
   8   4  -6  527.39   17.68
  -8  -4   6  491.63   16.54
   8   4  -7 2015.09   60.89
  -8  -4   7 1883.18   57.07
   8   4  -8 2116.42   63.86
  -8  -4   8 2073.41   62.61
   8   4  -9 1441.54   44.16
  -8  -4   9 1445.36   44.16
   8   4 -10  787.11   25.14
  -8  -4  10  740.75   23.52
   8   4 -11   45.12    4.30
  -8  -4  11   44.26    4.78
   8   4 -12  149.79    6.88
  -8  -4  12  154.48    7.27
   8   4 -13  626.99   20.46
  -8  -4  13  653.38   21.03
   8   4 -14  296.91   10.99
  -8  -4  14  293.37   11.18
   8   4 -15   54.87    4.49
  -8  -4  15   49.52    4.11
   8   4 -16  806.32   25.62
  -8  -4  16  747.92   23.90
   8   4 -17    7.07    3.06
  -8  -4  17    5.07    2.96
   8   4 -18  143.77    6.60
  -8  -4  18  146.07    6.60
   8   4 -19   19.69    3.73
  -8  -4  19   22.46    3.73
   8   4 -20    8.41    3.63
  -8  -4  20    3.25    3.15
   8   4 -21    2.77    3.15
   8   4 -21    1.05    4.01
   8   4 -22   74.28    5.64
   8   4 -22   62.71    4.97
   7   5   5    3.63    1.53
   7   5   5    3.25    1.34
   7   5   4  651.08   19.98
   7   5   4  611.03   18.74
   7   5   3   79.34    3.82
   7   5   3   75.23    3.73
   7   5   2   13.67    2.29
  -7  -5  -2   15.01    2.49
   7   5   1    6.50    2.39
  -7  -5  -1    2.87    2.49
   7   5   0 2982.49   88.61
  -7  -5   0 2995.88   89.09
   7   5  -1  282.09   10.13
  -7  -5   1  285.34   10.23
   7   5  -2  318.71   11.18
  -7  -5   2  330.75   11.66
   7   5  -3  242.52    9.37
  -7  -5   3  236.40    9.08
   7   5  -4  308.76   11.18
  -7  -5   4  296.15   10.71
   7   5  -5   -0.57    3.54
  -7  -5   5    2.68    3.25
   7   5  -6 9477.06  278.94
  -7  -5   6 9999.00  294.23
   7   5  -7  208.01    8.51
  -7  -5   7  215.08    8.89
   7   5  -8   89.09    5.45
  -7  -5   8  101.90    5.93
   7   5  -9   61.08    4.88
  -7  -5   9   62.71    4.59
   7   5 -10  208.20    8.70
  -7  -5  10  198.74    8.41
   7   5 -11    5.54    3.44
  -7  -5  11    8.70    3.92
   7   5 -12  898.86   28.39
  -7  -5  12  931.26   29.25
   7   5 -13   57.26    4.30
  -7  -5  13   53.05    4.59
   7   5 -14  832.52   26.38
  -7  -5  14  852.97   27.24
   7   5 -15   78.19    4.97
  -7  -5  15   83.74    4.97
   7   5 -16   54.30    4.21
  -7  -5  16   66.63    4.88
   7   5 -17    9.18    3.25
  -7  -5  17   16.54    3.15
   7   5 -18   95.40    5.45
  -7  -5  18  125.42    5.83
   7   5 -19   13.29    3.35
  -7  -5  19   14.43    3.35
   7   5 -20  125.61    6.50
  -7  -5  20  115.48    5.93
   7   5 -21    2.01    3.92
  -7  -5  21    3.15    3.82
   7   5 -22   62.52    5.26
   6   6   5   28.77    1.91
   6   6   5   28.01    1.91
   6   6   4    9.08    2.01
  -6  -6  -4    8.22    1.91
   6   6   3  268.23    8.99
  -6  -6  -3  266.51    9.08
   6   6   2 1113.66   33.74
  -6  -6  -2 1099.32   33.46
   6   6   1   70.45    4.01
  -6  -6  -1   81.83    4.30
   6   6   0    8.51    2.87
  -6  -6   0    8.70    2.77
   6   6  -1   71.22    4.40
  -6  -6   1   75.42    4.59
   6   6  -2  301.88   10.99
  -6  -6   2  316.03   11.28
   6   6  -3  232.39    8.99
  -6  -6   3  213.65    8.41
   6   6  -4  534.55   17.68
  -6  -6   4  490.30   16.25
   6   6  -5 1848.76   56.02
  -6  -6   5 1860.23   56.21
   6   6  -6  340.69   12.24
  -6  -6   6  363.44   13.00
   6   6  -7  750.40   23.99
  -6  -6   7  728.51   23.42
   6   6  -8 1181.53   36.61
  -6  -6   8 1143.29   35.56
   6   6  -9   19.02    3.63
  -6  -6   9   19.69    3.35
   6   6 -10  683.49   22.27
  -6  -6  10  611.51   20.27
   6   6 -11  486.95   16.54
  -6  -6  11  404.26   14.34
   6   6 -12   62.23    4.68
  -6  -6  12   64.81    4.49
   6   6 -13 1993.11   60.22
  -6  -6  13 1952.00   59.17
   6   6 -14  269.76   10.23
  -6  -6  14  221.49    8.99
   6   6 -15   80.49    5.07
  -6  -6  15   70.55    4.59
   6   6 -16  274.54   10.32
  -6  -6  16  244.91    9.37
   6   6 -17   39.96    4.30
  -6  -6  17   41.39    4.01
   6   6 -18   89.86    5.64
  -6  -6  18   85.65    5.26
   6   6 -19  176.27    7.65
  -6  -6  19  178.57    7.55
   6   6 -20    9.46    3.82
  -6  -6  20    1.91    3.73
   6   6 -21   32.50    4.88
  -6  -6  21   38.14    4.68
   5   7   6   23.32    1.63
  -5  -7  -6   24.18    1.63
   5   7   5 1166.23   34.99
  -5  -7  -5 1193.95   35.85
   5   7   4  428.73   13.67
  -5  -7  -4  448.33   14.24
   5   7   3  334.19   10.90
  -5  -7  -3  385.53   12.62
   5   7   2  128.00    5.54
  -5  -7  -2  114.62    5.16
   5   7   1   76.09    4.30
  -5  -7  -1   79.82    4.49
   5   7   0  102.28    5.07
  -5  -7   0  106.30    5.35
   5   7  -1 1323.96   40.34
  -5  -7   1 1289.55   39.48
   5   7  -2   77.81    4.88
  -5  -7   2   81.35    4.88
   5   7  -3  467.35   15.58
  -5  -7   3  424.34   14.53
   5   7  -4   15.87    3.73
  -5  -7   4   12.71    3.63
   5   7  -5    5.16    3.44
  -5  -7   5    2.96    3.35
   5   7  -6  263.93   10.13
  -5  -7   6  264.03   10.32
   5   7  -7 1161.45   36.04
  -5  -7   7 1227.41   37.95
   5   7  -8    2.10    3.15
  -5  -7   8    7.55    3.35
   5   7  -9  761.68   24.47
  -5  -7   9  812.54   25.71
   5   7 -10    3.06    3.63
  -5  -7  10    2.29    3.54
   5   7 -11  355.80   12.81
  -5  -7  11  328.93   11.76
   5   7 -12  413.25   14.34
  -5  -7  12  393.46   13.67
   5   7 -13 1326.83   40.72
  -5  -7  13 1251.31   39.00
   5   7 -14  173.98    7.46
  -5  -7  14  192.52    7.84
   5   7 -15  452.06   15.29
  -5  -7  15  482.74   16.44
   5   7 -16    7.65    3.44
  -5  -7  16    4.88    3.06
   5   7 -17  362.01   12.81
  -5  -7  17  340.02   12.04
   5   7 -18   -1.05    3.25
  -5  -7  18    0.96    3.15
   5   7 -19   14.63    3.82
  -5  -7  19   12.04    4.01
   5   7 -20   12.52    4.49
  -5  -7  20   13.57    4.01
   5   7 -21  121.40    6.60
  -5  -7  21  115.00    6.21
   4   8   7   65.96    2.68
  -4  -8  -7   76.00    3.06
   4   8   6 1616.47   48.27
  -4  -8  -6 1570.59   46.94
   4   8   5   13.86    2.29
  -4  -8  -5   14.63    2.20
   4   8   4  315.74   10.42
  -4  -8  -4  337.82   11.28
   4   8   3  575.28   18.26
  -4  -8  -3  559.89   17.88
   4   8   2  110.79    5.16
  -4  -8  -2  107.54    5.07
   4   8   1  665.13   21.13
  -4  -8  -1  679.66   21.60
   4   8   0 1192.04   36.52
  -4  -8   0 1149.02   35.27
   4   8  -1   14.34    3.44
  -4  -8   1   22.94    3.54
   4   8  -2 1381.32   42.16
  -4  -8   2 1369.84   41.97
   4   8  -3  257.91    9.94
  -4  -8   3  238.31    9.46
   4   8  -4   -1.82    3.44
  -4  -8   4    9.18    3.44
   4   8  -5  114.81    6.12
  -4  -8   5  116.62    6.21
   4   8  -6  444.60   15.29
  -4  -8   6  456.93   15.39
   4   8  -7  115.48    6.02
  -4  -8   7  122.45    6.60
   4   8  -8  352.35   12.62
  -4  -8   8  326.16   11.76
   4   8  -9   91.39    5.45
  -4  -8   9   94.73    5.64
   4   8 -10  436.09   15.01
  -4  -8  10  389.83   13.86
   4   8 -11 1194.91   36.99
  -4  -8  11 1240.79   38.14
   4   8 -12  131.34    6.40
  -4  -8  12  122.74    6.31
   4   8 -13  238.60    9.46
  -4  -8  13  243.09    9.75
   4   8 -14  213.75    8.60
  -4  -8  14  209.92    8.41
   4   8 -15    0.19    3.15
  -4  -8  15    0.86    3.25
   4   8 -16   91.10    5.45
  -4  -8  16   93.97    5.54
   4   8 -17  220.44    8.89
  -4  -8  17  208.30    8.41
   4   8 -18    5.54    3.82
  -4  -8  18    2.20    3.63
   4   8 -19  157.82    7.27
  -4  -8  19  155.53    6.98
   4   8 -20    9.56    4.30
  -4  -8  20    8.13    4.30
   3   9   8  977.91   29.44
  -3  -9  -8  908.61   27.53
   3   9   7   16.16    2.20
  -3  -9  -7   11.95    2.10
   3   9   6   15.96    2.29
  -3  -9  -6   12.24    2.29
   3   9   5   16.82    2.49
  -3  -9  -5   16.82    2.58
   3   9   4  359.33   12.04
  -3  -9  -4  350.54   11.95
   3   9   3    1.05    2.58
  -3  -9  -3    2.68    2.68
   3   9   2 1637.50   49.42
  -3  -9  -2 1725.45   52.10
   3   9   1  142.62    6.40
  -3  -9  -1  142.91    6.40
   3   9   0 1479.78   45.02
  -3  -9   0 1412.86   43.11
   3   9  -1   45.02    4.01
  -3  -9   1   31.93    3.73
   3   9  -2  604.53   19.79
  -3  -9   2  546.22   18.26
   3   9  -3  128.19    6.40
  -3  -9   3  117.39    6.12
   3   9  -4 1933.84   58.60
  -3  -9   4 2000.76   60.41
   3   9  -5   26.00    4.01
  -3  -9   5   20.84    3.73
   3   9  -6  742.18   23.90
  -3  -9   6  715.70   23.32
   3   9  -7    0.76    3.35
  -3  -9   7   -1.53    3.54
   3   9  -8    1.63    3.35
  -3  -9   8    5.45    3.35
   3   9  -9  125.23    6.50
  -3  -9   9  127.43    6.60
   3   9 -10  898.00   28.39
  -3  -9  10  857.18   27.24
   3   9 -11   39.77    4.21
  -3  -9  11   32.50    3.92
   3   9 -12    6.50    3.54
  -3  -9  12    6.98    3.73
   3   9 -13   11.57    3.54
  -3  -9  13   -2.01    3.54
   3   9 -14  227.03    8.99
  -3  -9  14  231.24    9.18
   3   9 -15   -3.63    3.44
  -3  -9  15    0.29    2.87
   3   9 -16  250.55    9.65
  -3  -9  16  248.25    9.27
   3   9 -17   63.66    4.88
  -3  -9  17   89.47    5.16
   3   9 -18  170.82    7.65
  -3  -9  18  171.11    7.36
   3   9 -19    8.03    3.82
  -3  -9  19   10.80    3.92
   2  10   9  484.66   15.10
  -2 -10  -9  493.16   15.29
   2  10   8  521.84   16.44
  -2 -10  -8  534.65   16.82
   2  10   7  194.34    7.17
  -2 -10  -7  173.31    6.60
   2  10   6 1267.56   38.43
  -2 -10  -6 1357.42   41.01
   2  10   5  292.80   10.13
  -2 -10  -5  302.93   10.52
   2  10   4   80.58    4.40
  -2 -10  -4   82.88    4.68
   2  10   3  132.97    6.12
  -2 -10  -3  137.84    6.21
   2  10   2   66.05    4.49
  -2 -10  -2   57.16    4.11
   2  10   1  336.87   11.85
  -2 -10  -1  355.13   12.52
   2  10   0 2018.92   60.99
  -2 -10   0 2051.42   61.85
   2  10  -1  427.78   14.82
  -2 -10   1  451.39   15.49
   2  10  -2  756.23   24.18
  -2 -10   2  729.66   23.61
   2  10  -3  626.42   20.65
  -2 -10   3  498.52   16.92
   2  10  -4  144.44    6.88
  -2 -10   4  151.23    7.27
   2  10  -5  203.80    8.60
  -2 -10   5  194.05    8.32
   2  10  -6  351.88   12.71
  -2 -10   6  361.44   13.19
   2  10  -7   56.88    4.88
  -2 -10   7   62.52    4.88
   2  10  -8  372.81   13.38
  -2 -10   8  396.52   13.96
   2  10  -9  810.91   25.91
  -2 -10   9  825.73   26.67
   2  10 -10   14.53    3.73
  -2 -10  10   11.66    3.54
   2  10 -11  326.07   12.04
  -2 -10  11  298.54   11.18
   2  10 -12   26.48    3.82
  -2 -10  12   25.52    4.21
   2  10 -13  481.88   16.25
  -2 -10  13  455.02   15.29
   2  10 -14  165.38    7.36
  -2 -10  14  154.29    6.79
   2  10 -15    1.91    3.25
  -2 -10  15    1.43    3.25
   2  10 -16  158.97    7.17
  -2 -10  16  165.47    7.17
   2  10 -17   60.99    4.88
  -2 -10  17   71.89    4.97
   2  10 -18   11.38    3.63
  -2 -10  18   13.57    4.01
   2  10 -19   32.60    5.16
  -2 -10  19   40.72    4.88
  -1 -11 -11  139.47    4.97
   1  11  10   14.72    2.20
  -1 -11 -10   21.80    2.49
   1  11   9  216.71    7.55
  -1 -11  -9  204.09    7.46
   1  11   8    1.63    2.49
  -1 -11  -8   -1.63    2.68
   1  11   7 1189.17   36.23
  -1 -11  -7 1149.98   35.18
   1  11   6   44.26    3.54
  -1 -11  -6   42.63    3.92
   1  11   5 1306.75   39.86
  -1 -11  -5 1246.53   38.14
   1  11   4  396.42   13.57
  -1 -11  -4  408.95   13.96
   1  11   3  140.14    6.40
  -1 -11  -3  148.84    6.60
   1  11   2   22.85    3.35
  -1 -11  -2   23.71    3.54
   1  11   1  717.61   23.13
  -1 -11  -1  731.95   23.42
   1  11   0  409.04   14.05
  -1 -11   0  416.78   14.53
   1  11  -1 1978.77   59.84
  -1 -11   1 2015.09   60.89
   1  11  -2  839.40   26.86
  -1 -11   2  858.23   27.34
   1  11  -3   70.74    4.88
  -1 -11   3   66.53    5.16
   1  11  -4   -2.77    3.35
  -1 -11   4   -7.46    3.63
   1  11  -5   96.07    5.74
  -1 -11   5  107.73    6.02
   1  11  -6   38.62    4.40
  -1 -11   6   40.44    4.49
   1  11  -7  790.17   25.33
  -1 -11   7  784.63   25.14
   1  11  -8   49.04    4.49
  -1 -11   8   50.00    4.78
   1  11  -9   13.57    3.73
  -1 -11   9    4.49    3.92
   1  11 -10   -4.01    3.44
  -1 -11  10   -1.91    3.35
   1  11 -11  166.62    7.46
  -1 -11  11  169.49    7.74
   1  11 -12   -0.57    3.25
  -1 -11  12   -0.76    3.35
   1  11 -13  144.44    6.88
  -1 -11  13  136.89    6.69
   1  11 -14   11.57    3.54
  -1 -11  14    3.44    3.54
   1  11 -15  381.99   13.29
  -1 -11  15  392.41   13.57
   1  11 -16    3.15    3.82
  -1 -11  16    1.24    3.82
   1  11 -17    9.56    4.11
  -1 -11  17    7.93    3.82
   1  11 -18    1.24    3.92
  -1 -11  18    7.17    4.01
   0 -12 -12   13.57    2.20
   0  12  11  112.42    4.88
   0 -12 -11  349.30   11.47
   0  12  10    3.92    2.68
   0 -12 -10    0.96    2.29
   0  12   9   15.87    2.96
   0 -12  -9   18.64    3.35
   0  12   8   61.27    4.11
   0 -12  -8   56.30    4.21
   0  12   7   16.06    3.15
   0 -12  -7   23.99    3.63
   0  12   6  133.35    6.31
   0 -12  -6  108.21    5.64
   0  12   5  761.78   24.09
   0 -12  -5  777.07   24.76
   0  12   4    0.19    2.87
   0 -12  -4    0.29    3.15
   0  12   3  403.50   13.96
   0 -12  -3  400.92   13.96
   0  12   2  255.14    9.65
   0 -12  -2  261.92   10.13
   0  12   1  528.44   17.68
   0 -12  -1  533.89   17.97
   0  12   0   90.43    5.45
   0 -12   0   67.01    5.07
   0  12  -1  539.24   18.16
   0 -12   1  552.33   18.54
   0  12  -2  269.67   10.52
   0 -12   2  273.68   10.42
   0  12  -3  440.78   15.39
   0 -12   3  432.65   15.20
   0  12  -4    4.01    3.54
   0 -12   4   -3.15    3.63
   0  12  -5  767.13   24.66
   0 -12   5  790.55   25.43
   0  12  -6  137.08    6.88
   0 -12   6  127.62    6.98
   0  12  -7   22.08    3.82
   0 -12   7   32.21    4.30
   0  12  -8   60.61    5.07
   0 -12   8   62.04    5.26
   0  12  -9   12.71    3.73
   0 -12   9   23.13    4.21
   0  12 -10    0.19    3.54
   0 -12  10    0.67    3.54
   0  12 -11  351.49   12.62
   0 -12  11  382.75   13.57
   0  12 -12   15.68    3.63
   0 -12  12   19.69    3.73
   0  12 -13    1.24    3.73
   0 -12  13    2.68    3.44
   0  12 -14   13.86    3.63
   0 -12  14   23.80    4.21
   0  12 -15    7.74    3.92
   0 -12  15   12.24    4.01
   0  12 -16   90.05    5.64
   0 -12  16   85.46    5.45
   0  12 -17  128.38    6.60
   0 -12  17  126.37    6.40
   1 -13 -13   71.98    3.92
   1 -13 -13   80.01    4.11
  -1  13  12    2.49    2.77
   1 -13 -12   65.67    3.92
  -1  13  11   22.46    3.15
   1 -13 -11   22.66    3.35
  -1  13  10  146.07    6.40
   1 -13 -10  145.97    6.31
  -1  13   9    0.76    3.06
   1 -13  -9   -1.15    3.15
  -1  13   8  102.86    5.45
   1 -13  -8   94.35    5.26
  -1  13   7  184.21    7.74
   1 -13  -7  181.63    7.46
  -1  13   6  227.22    8.99
   1 -13  -6  232.86    9.08
  -1  13   5    0.76    3.54
   1 -13  -5    0.48    3.44
  -1  13   4  286.11   10.71
   1 -13  -4  281.62   10.61
  -1  13   3   92.06    5.45
   1 -13  -3   82.78    5.35
  -1  13   2   43.11    4.30
   1 -13  -2   45.02    4.59
  -1  13   1   85.56    5.45
   1 -13  -1  100.47    6.02
  -1  13   0   51.33    4.78
   1 -13   0   45.02    4.40
  -1  13  -1  295.29   11.18
   1 -13   1  296.53   11.28
  -1  13  -2  216.80    9.08
   1 -13   2  214.13    9.08
  -1  13  -3  119.97    6.60
   1 -13   3  123.41    6.98
  -1  13  -4  545.93   18.35
   1 -13   4  572.89   19.02
  -1  13  -5  132.11    6.69
   1 -13   5  122.74    6.88
  -1  13  -6    5.16    3.73
   1 -13   6    3.54    4.01
  -1  13  -7   62.61    4.88
   1 -13   7   66.05    5.26
  -1  13  -8   41.77    4.30
   1 -13   8   50.00    4.97
  -1  13  -9   26.10    4.11
   1 -13   9   22.56    3.92
  -1  13 -10  160.12    7.36
   1 -13  10  167.00    7.55
  -1  13 -11    1.15    3.82
   1 -13  11    3.06    3.35
  -1  13 -12  135.84    6.69
   1 -13  12  142.15    6.98
  -1  13 -13   69.50    4.97
   1 -13  13   63.47    4.88
  -1  13 -14    6.69    3.92
   1 -13  14   19.41    3.82
  -1  13 -15    3.63    3.73
   1 -13  15    0.48    3.73
  -1  13 -16  120.83    6.50
   1 -13  16  109.55    6.21
   2 -14 -14  137.56    5.93
   2 -14 -14  134.40    5.83
  -2  14  13   -1.43    3.06
   2 -14 -13   14.43    3.35
  -2  14  12   33.74    3.73
   2 -14 -12   36.13    3.73
  -2  14  11   81.73    4.88
   2 -14 -11   84.50    4.97
  -2  14  10   62.61    4.49
   2 -14 -10   59.55    4.49
  -2  14   9   74.28    4.78
   2 -14  -9   72.27    4.88
  -2  14   8  169.20    7.46
   2 -14  -8  174.55    7.65
  -2  14   7    3.44    3.25
   2 -14  -7    4.11    3.63
  -2  14   6  190.04    8.03
   2 -14  -6  212.69    8.99
  -2  14   5    3.82    3.35
   2 -14  -5    1.43    3.73
  -2  14   4  153.24    7.07
   2 -14  -4  161.74    7.46
  -2  14   3   -2.10    3.44
   2 -14  -3    0.29    3.82
  -2  14   2  700.60   22.75
   2 -14  -2  688.84   22.37
  -2  14   1  880.60   28.10
   2 -14  -1  840.07   26.86
  -2  14   0  110.60    6.21
   2 -14   0  103.62    6.21
  -2  14  -1   74.18    5.16
   2 -14   1   73.61    5.45
  -2  14  -2  109.07    6.12
   2 -14   2  109.07    6.21
  -2  14  -3   19.02    4.11
   2 -14   3   15.10    4.40
  -2  14  -4  265.46   10.42
   2 -14   4  269.00   10.52
  -2  14  -5   94.06    5.83
   2 -14   5  101.23    6.50
  -2  14  -6  331.80   12.24
   2 -14   6  356.47   12.91
  -2  14  -7   96.17    5.83
   2 -14   7  102.38    5.93
  -2  14  -8  665.52   21.60
   2 -14   8  682.82   22.46
  -2  14  -9   13.48    3.73
   2 -14   9   -0.10    3.35
  -2  14 -10    1.72    3.35
   2 -14  10    6.12    3.63
  -2  14 -11   16.63    3.73
   2 -14  11    7.84    3.73
  -2  14 -12  137.37    6.50
   2 -14  12  127.90    6.50
  -2  14 -13   36.13    4.21
   2 -14  13   30.21    4.21
  -2  14 -14  199.12    8.32
   2 -14  14  192.52    8.03
   3 -15 -16   12.43    3.54
   3 -15 -16   13.96    3.63
   3 -15 -15   88.33    5.45
   3 -15 -15   97.41    5.54
  -3  15  14    6.98    3.82
   3 -15 -14    3.82    3.63
  -3  15  13   56.21    4.88
   3 -15 -13  172.07    7.27
  -3  15  12  109.55    5.64
   3 -15 -12   96.64    5.35
  -3  15  11   76.76    4.97
   3 -15 -11   92.53    5.26
  -3  15  10  239.17    9.18
   3 -15 -10  239.56    9.37
  -3  15   9  706.14   22.46
   3 -15  -9  759.39   24.28
  -3  15   8   -1.63    3.25
   3 -15  -8   10.42    3.54
  -3  15   7  153.33    7.27
   3 -15  -7  151.71    7.27
  -3  15   6  150.18    7.07
   3 -15  -6  155.91    7.46
  -3  15   5    8.13    3.73
   3 -15  -5    6.40    3.92
  -3  15   4  268.42   10.42
   3 -15  -4  250.74   10.04
  -3  15   3  226.65    9.27
   3 -15  -3  215.27    9.08
  -3  15   2   19.98    4.11
   3 -15  -2   18.83    4.01
  -3  15   1  178.18    8.13
   3 -15  -1  179.14    8.13
  -3  15   0   21.41    4.01
   3 -15   0   23.71    4.21
  -3  15  -1  275.21   10.80
   3 -15   1  284.20   11.09
  -3  15  -2  105.82    6.12
   3 -15   2   81.16    5.54
  -3  15  -3   30.49    4.30
   3 -15   3   36.33    4.49
  -3  15  -4  130.29    6.60
   3 -15   4  130.01    6.60
  -3  15  -5  239.94    9.56
   3 -15   5  224.07    9.46
  -3  15  -6   12.24    3.82
   3 -15   6   14.82    4.01
  -3  15  -7  102.00    5.93
   3 -15   7   88.52    5.74
  -3  15  -8   54.30    4.49
   3 -15   8   57.64    4.97
  -3  15  -9   38.14    4.40
   3 -15   9   41.30    4.21
  -3  15 -10   84.60    5.35
   3 -15  10   82.88    5.16
  -3  15 -11  139.95    6.60
   3 -15  11  144.44    6.88
  -3  15 -12   39.67    4.40
   3 -15  12   43.88    4.68
  -3  15 -13   57.83    4.78
   3 -15  13   63.57    5.16
   4 -16 -15    2.49    4.01
   4 -16 -15    5.16    4.30
  -4  16  14    1.82    4.11
   4 -16 -14    0.76    4.11
  -4  16  13  169.20    7.74
   4 -16 -13  144.35    6.88
  -4  16  12   24.57    4.30
   4 -16 -12   24.66    4.11
  -4  16  11  393.27   13.48
   4 -16 -11  387.06   13.38
  -4  16  10   28.01    3.92
   4 -16 -10   22.94    3.82
  -4  16   9   25.81    3.92
   4 -16  -9   25.81    4.01
  -4  16   8   16.63    3.92
   4 -16  -8    5.26    3.82
  -4  16   7  179.71    7.74
   4 -16  -7  190.52    8.41
  -4  16   6    3.82    3.63
   4 -16  -6    2.29    3.92
  -4  16   5  590.48   19.50
   4 -16  -5  581.20   19.31
  -4  16   4   81.35    5.35
   4 -16  -4   74.66    5.26
  -4  16   3  143.10    6.98
   4 -16  -3  123.41    6.60
  -4  16   2  161.36    7.46
   4 -16  -2  186.02    8.41
  -4  16   1    6.40    3.73
   4 -16  -1    3.92    4.11
  -4  16   0   91.48    5.74
   4 -16   0  101.42    6.40
  -4  16  -1  475.77   16.35
   4 -16   1  488.77   16.73
  -4  16  -2   39.00    4.30
   4 -16   2   38.33    4.59
  -4  16  -3  178.38    7.93
   4 -16   3  176.08    8.03
  -4  16  -4   56.30    5.07
   4 -16   4   59.27    4.59
  -4  16  -5   97.22    5.83
   4 -16   5   92.34    5.93
  -4  16  -6   -1.05    3.73
   4 -16   6    1.15    3.82
  -4  16  -7   17.02    4.01
   4 -16   7   15.58    3.63
  -4  16  -8    1.05    3.54
   4 -16   8   -5.07    3.82
  -4  16  -9  282.19   10.61
   4 -16   9  297.96   11.09
  -4  16 -10   -6.31    3.63
   4 -16  10    4.11    3.54
  -4  16 -11   31.74    4.49
   4 -16  11   35.66    4.40
  -5  17  14    7.07    5.07
   5 -17 -14    3.15    4.49
  -5  17  13   23.61    4.30
   5 -17 -13   31.45    4.68
  -5  17  12  146.73    7.17
   5 -17 -12  144.35    7.07
  -5  17  11   83.26    5.74
   5 -17 -11   80.68    5.35
  -5  17  10   37.57    4.88
   5 -17 -10   52.29    4.59
  -5  17   9  148.65    6.98
   5 -17  -9  151.32    7.27
  -5  17   8   -3.92    3.92
   5 -17  -8    4.49    3.92
  -5  17   7  124.27    6.69
   5 -17  -7  116.34    6.40
  -5  17   6  194.05    8.32
   5 -17  -6  205.72    8.70
  -5  17   5   27.63    4.11
   5 -17  -5   21.99    4.40
  -5  17   4  436.86   15.10
   5 -17  -4  441.35   15.29
  -5  17   3  178.18    7.84
   5 -17  -3  174.17    8.03
  -5  17   2    2.10    3.54
   5 -17  -2   -0.57    3.82
  -5  17   1  399.39   14.05
   5 -17  -1  400.15   14.24
  -5  17   0   24.38    4.21
   5 -17   0   18.45    4.30
  -5  17  -1    5.35    3.73
   5 -17   1    7.07    3.92
  -5  17  -2  148.17    7.07
   5 -17   2  139.28    6.79
  -5  17  -3    9.46    3.63
   5 -17   3   -2.49    3.63
  -5  17  -4  147.12    6.88
   5 -17   4  157.82    7.36
  -5  17  -5  121.69    6.21
   5 -17   5  144.63    6.79
  -5  17  -6    0.96    3.54
   5 -17   6   -0.10    3.92
  -5  17  -7   84.22    5.26
   5 -17   7   78.29    5.45
  -5  17  -8  143.68    6.88
   5 -17   8  144.82    6.98
  -5  17  -9    4.97    3.82
   5 -17   9    5.26    3.54
  -5  17 -10   64.14    5.07
   5 -17  10   66.15    5.26
  -6  18  13    5.45    4.40
   6 -18 -13   -6.79    4.30
  -6  18  12    6.40    4.30
   6 -18 -12   -0.96    4.30
  -6  18  11    3.15    4.11
   6 -18 -11   -2.39    3.92
  -6  18  10   75.14    5.74
   6 -18 -10   72.17    5.35
  -6  18   9    0.86    3.63
   6 -18  -9   10.61    4.11
  -6  18   8  531.69   17.68
   6 -18  -8  541.72   17.97
  -6  18   7    6.79    3.82
   6 -18  -7   -1.05    3.63
  -6  18   6    1.24    3.44
   6 -18  -6    1.72    3.63
  -6  18   5   36.61    4.30
   6 -18  -5   40.82    4.59
  -6  18   4  131.34    6.69
   6 -18  -4  116.81    6.12
  -6  18   3    6.40    3.73
   6 -18  -3   10.52    4.11
  -6  18   2  192.24    8.32
   6 -18  -2  173.98    7.65
  -6  18   1   33.17    4.21
   6 -18  -1   34.13    4.49
  -6  18   0   11.57    3.73
   6 -18   0   13.96    3.82
  -6  18  -1    6.12    3.73
   6 -18   1    4.40    3.73
  -6  18  -2   19.69    4.01
   6 -18   2   13.77    3.73
  -6  18  -3  101.33    5.74
   6 -18   3  119.01    6.02
  -6  18  -4  232.77    9.18
   6 -18   4  243.38    9.56
  -6  18  -5   -4.11    3.63
   6 -18   5   -4.59    4.01
  -6  18  -6  155.05    7.17
   6 -18   6  174.17    7.65
  -6  18  -7   -0.10    3.63
   6 -18   7    6.88    3.73
  -7  19  12   55.63    5.26
   7 -19 -12   58.50    5.74
  -7  19  11   -4.21    4.30
   7 -19 -11    6.12    4.21
  -7  19  10   30.49    5.07
   7 -19 -10   21.51    4.40
  -7  19   9  142.82    7.27
   7 -19  -9  141.67    6.88
  -7  19   8   -0.96    3.73
   7 -19  -8    3.63    4.21
  -7  19   7    2.68    3.92
   7 -19  -7   -2.49    4.01
  -7  19   6   36.71    4.40
   7 -19  -6   33.94    4.78
  -7  19   5   19.41    4.01
   7 -19  -5   16.82    4.01
  -7  19   4  171.30    7.65
   7 -19  -4  165.09    7.55
  -7  19   3    4.97    3.73
   7 -19  -3   16.35    4.01
  -7  19   2    5.16    3.73
   7 -19  -2   -2.29    4.11
  -7  19   1   24.95    4.11
   7 -19  -1   15.29    4.40
  -7  19   0    6.21    3.82
   7 -19   0    4.59    4.01
  -7  19  -1   15.87    3.92
   7 -19   1    6.40    4.11
  -7  19  -2  126.09    6.21
   7 -19   2  121.79    6.31
  -7  19  -3    0.96    3.73
   7 -19   3    1.63    3.63
  -7  19  -4   58.02    4.68
   7 -19   4   44.45    4.59
  -7  19  -5   87.28    5.16
   7 -19   5   75.52    5.16
  -8  20   9   -0.67    4.21
   8 -20  -9    1.24    4.01
  -8  20   8   21.60    4.49
   8 -20  -8   19.02    4.11
  -8  20   7  106.87    5.83
   8 -20  -7   97.89    5.74
  -8  20   6    4.01    3.82
   8 -20  -6    3.44    3.82
  -8  20   5  273.78   10.13
   8 -20  -5  279.61   10.52
  -8  20   4    3.44    3.73
   8 -20  -4    5.83    3.73
  -8  20   3   18.74    3.82
   8 -20  -3   25.24    4.30
  -8  20   2   10.52    4.11
   8 -20  -2    4.01    3.82
  -8  20   1   45.50    4.30
   8 -20  -1   44.55    4.78
  -8  20   0   31.26    4.21
   8 -20   0   35.56    3.92
  -8  20  -1  238.70    9.08
   8 -20   1  226.36    8.89
  22  -8  -5    5.64    3.92
  22  -8  -5   10.04    4.11
  22  -8  -6  135.07    6.31
  22  -8  -6  114.62    6.31
  22  -8  -7    2.20    3.73
  22  -8  -7   -1.63    3.73
  22  -8  -8   12.62    4.11
  22  -8  -8   11.57    3.92
  22  -8  -9   57.83    4.49
  22  -8  -9   61.08    4.68
  22  -8 -10   -0.86    3.82
  22  -8 -10   -2.39    3.82
  22  -8 -11  106.59    5.93
  22  -8 -11   86.03    5.45
  22  -8 -12   52.58    4.78
  22  -8 -12   70.17    5.07
  22  -8 -13   37.57    4.30
  22  -8 -13   29.73    4.30
  22  -8 -14   22.08    4.11
  22  -8 -14   24.76    4.01
  22  -8 -15   25.81    4.01
  22  -8 -15   24.95    4.11
  22  -8 -16   20.84    4.01
  22  -8 -16   23.52    4.30
  21  -7  -1   34.32    5.07
  21  -7  -2    3.44    4.11
  21  -7  -2    0.29    4.21
  21  -7  -3   54.39    4.78
  21  -7  -3   56.69    4.88
  21  -7  -4    7.27    3.73
  21  -7  -4    1.24    3.92
  21  -7  -5  191.66    7.93
  21  -7  -5  195.30    8.22
  21  -7  -7  125.70    6.40
  21  -7  -7  143.39    6.98
  21  -7  -8    8.13    3.63
  21  -7  -8   -0.10    3.92
  21  -7  -9    8.22    3.92
  21  -7  -9    8.03    3.92
  21  -7 -10   15.29    3.82
  21  -7 -10   21.70    4.21
  21  -7 -11   81.25    5.26
  21  -7 -11   63.19    5.26
  21  -7 -12    0.29    3.35
  21  -7 -12    3.63    3.73
  21  -7 -13  213.27    8.70
  21  -7 -13  204.76    8.60
  21  -7 -14   -1.05    3.82
  21  -7 -14    3.73    3.82
  21  -7 -16    4.11    3.82
  21  -7 -16   -1.34    4.01
  21  -7 -17    9.08    3.73
  21  -7 -17   12.91    4.21
  21  -7 -18   15.01    4.21
  21  -7 -18   10.32    3.92
  20  -6   1   -5.64    4.49
  20  -6   1   -0.76    4.01
  20  -6   0   48.47    4.68
  20  -6   0   34.41    4.68
  20  -6  -1    9.75    4.11
  20  -6  -1   11.95    4.30
  20  -6  -2   11.95    3.92
  20  -6  -2    7.07    4.01
  20  -6  -3  248.06    9.85
  20  -6  -3  245.39    9.65
  20  -6  -4   22.56    4.01
  20  -6  -4   22.27    4.30
  20  -6  -5    2.96    3.92
  20  -6  -5    2.01    3.63
  20  -6  -6  129.24    6.50
  20  -6  -6  117.39    6.40
  20  -6  -7   73.70    4.88
  20  -6  -7   89.76    5.64
  20  -6  -8   36.80    4.49
  20  -6  -8   39.67    4.68
  20  -6  -9  255.52    9.75
  20  -6  -9  269.38   10.42
  20  -6 -10  142.82    6.88
  20  -6 -10  132.49    6.79
  20  -6 -11   54.30    4.68
  20  -6 -11   65.19    4.97
  20  -6 -12   32.69    4.59
  20  -6 -12   27.72    4.30
  20  -6 -13    2.68    3.44
  20  -6 -13    1.91    3.44
  20  -6 -14   23.52    4.21
  20  -6 -14   17.11    4.01
  20  -6 -15   75.04    5.16
  20  -6 -15   75.90    5.35
  20  -6 -16   15.49    3.92
  20  -6 -16   21.99    4.30
  20  -6 -17  193.96    8.22
  20  -6 -17  214.70    8.89
  20  -6 -18   -2.77    3.82
  20  -6 -18   -4.97    3.63
  20  -6 -19   55.06    4.68
  20  -6 -19   57.55    5.16
  20  -6 -20   53.25    4.40
  20  -6 -20   45.22    4.49
  19  -5   3   14.91    4.68
  19  -5   3   17.40    4.59
  19  -5   2    6.88    3.92
  19  -5   2    5.54    4.21
  19  -5   0  110.60    6.21
  19  -5   0  109.93    6.12
  19  -5  -1   98.17    5.64
  19  -5  -1   92.15    6.02
  19  -5  -2  325.88   11.76
  19  -5  -2  318.99   11.66
  19  -5  -3   40.91    4.49
  19  -5  -3   51.62    4.68
  19  -5  -4  114.90    6.31
  19  -5  -4  120.54    6.31
  19  -5  -5   91.10    5.64
  19  -5  -5   84.50    5.35
  19  -5  -6  105.34    6.21
  19  -5  -6  112.99    6.21
  19  -5  -7    4.21    3.82
  19  -5  -7   -0.67    3.82
  19  -5  -8  684.73   22.18
  19  -5  -8  685.78   22.27
  19  -5  -9   35.18    4.40
  19  -5  -9   46.74    4.78
  19  -5 -10  233.63    9.08
  19  -5 -10  230.28    9.46
  19  -5 -11   14.05    4.30
  19  -5 -11    7.65    4.21
  19  -5 -12    2.87    3.92
  19  -5 -12    6.60    3.82
  19  -5 -13   23.99    4.49
  19  -5 -13   22.85    4.21
  19  -5 -14   47.32    4.78
  19  -5 -14   47.32    4.68
  19  -5 -15    2.96    3.73
  19  -5 -15    6.12    3.73
  19  -5 -16  382.56   13.48
  19  -5 -16  372.52   13.19
  19  -5 -17    1.91    3.82
  19  -5 -17   -0.96    4.11
  19  -5 -18  168.72    7.46
  19  -5 -18  165.57    7.93
  19  -5 -19   -5.16    3.73
  19  -5 -19    8.13    3.82
  19  -5 -20   17.30    4.01
  19  -5 -20   10.80    4.30
  19  -5 -21   12.43    4.59
  19  -5 -21   15.39    4.40
  18  -4   5    3.63    4.49
  18  -4   5   16.16    5.45
  18  -4   3   -1.24    3.73
  18  -4   3    4.21    4.11
  18  -4   2  216.14    8.99
  18  -4   2  220.53    9.18
  18  -4   1   -0.38    3.54
  18  -4   1   -4.97    3.54
  18  -4   0  160.98    7.17
  18  -4   0  164.23    7.46
  18  -4  -1    4.40    3.54
  18  -4  -1    3.35    3.54
  18  -4  -2    4.78    4.11
  18  -4  -2   14.24    3.82
  18  -4  -3   83.45    5.26
  18  -4  -3   97.41    5.83
  18  -4  -4  394.42   14.05
  18  -4  -4  352.74   12.81
  18  -4  -5  159.54    7.27
  18  -4  -5  154.00    7.46
  18  -4  -6  433.80   15.20
  18  -4  -6  449.29   15.58
  18  -4  -7   48.37    4.78
  18  -4  -7   59.65    5.07
  18  -4  -8   15.20    4.21
  18  -4  -8    7.46    4.01
  18  -4  -9   71.69    5.45
  18  -4  -9   53.53    5.35
  18  -4 -10   66.25    5.07
  18  -4 -10   65.86    5.26
  18  -4 -11  100.85    6.21
  18  -4 -11   96.93    6.02
  18  -4 -12  327.31   12.04
  18  -4 -12  353.41   12.91
  18  -4 -13   66.44    5.54
  18  -4 -13   72.27    5.16
  18  -4 -14   67.20    5.16
  18  -4 -14   64.14    5.07
  18  -4 -15  135.07    6.79
  18  -4 -15  133.26    6.69
  18  -4 -16    0.10    3.82
  18  -4 -16    4.30    3.92
  18  -4 -17   15.39    4.11
  18  -4 -17   10.32    4.49
  18  -4 -18  151.32    7.07
  18  -4 -18  159.45    7.36
  18  -4 -19   -0.48    4.30
  18  -4 -19    3.54    3.73
  18  -4 -20   55.63    5.07
  18  -4 -20   57.26    4.88
  18  -4 -21    2.77    3.82
  18  -4 -21    5.45    4.01
  18  -4 -22   12.14    4.11
  18  -4 -22    4.59    4.49
  17  -3   4   27.53    4.49
  17  -3   4   19.98    4.01
  17  -3   3  110.31    5.93
  17  -3   3  129.05    6.69
  17  -3   2   63.00    4.97
  17  -3   2   60.70    4.88
  17  -3   1   88.81    5.16
  17  -3   1  104.00    5.93
  17  -3   0  173.79    7.74
  17  -3   0  170.35    7.84
  17  -3  -1  340.98   12.24
  17  -3  -1  339.55   12.14
  17  -3  -2   11.85    4.01
  17  -3  -2    8.22    3.73
  17  -3  -3   99.23    6.02
  17  -3  -3  102.28    6.02
  17  -3  -4  185.35    8.32
  17  -3  -4  198.74    8.32
  17  -3  -6  274.45   11.09
  17  -3  -6  263.17   10.32
  17  -3  -7  122.55    6.79
  17  -3  -7  128.48    6.98
  17  -3  -8   52.38    5.07
  17  -3  -8   61.94    5.26
  17  -3  -9    7.55    4.21
  17  -3  -9    6.88    4.11
  17  -3 -10  116.34    6.31
  17  -3 -10  105.34    6.50
  17  -3 -11  146.83    7.55
  17  -3 -11  124.08    6.69
  17  -3 -12   20.46    4.40
  17  -3 -12   24.09    4.30
  17  -3 -13  180.38    8.22
  17  -3 -13  171.11    7.93
  17  -3 -14   36.52    4.59
  17  -3 -14   48.85    4.78
  17  -3 -15  101.23    6.02
  17  -3 -15  105.63    5.93
  17  -3 -16  396.61   13.96
  17  -3 -16  387.82   13.86
  17  -3 -17   93.30    5.64
  17  -3 -17   86.89    5.35
  17  -3 -18   30.59    4.68
  17  -3 -18   21.80    3.92
  17  -3 -19  117.01    6.31
  17  -3 -19  113.66    6.12
  17  -3 -20    6.69    3.82
  17  -3 -20    5.93    3.92
  17  -3 -21  103.24    5.83
  17  -3 -21  122.93    6.40
  17  -3 -22    0.67    3.63
  17  -3 -22    1.15    3.73
  16  -2   8    4.11    5.07
  16  -2   8    1.53    5.35
  16  -2   6   13.00    4.30
  16  -2   6   15.68    4.40
  16  -2   5  157.92    7.17
  16  -2   5  168.91    7.46
  16  -2   4   22.37    4.01
  16  -2   4   28.39    4.01
  16  -2   3  241.37    9.18
  16  -2   3  252.65    9.56
  16  -2   2   59.75    4.49
  16  -2   2   48.56    4.59
  16  -2   1   91.48    5.45
  16  -2   1   93.59    5.54
  16  -2   0  181.44    7.74
  16  -2   0  177.23    7.93
  16  -2  -1  344.23   12.33
  16  -2  -1  334.00   12.33
  16  -2  -2    6.50    4.01
  16  -2  -2    2.87    3.63
  16  -2  -3  413.15   14.91
  16  -2  -3  409.90   14.43
  16  -2  -4    2.58    3.82
  16  -2  -4   -1.82    4.30
  16  -2  -5   40.72    4.59
  16  -2  -5   31.74    4.49
  16  -2  -6    8.60    3.82
  16  -2  -6    6.12    4.30
  16  -2  -7   16.92    4.11
  16  -2  -7   14.53    4.21
  16  -2  -8   70.64    5.45
  16  -2  -8   76.67    5.74
  16  -2  -9  414.49   14.63
  16  -2  -9  411.62   14.63
  16  -2 -10    2.49    4.11
  16  -2 -10    2.20    3.82
  16  -2 -11  111.17    6.50
  16  -2 -11   98.84    6.21
  16  -2 -12   27.72    4.49
  16  -2 -12   24.66    4.40
  16  -2 -13  171.02    7.93
  16  -2 -13  169.20    7.93
  16  -2 -14    3.82    3.82
  16  -2 -14    6.21    3.82
  16  -2 -15  251.50    9.94
  16  -2 -15  271.01   10.61
  16  -2 -16   79.06    5.07
  16  -2 -16   66.44    5.26
  16  -2 -17  255.61    9.94
  16  -2 -17  280.47   10.71
  16  -2 -18   -1.15    3.44
  16  -2 -18    4.01    3.82
  16  -2 -19    3.63    3.54
  16  -2 -19    2.10    4.01
  16  -2 -20   46.46    4.49
  16  -2 -20   45.88    4.68
  16  -2 -21  249.69    9.75
  16  -2 -21  245.58    9.56
  16  -2 -22   29.35    4.21
  16  -2 -22   23.13    4.11
  16  -2 -23  128.00    6.60
  16  -2 -23  124.84    6.60
  15  -1   9    7.93    3.44
  15  -1   9   16.73    3.92
  15  -1   8   90.91    5.54
  15  -1   8   89.67    5.16
  15  -1   7   18.74    3.73
  15  -1   7   14.24    4.30
  15  -1   6   99.89    5.26
  15  -1   6   87.18    5.26
  15  -1   5   10.32    3.82
  15  -1   5    3.25    3.54
  15  -1   4   96.93    5.45
  15  -1   4  111.08    5.64
  15  -1   3  440.01   14.72
  15  -1   3  413.82   14.05
  15  -1   2   10.90    3.44
  15  -1   2    7.27    3.63
  15  -1   1   34.60    4.30
  15  -1   1   28.68    3.44
  15  -1   0  286.40   10.80
  15  -1   0  307.33   11.57
  15  -1  -1   22.85    3.92
  15  -1  -1   18.07    3.73
  15  -1  -2  333.81   12.43
  15  -1  -2  312.68   11.76
  15  -1  -3  156.77    7.36
  15  -1  -3  137.94    7.17
  15  -1  -4  104.67    5.83
  15  -1  -4   96.74    5.93
  15  -1  -5   94.16    5.93
  15  -1  -5   89.38    5.64
  15  -1  -6   20.46    4.11
  15  -1  -6    7.17    3.92
  15  -1  -7   63.95    5.26
  15  -1  -7   65.39    5.07
  15  -1  -8  225.41    9.37
  15  -1  -8  244.81   10.04
  15  -1  -9   46.08    4.59
  15  -1  -9   47.70    4.88
  15  -1 -10  100.18    6.12
  15  -1 -10  102.38    6.02
  15  -1 -11  159.45    7.65
  15  -1 -11  163.94    7.74
  15  -1 -12   27.63    4.21
  15  -1 -12   34.22    4.59
  15  -1 -13  625.94   20.74
  15  -1 -13  591.24   19.69
  15  -1 -14  156.10    7.55
  15  -1 -14  142.91    7.17
  15  -1 -15   51.05    4.68
  15  -1 -15   49.90    4.78
  15  -1 -16  191.85    8.22
  15  -1 -16  189.18    8.32
  15  -1 -17   66.72    4.97
  15  -1 -17   58.89    4.97
  15  -1 -18   59.36    4.78
  15  -1 -18   58.12    4.59
  15  -1 -19  273.30   10.52
  15  -1 -19  292.23   10.90
  15  -1 -20  199.41    8.41
  15  -1 -20  196.16    8.13
  15  -1 -21   19.79    3.82
  15  -1 -21   21.13    3.82
  15  -1 -22  198.83    8.32
  15  -1 -22  197.02    8.22
  15  -1 -23    3.15    4.01
  15  -1 -23   15.87    4.49
  14   0   8   23.13    3.25
  14   0   8   16.25    3.06
  14   0   7   -1.63    2.96
  14   0   7   -2.96    2.87
  14   0   6    7.74    3.15
  14   0   6    5.07    3.15
  14   0   5   -0.57    2.87
  14   0   5    1.82    3.15
  14   0   4  348.05   11.95
  14   0   4  359.81   12.33
  14   0   3    1.63    3.44
  14   0   3   -1.05    3.06
  14   0   2  660.55   21.03
  14   0   2  731.00   23.13
  14   0   1    1.24    3.63
  14   0   1   -0.67    3.44
  14   0   0  103.91    5.54
  14   0   0  102.28    5.54
  14   0  -1   -0.96    3.15
  14   0  -1    3.15    3.54
  14   0  -2  275.50   10.42
  14   0  -2  288.59   10.99
  14   0  -3   -1.43    3.06
  14   0  -3    4.11    3.15
  14   0  -4 1323.96   40.53
  14   0  -4 1293.37   39.86
  14   0  -5    0.00    3.35
  14   0  -5    0.19    3.35
  14   0  -6 1769.42   53.82
  14   0  -6 1717.80   52.38
  14   0  -7    2.01    3.44
  14   0  -7    3.54    3.73
  14   0  -8   46.27    4.40
  14   0  -8   56.30    5.07
  14   0  -9   -3.15    3.44
  14   0  -9   -9.46    3.63
  14   0 -10  237.93    9.75
  14   0 -10  228.47    9.65
  14   0 -11   -4.88    3.73
  14   0 -11   -6.88    3.54
  14   0 -12  437.62   15.39
  14   0 -12  450.15   15.68
  14   0 -13   -1.82    3.54
  14   0 -13    9.75    3.92
  14   0 -14  676.89   22.18
  14   0 -14  687.89   22.46
  14   0 -15    3.15    3.54
  14   0 -15   -3.35    3.63
  14   0 -16   19.31    3.73
  14   0 -16   13.86    4.21
  14   0 -17   -2.77    3.35
  14   0 -17   -2.58    3.44
  14   0 -18  418.22   14.53
  14   0 -18  412.87   14.34
  14   0 -19    0.29    3.25
  14   0 -19    4.97    3.82
  14   0 -20  223.78    8.79
  14   0 -20  226.17    8.99
  14   0 -21   -1.24    3.44
  14   0 -21    4.01    3.63
  14   0 -22   56.78    4.68
  14   0 -22   63.00    5.16
  14   0 -23    5.74    3.73
  14   0 -23   -2.58    4.11
  13   1   8  272.34    8.89
  13   1   8  264.60    8.60
  13   1   7    4.78    2.68
  13   1   7    6.31    2.58
  13   1   6  629.48   19.79
  13   1   6  617.53   19.41
  13   1   5   22.94    3.25
  13   1   5   22.18    3.15
  13   1   4    0.57    2.87
  13   1   4   -1.72    3.06
  13   1   3  874.77   27.24
  13   1   3  890.64   27.63
  13   1   1   -0.38    3.35
  13   1   1    6.21    3.44
  13   1   0  718.76   22.94
  13   1   0  715.32   22.66
  13   1  -1    6.12    3.54
  13   1  -1    5.45    3.35
  13   1  -2  189.08    8.13
  13   1  -2  195.77    8.22
  13   1  -3 1014.24   31.55
  13   1  -3 1038.14   32.60
  13   1  -4   -1.91    3.35
  13   1  -4   -1.43    3.06
  13   1  -5  233.63    9.65
  13   1  -5  238.60    9.65
  13   1  -6  631.68   20.65
  13   1  -6  614.18   20.27
  13   1  -7    4.59    3.63
  13   1  -7   11.38    3.82
  13   1  -8  235.25    9.46
  13   1  -8  224.74    9.27
  13   1  -9   29.25    4.11
  13   1  -9   34.89    4.30
  13   1 -10  144.15    7.07
  13   1 -10  153.14    7.36
  13   1 -11  162.32    7.46
  13   1 -11  174.65    8.03
  13   1 -12    9.75    3.73
  13   1 -12   12.81    4.01
  13   1 -13  458.94   15.77
  13   1 -13  466.40   16.06
  13   1 -14  919.32   29.06
  13   1 -14  909.18   28.77
  13   1 -15   21.32    3.82
  13   1 -15   22.66    3.82
  13   1 -16  175.32    7.74
  13   1 -16  186.31    8.13
  13   1 -17  104.77    5.93
  13   1 -17   90.24    5.54
  13   1 -18   -1.91    3.25
  13   1 -18   -0.38    3.54
  13   1 -19  109.17    5.93
  13   1 -19  110.31    5.93
  13   1 -20  223.50    8.89
  13   1 -20  228.56    8.99
  13   1 -21    1.05    4.01
  13   1 -21    4.88    3.92
  13   1 -22  164.99    7.65
  13   1 -22  166.62    7.74
  13   1 -23   -0.48    4.01
  13   1 -23    0.96    3.92
  12   2   7  733.01   22.37
  12   2   7  762.83   23.32
  12   2   6  423.00   13.57
  12   2   6  416.69   13.38
  12   2   5   92.44    4.30
  12   2   5   91.58    4.40
  12   2   4   32.79    3.35
  12   2   4   33.65    3.44
  12   2   3   82.21    4.30
  12   2   3   78.86    4.49
  12   2   2  114.90    5.74
  12   2   2  112.70    5.45
  12   2   1 1062.99   32.60
  12   2   1 1122.26   34.51
  12   2   0  148.65    6.50
  12   2   0  141.38    6.40
  12   2  -1 1188.22   36.80
  12   2  -1 1142.33   35.37
  12   2  -2    0.76    3.15
  12   2  -2    1.34    2.96
  12   2  -3   60.89    4.21
  12   2  -3   67.01    4.97
  12   2  -4   69.88    4.88
  12   2  -4   69.88    4.88
  12   2  -5  831.37   26.38
  12   2  -5  787.02   25.14
  12   2  -6  181.44    7.65
  12   2  -6  164.90    7.46
  12   2  -7  687.22   22.75
  12   2  -7  624.51   20.74
  12   2  -9  271.10   10.42
  12   2  -9  237.74    9.56
  12   2 -10    2.87    3.44
  12   2 -10    2.68    3.54
  12   2 -11  204.47    8.70
  12   2 -11  203.33    8.60
  12   2 -12  120.54    6.40
  12   2 -12  122.07    6.60
  12   2 -13  699.26   22.75
  12   2 -13  701.94   22.75
  12   2 -14   10.71    3.44
  12   2 -14    4.40    3.63
  12   2 -15  293.76   11.09
  12   2 -15  292.90   10.99
  12   2 -16   37.09    4.11
  12   2 -16   43.40    4.21
  12   2 -17   20.17    3.63
  12   2 -17   12.04    3.44
  12   2 -18   37.38    4.01
  12   2 -18   39.10    4.01
  12   2 -19  260.39   10.13
  12   2 -19  250.84    9.75
  12   2 -20    3.44    3.54
  12   2 -20   -3.73    3.54
  12   2 -21  142.34    6.69
  12   2 -21  167.57    7.55
  12   2 -22    2.58    3.73
  12   2 -22    3.25    3.82
  12   2 -23    0.19    4.11
  12   2 -23    4.21    4.21
  11   3   6  214.89    7.27
  11   3   6  219.19    7.36
  11   3   5  417.93   13.67
  11   3   5  382.85   12.33
  11   3   4   23.90    2.77
  11   3   4   19.41    2.96
  11   3   3  262.21    9.56
  11   3   3  249.88    8.99
  11   3   2  124.56    5.64
  11   3   2  111.84    5.26
  11   3   1    3.15    2.68
  11   3   1   -2.20    2.68
  11   3   0  229.33    8.51
  11   3   0  224.83    8.79
  11   3  -1  711.21   22.85
  11   3  -1  706.33   22.66
  11   3  -2  985.56   30.59
  11   3  -2  966.44   30.02
  11   3  -3 1831.56   55.44
  11   3  -3 1908.03   57.74
  11   3  -4   92.63    5.64
  11   3  -4  101.62    5.74
  11   3  -5   41.20    3.82
  11   3  -5   40.82    4.40
  11   3  -6  395.37   13.86
 -11  -3   6  403.11   14.15
  11   3  -7   27.05    4.11
 -11  -3   7   24.57    3.92
  11   3  -8  212.69    8.89
 -11  -3   8  210.88    8.89
  11   3  -9  448.04   15.49
 -11  -3   9  456.26   15.58
  11   3 -10   13.38    3.35
 -11  -3  10   19.02    3.82
  11   3 -11  880.41   28.01
 -11  -3  11  856.70   27.05
  11   3 -12   38.05    4.30
 -11  -3  12   41.58    4.49
  11   3 -13   45.31    4.30
 -11  -3  13   55.35    4.88
  11   3 -14    2.39    3.25
 -11  -3  14   -1.53    3.25
  11   3 -15  100.18    6.02
 -11  -3  15  107.73    5.83
  11   3 -16  101.42    5.83
 -11  -3  16  100.09    5.93
  11   3 -17  361.05   12.81
 -11  -3  17  327.60   11.47
  11   3 -18   18.93    3.63
  11   3 -19   86.51    5.16
  11   3 -19   89.47    5.45
  11   3 -20  101.33    5.64
  11   3 -20   99.99    5.74
  11   3 -21  122.84    6.31
  11   3 -21  104.10    5.83
  11   3 -22    3.82    3.92
  11   3 -22    4.30    3.63
  11   3 -23   73.13    5.16
  11   3 -23   59.17    5.07
  10   4   6   91.20    3.63
  10   4   6   91.39    3.54
  10   4   5   61.85    3.06
  10   4   5   56.97    3.06
  10   4   4  255.33    8.70
  10   4   4  257.34    8.89
  10   4   3   98.56    4.49
  10   4   3  102.09    4.88
  10   4   2  305.61   10.32
  10   4   2  302.55   10.13
  10   4   1  566.39   17.97
  10   4   1  542.01   17.59
  10   4   0  228.85    8.51
  10   4   0  216.90    8.41
  10   4  -1   46.65    4.01
  10   4  -1   49.23    3.63
  10   4  -2  130.01    6.12
 -10  -4   2  142.43    6.40
  10   4  -3  303.22   10.99
 -10  -4   3  299.01   10.90
  10   4  -4 1659.49   50.57
 -10  -4   4 1492.20   45.50
  10   4  -5   76.95    5.07
 -10  -4   5   80.39    5.07
  10   4  -6  507.12   17.11
 -10  -4   6  477.29   16.25
  10   4  -7 1263.74   39.19
 -10  -4   7 1262.78   38.91
  10   4  -8 2938.52   88.04
 -10  -4   8 3187.06   95.21
  10   4  -9  126.85    6.50
 -10  -4   9  107.06    6.02
  10   4 -10 1780.89   54.20
 -10  -4  10 1743.61   53.25
  10   4 -11  277.51   10.61
 -10  -4  11  268.04   10.13
  10   4 -12   92.25    5.54
 -10  -4  12  108.12    6.21
  10   4 -13   45.41    4.30
 -10  -4  13   51.43    4.49
  10   4 -14    2.87    3.44
 -10  -4  14   16.06    3.54
  10   4 -15   -1.34    3.25
 -10  -4  15    4.68    3.25
  10   4 -16  787.40   25.14
 -10  -4  16  783.48   25.14
  10   4 -17   26.38    3.92
 -10  -4  17   35.37    4.01
  10   4 -18   94.83    5.35
 -10  -4  18   92.53    4.97
  10   4 -19    1.53    3.63
 -10  -4  19    4.59    3.25
  10   4 -20   50.86    4.49
 -10  -4  20   43.59    3.92
  10   4 -21  119.97    6.31
  10   4 -21  129.15    6.31
  10   4 -22  103.05    5.74
  10   4 -22   97.12    5.83
  10   4 -23    3.63    4.11
  10   4 -23    0.86    4.30
   9   5   6  436.95   13.57
   9   5   6  458.75   14.34
   9   5   5   36.52    2.39
   9   5   5   32.21    2.49
   9   5   4    6.40    2.29
   9   5   4   10.04    2.10
   9   5   3  524.71   16.54
   9   5   3  534.17   17.02
   9   5   2  917.98   28.01
   9   5   2  948.38   28.96
   9   5   1  309.82   10.90
   9   5   1  295.38   10.32
   9   5   0  747.25   23.42
  -9  -5   0  768.09   24.18
   9   5  -1  796.00   25.05
  -9  -5   1  782.43   24.57
   9   5  -2    2.87    2.87
  -9  -5   2    4.68    2.87
   9   5  -3   68.16    4.59
  -9  -5   3   64.53    4.59
   9   5  -4   29.63    3.63
  -9  -5   4   24.09    3.63
   9   5  -5  303.98   11.38
  -9  -5   5  291.65   10.99
   9   5  -6 4675.44  138.71
  -9  -5   6 4655.37  137.94
   9   5  -7  403.78   14.24
  -9  -5   7  385.62   13.57
   9   5  -8 3628.70  108.12
  -9  -5   8 3774.00  112.23
   9   5  -9  166.90    7.55
  -9  -5   9  169.49    7.84
   9   5 -10  761.40   24.47
  -9  -5  10  796.77   25.62
   9   5 -11  195.77    8.22
  -9  -5  11  183.73    7.93
   9   5 -12    6.12    3.25
  -9  -5  12    9.85    4.01
   9   5 -13    5.16    3.63
  -9  -5  13   -2.20    3.54
   9   5 -14 1298.15   39.96
  -9  -5  14 1276.16   39.29
   9   5 -15  424.34   14.72
  -9  -5  15  422.90   14.91
   9   5 -16   91.00    5.35
  -9  -5  16   78.77    4.88
   9   5 -17  102.09    5.54
  -9  -5  17   85.36    5.26
   9   5 -18   31.93    3.82
  -9  -5  18   31.93    3.63
   9   5 -19   -2.20    3.25
  -9  -5  19    7.84    3.35
   9   5 -20  291.75   10.71
  -9  -5  20  294.04   10.71
   9   5 -21    2.49    3.82
  -9  -5  21    2.29    3.54
   9   5 -22   11.95    3.54
   9   5 -22   13.00    4.21
   8   6   5  642.77   19.69
   8   6   5  615.81   18.93
   8   6   4  476.82   15.10
   8   6   4  484.75   15.10
   8   6   3  866.36   26.48
   8   6   3  869.51   26.86
   8   6   2    7.17    2.39
  -8  -6  -2   11.38    2.49
   8   6   1  439.54   14.63
  -8  -6  -1  422.23   13.96
   8   6   0   30.02    3.15
  -8  -6   0   27.91    3.35
   8   6  -1 1398.52   42.63
  -8  -6   1 1373.67   41.87
   8   6  -2  745.53   23.61
  -8  -6   2  759.10   23.99
   8   6  -3  432.08   14.72
  -8  -6   3  429.02   14.63
   8   6  -4  356.47   12.52
  -8  -6   4  362.20   12.91
   8   6  -5  598.41   19.69
  -8  -6   5  598.12   19.79
   8   6  -6  235.73    9.37
  -8  -6   6  231.53    9.18
   8   6  -7 2379.30   71.60
  -8  -6   7 2377.39   71.50
   8   6  -8  995.12   31.35
  -8  -6   8  997.99   31.26
   8   6  -9   88.61    5.54
  -8  -6   9  100.66    6.12
   8   6 -10  237.83    9.46
  -8  -6  10  265.27   10.32
   8   6 -11  100.66    5.64
  -8  -6  11  104.10    5.93
   8   6 -12  592.58   19.50
  -8  -6  12  584.26   19.69
   8   6 -13 1927.15   58.41
  -8  -6  13 1971.12   59.55
   8   6 -14   19.98    3.54
  -8  -6  14   16.25    3.44
   8   6 -15   37.66    4.21
  -8  -6  15   36.61    4.30
   8   6 -16  280.37   10.42
  -8  -6  16  257.72    9.65
   8   6 -17    5.83    3.35
  -8  -6  17    1.24    2.96
   8   6 -18  287.07   10.71
  -8  -6  18  317.85   11.47
   8   6 -19   81.45    5.16
  -8  -6  19   64.62    4.78
   8   6 -20   17.88    3.92
  -8  -6  20   11.95    3.25
   8   6 -21   71.79    5.26
  -8  -6  21   67.97    4.88
   8   6 -22   -1.91    4.11
  -8  -6  22    7.84    4.21
   7   7   6  169.10    5.54
   7   7   6  173.60    5.74
   7   7   5 1049.61   31.74
   7   7   5 1027.62   31.07
   7   7   4   12.43    2.10
  -7  -7  -4    8.89    2.20
   7   7   3   30.78    2.96
  -7  -7  -3   36.04    3.06
   7   7   2  152.09    6.02
  -7  -7  -2  152.37    6.31
   7   7   1   18.07    3.15
  -7  -7  -1   14.34    2.96
   7   7   0   33.55    3.35
  -7  -7   0   29.73    3.35
   7   7  -1  647.55   20.84
  -7  -7   1  648.21   20.84
   7   7  -2   68.44    4.40
  -7  -7   2   63.86    4.49
   7   7  -3  991.30   30.88
  -7  -7   3  914.73   28.68
   7   7  -4   52.38    4.40
  -7  -7   4   53.72    4.49
   7   7  -5   49.61    4.49
  -7  -7   5   50.19    4.59
   7   7  -6    5.26    3.54
  -7  -7   6    8.60    3.73
   7   7  -7  687.69   22.46
  -7  -7   7  799.54   25.62
   7   7  -8  155.82    7.27
  -7  -7   8  175.13    7.84
   7   7  -9 1403.30   43.21
  -7  -7   9 1315.36   40.82
   7   7 -10   -8.22    3.54
  -7  -7  10    9.18    3.54
   7   7 -11  726.89   23.52
  -7  -7  11  730.71   23.80
   7   7 -12   17.88    3.73
  -7  -7  12   17.11    3.82
   7   7 -13  298.06   10.99
  -7  -7  13  300.93   11.09
   7   7 -14  442.69   15.20
  -7  -7  14  466.87   16.16
   7   7 -15  246.82    9.56
  -7  -7  15  220.72    8.89
   7   7 -16   25.62    3.82
  -7  -7  16   21.89    3.73
   7   7 -17  491.06   16.54
  -7  -7  17  488.29   15.96
   7   7 -18   36.90    4.21
  -7  -7  18   38.24    3.92
   7   7 -19   49.71    4.49
  -7  -7  19   57.07    4.68
   7   7 -20   82.40    5.35
  -7  -7  20   81.25    5.07
   7   7 -21   37.28    4.68
  -7  -7  21   32.60    4.01
  -6  -8  -6  967.40   29.44
   6   8   5    3.73    1.91
  -6  -8  -5    3.63    2.01
   6   8   4  982.69   30.11
  -6  -8  -4  966.44   29.44
   6   8   3    1.72    2.20
  -6  -8  -3    4.49    2.49
   6   8   2   32.88    3.35
  -6  -8  -2   44.64    3.54
   6   8   1  524.33   16.92
  -6  -8  -1  519.16   16.92
   6   8   0    3.25    3.06
  -6  -8   0    5.26    2.87
   6   8  -1   39.67    3.82
  -6  -8   1   46.36    4.01
   6   8  -2 1261.82   38.72
  -6  -8   2 1272.34   39.10
   6   8  -3  669.53   21.51
  -6  -8   3  673.64   21.80
   6   8  -4  219.67    8.99
  -6  -8   4  230.67    9.27
   6   8  -5   26.38    3.92
  -6  -8   5   32.12    4.11
   6   8  -6   36.61    4.21
  -6  -8   6   29.44    4.11
   6   8  -7  222.73    9.08
  -6  -8   7  230.86    9.27
   6   8  -8  796.77   25.52
  -6  -8   8  819.90   26.29
   6   8  -9    6.79    3.54
  -6  -8   9    3.82    3.06
   6   8 -10  177.99    7.84
  -6  -8  10  159.35    7.17
   6   8 -11 1021.89   31.93
  -6  -8  11 1135.64   35.66
   6   8 -12   55.35    4.49
  -6  -8  12   65.48    4.88
   6   8 -13  191.19    8.13
  -6  -8  13  183.63    7.74
   6   8 -14   64.05    4.97
  -6  -8  14   60.70    4.97
   6   8 -15    3.82    3.63
  -6  -8  15   -0.19    3.06
   6   8 -16  185.26    7.93
  -6  -8  16  169.39    7.46
   6   8 -17  115.19    6.21
  -6  -8  17  110.60    6.02
   6   8 -18  110.31    5.93
  -6  -8  18  114.14    5.83
   6   8 -19  101.14    5.74
  -6  -8  19   89.76    5.35
   6   8 -20    3.15    3.92
  -6  -8  20    2.96    3.73
   6   8 -21  159.45    7.55
  -6  -8  21  175.60    7.93
   5   9   7   41.49    2.29
  -5  -9  -7   43.88    2.49
   5   9   6  172.64    6.21
  -5  -9  -6  184.11    6.69
   5   9   5   80.30    3.92
  -5  -9  -5   68.92    3.63
   5   9   4  317.75   10.80
  -5  -9  -4  311.54   10.61
   5   9   3  194.91    7.46
  -5  -9  -3  180.38    7.07
   5   9   2 1626.03   49.04
  -5  -9  -2 1686.26   50.95
   5   9   1  244.14    9.18
  -5  -9  -1  246.06    9.18
   5   9   0  114.33    5.74
  -5  -9   0  106.01    5.35
   5   9  -1    5.07    3.25
  -5  -9   1    7.46    3.06
   5   9  -2  303.70   11.09
  -5  -9   2  308.57   11.28
   5   9  -3   67.11    4.78
  -5  -9   3   63.38    4.59
   5   9  -4 1733.10   52.67
  -5  -9   4 1766.55   53.72
   5   9  -5  576.90   19.21
  -5  -9   5  589.14   19.50
   5   9  -6  728.70   23.52
  -5  -9   6  696.39   22.75
   5   9  -7  559.22   18.64
  -5  -9   7  541.44   18.16
   5   9  -8  209.92    8.79
  -5  -9   8  215.66    9.08
   5   9  -9   61.75    4.88
  -5  -9   9   62.80    4.68
   5   9 -10  576.33   19.12
  -5  -9  10  593.92   19.79
   5   9 -11   62.80    4.59
  -5  -9  11   71.22    5.07
   5   9 -12  132.01    6.60
  -5  -9  12  131.15    6.31
   5   9 -13  245.58    9.65
  -5  -9  13  246.06    9.94
   5   9 -14  857.75   27.24
  -5  -9  14  791.60   25.05
   5   9 -15   44.07    4.21
  -5  -9  15   18.74    3.82
   5   9 -16    8.51    3.54
  -5  -9  16    2.87    2.96
   5   9 -17    6.60    3.35
  -5  -9  17    0.57    3.25
   5   9 -18  277.41   10.52
  -5  -9  18  262.21    9.85
   5   9 -19   56.69    4.97
  -5  -9  19   43.11    4.49
   5   9 -20   69.88    5.07
  -5  -9  20   72.27    5.35
   4  10   8   83.55    3.44
  -4 -10  -8   95.98    3.92
   4  10   7  115.67    4.68
  -4 -10  -7  144.54    5.54
   4  10   6  589.52   18.45
  -4 -10  -6  573.27   18.07
   4  10   5  297.39   10.32
  -4 -10  -5  296.24   10.23
   4  10   4 1075.42   32.88
  -4 -10  -4 1055.34   32.41
   4  10   3  134.02    5.93
  -4 -10  -3  127.71    5.83
   4  10   2   44.45    3.73
  -4 -10  -2   44.36    3.73
   4  10   1  332.95   11.85
  -4 -10  -1  325.88   11.57
   4  10   0  368.41   12.71
  -4 -10   0  368.41   13.00
   4  10  -1   18.07    3.73
  -4 -10   1   21.32    3.63
   4  10  -2  602.90   19.69
  -4 -10   2  628.52   20.55
   4  10  -3  462.00   15.77
  -4 -10   3  473.66   16.25
   4  10  -4   71.03    5.35
  -4 -10   4   74.37    5.26
   4  10  -5  166.62    7.65
  -4 -10   5  179.71    8.03
   4  10  -6   41.77    4.30
  -4 -10   6   31.83    4.11
   4  10  -7  209.63    8.79
  -4 -10   7  200.94    8.60
   4  10  -8  227.32    9.46
  -4 -10   8  238.98    9.75
   4  10  -9   41.30    4.59
  -4 -10   9   44.64    4.30
   4  10 -10    5.07    3.44
  -4 -10  10    4.01    3.73
   4  10 -11  409.81   14.34
  -4 -10  11  400.34   14.24
   4  10 -12    3.63    3.44
  -4 -10  12    7.65    3.35
   4  10 -13  277.31   10.61
  -4 -10  13  293.57   11.18
   4  10 -14   58.60    4.68
  -4 -10  14   69.78    4.59
   4  10 -15   41.68    4.11
  -4 -10  15   52.29    4.40
   4  10 -16  122.07    6.40
  -4 -10  16  127.71    6.21
   4  10 -17  184.21    7.74
  -4 -10  17  197.78    8.13
   4  10 -18   86.70    5.45
  -4 -10  18   82.11    5.45
   4  10 -19    5.83    3.82
  -4 -10  19    4.88    3.82
   3  11   9   85.94    3.73
  -3 -11  -9   86.99    3.73
   3  11   8    9.08    2.29
  -3 -11  -8    5.16    2.20
   3  11   7  481.79   15.49
  -3 -11  -7  475.10   15.29
   3  11   6   26.77    2.96
  -3 -11  -6   23.99    3.25
   3  11   5 1557.21   46.94
  -3 -11  -5 1679.56   50.66
   3  11   4  526.33   17.21
  -3 -11  -4  497.94   16.25
   3  11   3   12.14    2.87
  -3 -11  -3   14.91    3.06
   3  11   2  118.82    5.93
  -3 -11  -2  138.99    6.40
   3  11   1  651.08   20.93
  -3 -11  -1  631.77   20.55
   3  11   0  194.24    8.22
  -3 -11   0  215.08    8.70
   3  11  -1 2626.89   78.67
  -3 -11   1 2652.70   79.53
   3  11  -2    0.29    3.44
  -3 -11   2   -5.26    3.25
   3  11  -3  214.32    8.99
  -3 -11   3  219.96    9.08
   3  11  -4   12.04    3.73
  -3 -11   4   12.62    3.92
   3  11  -5  191.76    8.32
  -3 -11   5  196.54    8.70
   3  11  -6    7.17    3.73
  -3 -11   6   15.49    4.01
   3  11  -7  474.62   16.25
  -3 -11   7  459.32   16.06
   3  11  -8   29.92    4.01
  -3 -11   8   31.93    4.49
   3  11  -9  404.64   14.15
  -3 -11   9  402.83   14.15
   3  11 -10   -2.29    3.44
  -3 -11  10    1.15    3.73
   3  11 -11   33.94    4.30
  -3 -11  11   49.33    4.21
   3  11 -12   11.95    3.63
  -3 -11  12   27.24    4.21
   3  11 -13  164.23    7.55
  -3 -11  13  186.79    7.93
   3  11 -14    3.63    3.44
  -3 -11  14    0.96    3.35
   3  11 -15  204.47    8.51
  -3 -11  15  202.66    8.22
   3  11 -16   15.20    3.82
  -3 -11  16   11.28    3.54
   3  11 -17   92.63    5.54
  -3 -11  17   92.34    5.45
   3  11 -18    2.87    3.92
  -3 -11  18   -3.73    3.25
   3  11 -19    0.10    4.11
  -3 -11  19    0.00    4.01
   2  12  10    8.99    2.10
  -2 -12 -10  108.40    4.40
   2  12   9   81.45    4.11
  -2 -12  -9   80.87    4.11
   2  12   8    2.87    2.58
  -2 -12  -8    0.48    2.58
   2  12   7  103.81    4.88
  -2 -12  -7   99.51    5.16
   2  12   6  118.15    5.74
  -2 -12  -6  118.73    5.74
   2  12   5  155.34    6.79
  -2 -12  -5  162.79    6.98
   2  12   4   88.52    4.97
  -2 -12  -4   77.62    4.97
   2  12   3 1316.31   40.34
  -2 -12  -3 1344.03   41.20
   2  12   2   35.27    3.82
  -2 -12  -2   41.30    4.11
   2  12   1  513.91   17.11
  -2 -12  -1  557.69   18.54
   2  12   0  281.62   10.52
  -2 -12   0  299.78   11.18
   2  12  -1  150.18    6.98
  -2 -12   1  158.01    7.55
   2  12  -2  103.14    5.93
  -2 -12   2  120.54    6.40
   2  12  -3  968.35   30.59
  -2 -12   3  935.37   29.63
   2  12  -4    4.01    3.82
  -2 -12   4   13.00    3.73
   2  12  -5  525.09   17.78
  -2 -12   5  518.11   17.78
   2  12  -6    2.87    3.44
  -2 -12   6    1.63    3.44
   2  12  -7   -0.57    3.35
  -2 -12   7    4.49    3.92
   2  12  -8    9.27    3.63
  -2 -12   8    0.86    3.92
   2  12  -9  254.37    9.94
  -2 -12   9  244.62    9.75
   2  12 -10  250.45    9.94
  -2 -12  10  254.66   10.23
   2  12 -11  266.61   10.42
  -2 -12  11  287.07   10.71
   2  12 -12   29.16    4.21
  -2 -12  12   25.05    4.11
   2  12 -13   34.41    4.01
  -2 -12  13   50.28    4.21
   2  12 -14    4.49    3.44
  -2 -12  14   -3.44    3.82
   2  12 -15  108.78    6.02
  -2 -12  15   97.89    5.54
   2  12 -16   65.96    5.16
  -2 -12  16   63.38    4.68
   2  12 -17  108.31    6.12
  -2 -12  17  101.52    5.83
   2  12 -18   -2.29    3.92
  -2 -12  18   -2.10    4.01
  -1 -13 -12   81.45    3.35
  -1 -13 -12   85.56    3.44
   1  13  11    3.73    2.39
  -1 -13 -11    0.48    2.49
   1  13  10  158.01    6.31
  -1 -13 -10  151.23    6.12
   1  13   9   36.90    3.44
  -1 -13  -9   29.06    3.25
   1  13   8   41.01    3.73
  -1 -13  -8   26.96    3.35
   1  13   7   60.51    4.21
  -1 -13  -7   53.82    4.21
   1  13   6    2.68    3.06
  -1 -13  -6    4.21    3.35
   1  13   5  115.19    5.74
  -1 -13  -5  140.90    6.79
   1  13   4  561.70   18.54
  -1 -13  -4  550.61   18.26
   1  13   3  130.01    6.31
  -1 -13  -3  117.77    6.31
   1  13   2  207.82    8.60
  -1 -13  -2  199.69    8.51
   1  13   1  260.39    9.94
  -1 -13  -1  290.22   11.09
   1  13   0   46.17    4.49
  -1 -13   0   46.74    4.49
   1  13  -1   94.25    5.74
  -1 -13   1   79.63    5.54
   1  13  -2   44.64    4.49
  -1 -13   2   34.51    4.40
   1  13  -3   82.97    5.35
  -1 -13   3   98.17    5.83
   1  13  -4  274.35   10.71
  -1 -13   4  278.27   10.99
   1  13  -5   -3.54    3.25
  -1 -13   5   -7.07    3.63
   1  13  -6  228.94    9.27
  -1 -13   6  221.20    9.27
   1  13  -7  205.72    8.79
  -1 -13   7  208.01    9.08
   1  13  -8  105.34    6.02
  -1 -13   8  109.74    6.21
   1  13  -9    4.30    3.54
  -1 -13   9    1.63    3.82
   1  13 -10  155.34    7.17
  -1 -13  10  153.43    7.17
   1  13 -11   30.88    4.01
  -1 -13  11   32.02    4.01
   1  13 -12   92.25    5.35
  -1 -13  12   92.53    5.54
   1  13 -13  101.52    5.64
  -1 -13  13  106.49    5.83
   1  13 -14   -4.59    3.54
  -1 -13  14    9.37    3.73
   1  13 -15    7.74    3.73
  -1 -13  15   13.29    3.73
   1  13 -16    8.70    4.01
  -1 -13  16    4.11    3.54
   1  13 -17   10.61    4.88
  -1 -13  17    7.46    4.01
   0 -14 -13   30.88    2.77
   0 -14 -13   30.02    2.77
   0  14  12    1.15    2.77
   0 -14 -12   70.55    4.01
   0  14  11   33.27    3.54
   0 -14 -11   32.21    3.25
   0  14  10  214.32    8.13
   0 -14 -10  205.62    7.93
   0  14   9   -0.38    2.96
   0 -14  -9    7.36    3.15
   0  14   8  380.08   12.91
   0 -14  -8  352.26   12.33
   0  14   7    6.79    3.15
   0 -14  -7    5.35    3.44
   0  14   6  669.82   21.51
   0 -14  -6  637.32   20.65
   0  14   5   -0.96    3.35
   0 -14  -5   -1.34    3.54
   0  14   4   21.41    3.82
   0 -14  -4   16.92    3.82
   0  14   3    0.00    3.35
   0 -14  -3    2.39    3.82
   0  14   2  433.13   14.91
   0 -14  -2  414.78   14.72
   0  14   1    3.73    3.44
   0 -14  -1    5.93    3.92
   0  14   0   46.65    4.59
   0 -14   0   47.89    4.78
   0  14  -1    7.84    3.63
   0 -14   1    2.20    3.54
   0  14  -2  332.95   12.33
   0 -14   2  427.11   15.10
   0  14  -3    2.20    3.92
   0 -14   3    4.88    3.63
   0  14  -4   21.03    3.92
   0 -14   4   23.71    4.40
   0  14  -5    0.96    3.44
   0 -14   5    2.39    3.63
   0  14  -6  635.50   21.03
   0 -14   6  673.93   22.37
   0  14  -7    5.93    3.73
   0 -14   7    9.75    3.82
   0  14  -8  403.59   14.24
   0 -14   8  433.23   14.82
   0  14  -9    0.10    3.44
   0 -14   9   -4.49    3.92
   0  14 -10  227.99    9.08
   0 -14  10  245.48    9.65
   0  14 -11   33.84    4.40
   0 -14  11   49.90    4.88
   0  14 -12  103.34    6.02
   0 -14  12   84.03    4.97
   0  14 -13   50.19    4.68
   0 -14  13   45.02    4.40
   0  14 -14  234.30    9.27
   0 -14  14  220.15    8.79
   0  14 -15   -2.68    3.92
   0 -14  15    7.27    3.92
   1 -15 -14   -0.29    2.96
   1 -15 -14    4.30    3.15
  -1  15  13    6.02    3.44
   1 -15 -13   34.32    3.82
  -1  15  12   -0.86    3.15
   1 -15 -12   18.26    3.54
  -1  15  11   -1.05    3.06
   1 -15 -11    0.00    3.25
  -1  15  10   53.53    4.30
   1 -15 -10   45.98    4.21
  -1  15   9  445.46   15.01
   1 -15  -9  445.65   15.01
  -1  15   8   62.33    4.59
   1 -15  -8   42.83    4.30
  -1  15   7   98.27    5.64
   1 -15  -7   87.75    5.54
  -1  15   6  154.67    7.07
   1 -15  -6  141.09    6.98
  -1  15   5  121.40    6.02
   1 -15  -5  116.34    6.31
  -1  15   4  160.31    7.36
   1 -15  -4  193.67    8.41
  -1  15   3   91.39    5.64
   1 -15  -3  104.39    6.21
  -1  15   2   93.01    5.64
   1 -15  -2   99.23    6.12
  -1  15   1  767.71   24.85
   1 -15  -1  764.84   24.66
  -1  15   0  162.79    7.55
   1 -15   0  144.15    7.46
  -1  15  -1  664.94   21.89
   1 -15   1  633.21   20.74
  -1  15  -2  123.89    6.60
   1 -15   2  122.74    6.79
  -1  15  -3    4.11    3.73
   1 -15   3   -5.93    3.63
  -1  15  -4  237.45    9.65
   1 -15   4  229.80    9.75
  -1  15  -5  175.80    8.03
   1 -15   5  145.87    6.88
  -1  15  -6  160.31    7.36
   1 -15   6  162.41    7.65
  -1  15  -7  191.38    8.32
   1 -15   7  185.83    8.13
  -1  15  -8   33.74    4.21
   1 -15   8   24.85    4.01
  -1  15  -9  298.06   11.09
   1 -15   9  284.39   10.80
  -1  15 -10  171.02    7.65
   1 -15  10  172.26    7.55
  -1  15 -11   23.13    4.01
   1 -15  11   26.77    4.49
  -1  15 -12   37.57    4.30
   1 -15  12   48.18    4.40
  -1  15 -13  115.48    6.12
   1 -15  13  109.55    6.02
  -1  15 -14   -2.39    3.73
   1 -15  14    2.49    3.82
   2 -16 -14    0.10    4.11
  -2  16  13   -1.91    3.82
   2 -16 -13    6.69    3.73
  -2  16  12    5.26    4.11
   2 -16 -12   -0.29    3.44
  -2  16  11  462.10   15.58
   2 -16 -11  446.04   14.91
  -2  16  10   70.55    5.16
   2 -16 -10   56.78    4.59
  -2  16   9   93.11    5.26
   2 -16  -9   97.31    5.54
  -2  16   8   -0.86    3.44
   2 -16  -8   -6.79    3.35
  -2  16   7   54.30    4.40
   2 -16  -7   58.60    4.68
  -2  16   6   45.79    4.49
   2 -16  -6   47.51    4.78
  -2  16   5  304.27   11.38
   2 -16  -5  327.69   12.04
  -2  16   4    7.36    3.73
   2 -16  -4    6.02    4.01
  -2  16   3   89.28    5.54
   2 -16  -3   74.56    5.35
  -2  16   2  603.67   19.98
   2 -16  -2  599.08   19.88
  -2  16   1   99.80    5.93
   2 -16  -1   81.54    5.54
  -2  16   0  142.91    7.07
   2 -16   0  157.15    7.74
  -2  16  -1  231.62    9.37
   2 -16   1  223.11    9.27
  -2  16  -2    9.08    3.82
   2 -16   2    5.16    4.01
  -2  16  -3  297.29   11.38
   2 -16   3  300.73   11.28
  -2  16  -4   76.95    5.35
   2 -16   4   83.83    5.93
  -2  16  -5  154.38    7.17
   2 -16   5  145.30    6.79
  -2  16  -6   47.13    4.59
   2 -16   6   59.08    4.78
  -2  16  -7    9.37    3.73
   2 -16   7    8.60    4.01
  -2  16  -8   -0.57    3.54
   2 -16   8    6.12    3.44
  -2  16  -9  400.72   13.96
   2 -16   9  441.35   15.10
  -2  16 -10    0.29    3.35
   2 -16  10   -3.15    3.82
  -2  16 -11  362.77   12.71
   2 -16  11  381.70   13.29
  -2  16 -12   12.04    4.21
   2 -16  12   18.45    3.92
  -2  16 -13    7.27    4.21
   2 -16  13    6.60    3.92
  -3  17  14   -3.15    4.88
   3 -17 -14   -1.72    5.07
  -3  17  13   33.17    5.26
   3 -17 -13   76.47    5.64
  -3  17  12  113.56    6.31
   3 -17 -12   97.98    6.02
  -3  17  11    3.63    3.82
   3 -17 -11    4.88    3.82
  -3  17  10  115.28    6.31
   3 -17 -10  111.84    6.02
  -3  17   9   77.24    4.97
   3 -17  -9   87.28    5.54
  -3  17   8    3.15    3.54
   3 -17  -8    6.40    3.92
  -3  17   7   49.42    4.49
   3 -17  -7   46.17    4.68
  -3  17   6  110.31    5.83
   3 -17  -6  112.51    6.12
  -3  17   5   24.95    3.82
   3 -17  -5   21.80    4.40
  -3  17   4  184.69    8.13
   3 -17  -4  188.80    8.41
  -3  17   3   29.92    4.49
   3 -17  -3   34.32    4.40
  -3  17   2  192.24    8.32
   3 -17  -2  199.22    8.51
  -3  17   1  444.79   15.29
   3 -17  -1  425.87   14.91
  -3  17   0   24.66    3.92
   3 -17   0   20.07    4.21
  -3  17  -1   21.70    3.73
   3 -17   1   24.76    4.40
  -3  17  -2  102.67    6.02
   3 -17   2  100.56    6.21
  -3  17  -3  107.45    6.12
   3 -17   3  114.52    6.21
  -3  17  -4  102.57    6.02
   3 -17   4  100.75    6.12
  -3  17  -5    3.82    3.54
   3 -17   5    5.45    3.82
  -3  17  -6   78.00    5.26
   3 -17   6   69.30    4.78
  -3  17  -7  348.91   12.52
   3 -17   7  366.79   13.10
  -3  17  -8   79.53    5.16
   3 -17   8   77.72    5.26
  -3  17  -9    0.48    3.63
   3 -17   9    1.34    3.54
  -3  17 -10  188.32    7.84
   3 -17  10  189.85    7.84
  -3  17 -11   32.98    4.59
   3 -17  11   34.03    4.40
  -4  18  13   -0.10    5.26
   4 -18 -13   -3.44    4.78
  -4  18  12   13.77    4.68
   4 -18 -12    6.60    4.40
  -4  18  11    9.56    4.30
   4 -18 -11    8.13    4.11
  -4  18  10  134.40    6.69
   4 -18 -10  130.39    6.79
  -4  18   9   52.00    4.68
   4 -18  -9   52.00    4.59
  -4  18   8  265.75   10.32
   4 -18  -8  276.17   10.32
  -4  18   7   17.02    4.30
   4 -18  -7   14.43    4.01
  -4  18   6  152.85    7.27
   4 -18  -6  153.04    7.07
  -4  18   5    3.92    3.44
   4 -18  -5    6.98    3.73
  -4  18   4   88.61    5.45
   4 -18  -4   82.50    5.35
  -4  18   3   32.50    4.30
   4 -18  -3   21.70    4.01
  -4  18   2  284.48   10.71
   4 -18  -2  290.89   10.90
  -4  18   1   57.55    4.78
   4 -18  -1   60.51    4.78
  -4  18   0  107.73    5.93
   4 -18   0   99.32    5.93
  -4  18  -1    8.03    3.73
   4 -18   1    9.46    3.63
  -4  18  -2   -2.10    3.63
   4 -18   2    1.43    3.92
  -4  18  -3    8.41    3.73
   4 -18   3   12.71    4.01
  -4  18  -4   82.97    5.16
   4 -18   4   79.92    5.16
  -4  18  -5    6.88    3.63
   4 -18   5   19.12    3.82
  -4  18  -6  388.58   13.48
   4 -18   6  420.80   14.72
  -4  18  -7    1.91    3.63
   4 -18   7    9.37    3.82
  -4  18  -8   39.86    4.40
   4 -18   8   37.28    4.11
  -4  18  -9    2.68    3.92
   4 -18   9   -4.11    3.73
  -5  19  12   38.14    5.16
  -5  19  11   -6.88    4.11
   5 -19 -11   -1.53    4.30
  -5  19  10   17.30    4.68
   5 -19 -10   24.76    4.68
  -5  19   9   28.68    4.30
   5 -19  -9   33.17    4.59
  -5  19   8   -3.35    3.92
   5 -19  -8   -1.24    3.92
  -5  19   7   59.08    5.16
   5 -19  -7   68.54    5.26
  -5  19   6   34.51    4.40
   5 -19  -6   39.67    4.49
  -5  19   5   29.73    4.11
   5 -19  -5   30.88    4.21
  -5  19   4  119.59    6.02
   5 -19  -4  123.60    6.50
  -5  19   3   44.16    4.40
   5 -19  -3   43.30    4.59
  -5  19   2   15.39    4.21
   5 -19  -2   15.58    3.82
  -5  19   1  133.83    6.79
   5 -19  -1  135.65    6.79
  -5  19   0   35.85    4.01
   5 -19   0   31.35    4.21
  -5  19  -1   -1.53    3.63
   5 -19   1    1.05    4.01
  -5  19  -2   86.42    5.26
   5 -19   2   85.46    5.74
  -5  19  -3   15.10    3.82
   5 -19   3   17.02    3.82
  -5  19  -4   96.64    5.54
   5 -19   4   86.22    5.74
  -5  19  -5  142.82    6.69
   5 -19   5  130.39    6.69
  -5  19  -6   47.89    4.49
   5 -19   6   49.33    4.59
  -5  19  -7   30.69    4.01
   5 -19   7   19.02    4.01
  -6  20  10    6.79    4.49
  -6  20   9   -3.73    4.01
   6 -20  -9   -3.15    3.63
  -6  20   8   -2.87    3.82
   6 -20  -8    5.45    4.21
  -6  20   7   48.08    4.78
   6 -20  -7   41.20    4.68
  -6  20   6    5.26    3.73
   6 -20  -6    4.30    3.73
  -6  20   5  119.49    6.31
   6 -20  -5  128.95    6.60
  -6  20   4    7.07    3.82
   6 -20  -4    4.40    4.01
  -6  20   3   97.79    5.54
   6 -20  -3   96.93    5.83
  -6  20   2   14.72    3.54
   6 -20  -2   22.08    4.11
  -6  20   1   32.41    4.21
   6 -20  -1   44.36    4.88
  -6  20   0  101.81    5.45
   6 -20   0   97.31    5.74
  -6  20  -1  126.18    6.31
   6 -20   1  119.01    6.12
  -6  20  -2    2.58    3.63
   6 -20   2    1.91    3.82
  -6  20  -3   99.42    5.45
   6 -20   3   96.93    5.64
  -6  20  -4    6.50    3.92
   6 -20   4   16.82    3.92
  -7  21   6   -1.43    3.92
   7 -21  -6    4.97    4.68
  -7  21   5   12.62    4.01
   7 -21  -5    7.17    3.92
  -7  21   4   92.53    5.64
   7 -21  -4   98.17    5.74
  -7  21   3   31.93    4.11
   7 -21  -3   31.07    4.01
  -7  21   2    3.73    3.82
   7 -21  -2    8.13    3.63
  -7  21   1   84.12    5.07
   7 -21  -1   89.09    5.83
  23  -7  -7  140.52    6.69
  23  -7  -7  158.49    6.98
  23  -7  -8   17.97    4.30
  23  -7  -8   13.00    3.82
  23  -7  -9   40.72    4.49
  23  -7  -9   40.72    4.59
  23  -7 -10   21.22    4.11
  23  -7 -10   25.05    4.21
  23  -7 -11    5.07    3.82
  23  -7 -11    3.25    3.73
  23  -7 -12   -3.63    3.63
  23  -7 -12    1.05    3.92
  23  -7 -13   62.04    5.16
  23  -7 -13   63.09    4.88
  23  -7 -14   15.20    3.63
  23  -7 -14   11.28    3.92
  23  -7 -15   70.83    4.97
  23  -7 -15   72.17    4.97
  22  -6  -3  264.12   10.13
  22  -6  -3  242.71    9.46
  22  -6  -4   41.49    4.78
  22  -6  -4   33.46    4.40
  22  -6  -5   61.18    5.07
  22  -6  -5   54.58    4.78
  22  -6  -6   72.84    5.07
  22  -6  -6   71.98    5.16
  22  -6  -7   21.32    4.40
  22  -6  -7   15.29    3.82
  22  -6  -8   60.80    4.97
  22  -6  -8   51.52    4.88
  22  -6  -9  156.58    6.98
  22  -6  -9  153.71    7.07
  22  -6 -10    2.10    3.73
  22  -6 -10    5.93    3.92
  22  -6 -11  227.13    9.18
  22  -6 -11  254.18    9.65
  22  -6 -12    4.59    3.54
  22  -6 -12    2.68    3.73
  22  -6 -13   19.31    4.40
  22  -6 -13   16.16    4.01
  22  -6 -14   89.47    5.54
  22  -6 -14   97.50    5.83
  22  -6 -15    1.05    3.92
  22  -6 -15   -0.10    3.73
  22  -6 -16    2.87    3.82
  22  -6 -16    2.20    3.73
  22  -6 -17   39.38    4.40
  22  -6 -17   39.10    4.49
  22  -6 -18    2.01    4.11
  22  -6 -18   -5.64    3.54
  21  -5   0   17.49    5.07
  21  -5   0   15.49    4.49
  21  -5  -1   -2.58    4.21
  21  -5  -1   -1.34    4.11
  21  -5  -2   59.65    4.78
  21  -5  -2   76.67    5.74
  21  -5  -3    1.24    3.92
  21  -5  -3    3.35    4.11
  21  -5  -4  137.75    6.69
  21  -5  -4  138.04    6.88
  21  -5  -5   79.25    5.26
  21  -5  -5   74.28    5.64
  21  -5  -6    9.18    3.82
  21  -5  -6   -3.44    4.01
  21  -5  -7   23.32    4.21
  21  -5  -7   20.27    4.21
  21  -5  -8  264.12   10.42
  21  -5  -8  270.05   10.23
  21  -5  -9   10.23    3.92
  21  -5  -9   17.40    4.11
  21  -5 -10  759.29   24.09
  21  -5 -10  709.01   22.85
  21  -5 -11    0.29    3.63
  21  -5 -11    2.77    3.82
  21  -5 -12   37.38    4.49
  21  -5 -12   40.34    4.40
  21  -5 -13   50.47    4.68
  21  -5 -13   46.36    4.88
  21  -5 -14   15.10    4.01
  21  -5 -14   15.58    4.30
  21  -5 -15    9.85    4.01
  21  -5 -15   -2.96    3.82
  21  -5 -16   89.57    5.74
  21  -5 -16   84.79    5.45
  21  -5 -17    0.57    4.11
  21  -5 -17   -2.96    3.73
  21  -5 -18  169.87    7.65
  21  -5 -18  176.66    7.74
  20  -4   2  101.71    6.69
  20  -4   2  117.77    6.79
  20  -4   1   17.11    4.49
  20  -4   1   19.21    4.49
  20  -4   0  190.61    8.32
  20  -4   0  209.25    8.79
  20  -4  -1   24.38    4.30
  20  -4  -1   23.52    4.21
  20  -4  -2    2.39    3.92
  20  -4  -2    4.11    4.01
  20  -4  -3  343.85   12.33
  20  -4  -3  354.65   12.71
  20  -4  -4   27.05    4.30
  20  -4  -4   12.04    4.40
  20  -4  -5    4.97    3.73
  20  -4  -5   10.90    4.11
  20  -4  -6  514.10   17.02
  20  -4  -6  498.90   16.82
  20  -4  -7   40.63    4.49
  20  -4  -7   32.79    4.21
  20  -4  -8   72.84    4.97
  20  -4  -8   66.72    5.16
  20  -4  -9  251.70    9.75
  20  -4  -9  234.97    9.56
  20  -4 -10   29.73    4.40
  20  -4 -10   18.26    4.01
  20  -4 -11   95.59    5.93
  20  -4 -11   97.89    5.93
  20  -4 -12  309.53   11.47
  20  -4 -12  305.32   11.38
  20  -4 -13   -3.63    4.01
  20  -4 -13    0.96    3.82
  20  -4 -14  119.59    6.31
  20  -4 -14  127.90    6.60
  20  -4 -15   19.98    4.30
  20  -4 -15   18.16    4.21
  20  -4 -16    3.73    4.01
  20  -4 -16    1.72    4.11
  20  -4 -17   77.43    5.35
  20  -4 -17   73.70    5.45
  20  -4 -18   24.18    4.49
  20  -4 -18   18.93    4.11
  20  -4 -19   10.80    4.11
  20  -4 -19    9.94    4.21
  20  -4 -20  154.57    7.36
  20  -4 -20  171.40    7.46
  20  -4 -21    0.10    3.92
  20  -4 -21    6.12    4.01
  19  -3   2   18.64    4.59
  19  -3   2   19.98    4.30
  19  -3   1   54.20    4.88
  19  -3   1   52.10    5.07
  19  -3   0  126.09    6.88
  19  -3   0  138.61    6.60
  19  -3  -1    2.01    3.82
  19  -3  -1    8.03    3.63
  19  -3  -2   14.34    4.01
  19  -3  -2   18.16    4.11
  19  -3  -3    6.31    3.73
  19  -3  -3   -2.39    3.44
  19  -3  -4    6.02    3.63
  19  -3  -4    2.01    3.54
  19  -3  -5  391.07   13.86
  19  -3  -5  357.61   13.00
  19  -3  -6    1.53    3.63
  19  -3  -6    7.27    3.44
  19  -3  -7  188.32    8.22
  19  -3  -7  215.37    9.27
  19  -3  -8  141.76    6.88
  19  -3  -8  118.25    6.50
  19  -3  -9    7.07    3.63
  19  -3  -9   10.90    4.21
  19  -3 -10   29.16    4.49
  19  -3 -10   37.38    4.40
  19  -3 -11  488.10   16.44
  19  -3 -11  522.32   17.68
  19  -3 -12    0.10    4.01
  19  -3 -12    0.38    3.54
  19  -3 -13  227.42    9.27
  19  -3 -13  251.03   10.04
  19  -3 -14   39.58    4.49
  19  -3 -14   38.05    4.59
  19  -3 -15  264.60   10.32
  19  -3 -15  259.06   10.13
  19  -3 -16  146.45    6.98
  19  -3 -16  137.46    6.98
  19  -3 -17   12.33    3.92
  19  -3 -17   13.10    4.01
  19  -3 -18   23.23    4.30
  19  -3 -18   22.27    4.40
  19  -3 -19  101.04    6.21
  19  -3 -19  106.30    6.31
  19  -3 -20   11.57    3.82
  19  -3 -20   10.80    4.21
  19  -3 -21   34.80    4.49
  19  -3 -21   31.74    4.68
  18  -2   4    4.49    4.21
  18  -2   4   -3.25    3.92
  18  -2   3   15.01    4.40
  18  -2   3   15.58    4.21
  18  -2   2   25.43    4.40
  18  -2   2   29.63    4.11
  18  -2   1   -3.82    3.63
  18  -2   1   -2.68    3.73
  18  -2   0   13.19    4.01
  18  -2   0    5.16    3.54
  18  -2  -1  158.97    7.46
  18  -2  -1  180.96    7.84
  18  -2  -2   52.38    4.59
  18  -2  -2   69.02    4.97
  18  -2  -3   17.88    4.01
  18  -2  -3   14.63    4.01
  18  -2  -4    8.03    3.82
  18  -2  -4   12.81    4.01
  18  -2  -5   15.77    4.40
  18  -2  -5   13.67    4.11
  18  -2  -6    6.02    3.82
  18  -2  -6    4.78    3.63
  18  -2  -7  284.96   11.18
  18  -2  -7  292.61   11.18
  18  -2  -8   87.28    5.35
  18  -2  -8   77.91    5.54
  18  -2  -9  290.32   11.18
  18  -2  -9  281.33   10.90
  18  -2 -10   18.93    4.49
  18  -2 -10   29.63    4.40
  18  -2 -11   56.11    4.97
  18  -2 -11   61.85    5.26
  18  -2 -12    4.01    4.21
  18  -2 -12    6.12    4.11
  18  -2 -13  187.46    8.41
  18  -2 -13  207.63    8.60
  18  -2 -14    8.70    4.01
  18  -2 -14   12.04    3.92
  18  -2 -15  189.66    8.32
  18  -2 -15  190.33    8.32
  18  -2 -16    3.63    3.54
  18  -2 -16    9.85    3.92
  18  -2 -17  572.79   18.93
  18  -2 -17  525.76   17.40
  18  -2 -18    6.50    3.82
  18  -2 -18    0.10    3.73
  18  -2 -19   17.68    4.11
  18  -2 -19   25.81    4.21
  18  -2 -20   19.21    4.11
  18  -2 -20   17.40    3.82
  18  -2 -21   28.20    4.21
  18  -2 -21   21.70    4.11
  18  -2 -22   39.00    4.49
  18  -2 -22   31.93    4.59
  17  -1   5   -1.24    3.92
  17  -1   5   11.38    4.11
  17  -1   3   79.34    5.45
  17  -1   3   77.24    5.45
  17  -1   2   21.22    3.82
  17  -1   2   28.96    4.30
  17  -1   1  101.90    5.74
  17  -1   1  103.72    5.93
  17  -1   0  112.23    6.02
  17  -1   0   94.54    5.54
  17  -1  -1   10.32    3.35
  17  -1  -1    4.97    3.54
  17  -1  -2   94.92    5.74
  17  -1  -2   86.32    5.45
  17  -1  -3   56.11    4.49
  17  -1  -3   61.47    5.07
  17  -1  -4    6.12    3.92
  17  -1  -4    3.54    3.73
  17  -1  -5   56.69    4.78
  17  -1  -5   60.70    4.97
  17  -1  -6  185.26    8.13
  17  -1  -6  205.91    8.89
  17  -1  -7   27.91    4.68
  17  -1  -7   29.54    4.21
  17  -1  -8   25.71    4.30
  17  -1  -8   32.50    4.40
  17  -1  -9   10.52    4.21
  17  -1  -9   15.96    4.21
  17  -1 -10  172.93    7.84
  17  -1 -10  161.17    7.74
  17  -1 -11  159.83    7.55
  17  -1 -11  155.72    7.55
  17  -1 -12   16.63    3.92
  17  -1 -12   21.41    4.68
  17  -1 -13  160.88    7.55
  17  -1 -13  153.52    7.46
  17  -1 -14  461.71   15.87
  17  -1 -14  467.83   16.25
  17  -1 -15   99.03    6.02
  17  -1 -15  101.52    6.02
  17  -1 -16  528.91   17.68
  17  -1 -16  518.78   17.49
  17  -1 -18   41.39    4.30
  17  -1 -18   33.17    4.59
  17  -1 -19   64.24    4.88
  17  -1 -19   68.64    4.88
  17  -1 -20    1.15    3.54
  17  -1 -20   -4.68    3.73
  17  -1 -21  110.03    5.93
  17  -1 -21  105.34    6.02
  17  -1 -22  142.62    6.88
  17  -1 -22  126.47    6.40
  16   0   8    5.64    3.73
  16   0   8    3.15    3.82
  16   0   7    6.12    3.82
  16   0   7   -3.63    4.30
  16   0   6   -0.10    3.73
  16   0   6    4.88    3.73
  16   0   5    6.02    3.73
  16   0   5   -3.73    3.63
  16   0   4  188.89    7.93
  16   0   4  194.82    7.74
  16   0   3   -2.49    3.25
  16   0   3   -3.06    3.63
  16   0   2  592.01   19.31
  16   0   2  578.81   18.83
  16   0   1   -4.40    3.73
  16   0   1   -1.34    3.25
  16   0   0  217.66    8.41
  16   0   0  230.76    9.18
  16   0  -1   -0.76    3.92
  16   0  -1    0.86    3.92
  16   0  -2   84.41    5.64
  16   0  -2   92.06    5.45
  16   0  -3    1.53    3.63
  16   0  -3   -5.64    3.54
  16   0  -4  241.28    9.65
  16   0  -4  242.52    9.94
  16   0  -5    4.30    3.82
  16   0  -5    1.72    3.54
  16   0  -6  160.21    7.65
  16   0  -6  158.49    7.74
  16   0  -7    0.67    3.82
  16   0  -7   -8.99    3.54
  16   0  -8   59.94    4.88
  16   0  -8   60.61    5.45
  16   0  -9   -1.24    3.92
  16   0  -9   -1.63    3.82
  16   0 -10  119.97    6.60
  16   0 -10  116.15    6.21
  16   0 -11   -6.79    3.92
  16   0 -11   -2.87    3.82
  16   0 -12  409.42   14.53
  16   0 -12  379.22   13.67
  16   0 -13   -4.78    3.54
  16   0 -13    2.10    4.01
  16   0 -14  513.24   17.30
  16   0 -14  493.74   16.92
  16   0 -15    8.41    4.01
  16   0 -15   -0.86    3.73
  16   0 -16  343.94   12.62
  16   0 -16  366.60   13.10
  16   0 -17   -4.88    4.01
  16   0 -17    0.76    3.73
  16   0 -18   35.46    4.30
  16   0 -18   37.76    4.68
  16   0 -19    1.53    3.54
  16   0 -19   -1.82    3.44
  16   0 -20  510.18   17.11
  16   0 -20  491.06   16.54
  16   0 -21    0.29    3.63
  16   0 -21    0.48    3.82
  16   0 -22    2.96    3.73
  16   0 -22    0.57    3.44
  16   0 -23    0.38    3.82
  16   0 -23   -4.97    4.40
  15   1   7   10.71    3.15
  15   1   7   13.96    3.25
  15   1   5    8.70    3.44
  15   1   5    7.27    3.15
  15   1   4   93.11    5.07
  15   1   4   91.00    5.07
  15   1   3  435.62   14.63
  15   1   3  459.04   15.39
  15   1   2    8.22    3.54
  15   1   2    7.36    3.35
  15   1   1   32.12    3.82
  15   1   1   29.54    4.01
  15   1   0  315.65   11.47
  15   1   0  301.50   11.18
  15   1  -1   22.56    4.01
  15   1  -1   24.57    4.40
  15   1  -2  310.39   11.38
  15   1  -2  297.48   11.09
  15   1  -3  147.98    7.46
  15   1  -3  134.12    7.17
  15   1  -4  108.40    6.21
  15   1  -4   97.03    5.74
  15   1  -5   88.61    5.45
  15   1  -5   91.20    5.64
  15   1  -6   12.71    3.73
  15   1  -6   13.96    3.73
  15   1  -7   77.43    5.74
  15   1  -7   60.89    4.97
  15   1  -8  220.91    9.27
  15   1  -8  237.17    9.65
  15   1  -9   39.77    4.68
  15   1  -9   48.75    5.07
  15   1 -10   99.13    6.12
  15   1 -10  112.13    6.12
  15   1 -11  158.88    7.84
  15   1 -11  144.73    7.36
  15   1 -12   36.04    4.30
  15   1 -12   28.39    4.49
  15   1 -13  625.08   20.84
  15   1 -13  592.87   19.88
  15   1 -14  153.81    7.17
  15   1 -14  137.75    6.98
  15   1 -15   47.70    4.78
  15   1 -15   45.31    4.68
  15   1 -16  186.21    8.22
  15   1 -16  170.73    7.84
  15   1 -17   65.96    5.07
  15   1 -17   60.51    4.78
  15   1 -18   71.60    5.07
  15   1 -18   70.64    4.97
  15   1 -19  292.23   10.80
  15   1 -19  298.63   11.09
  15   1 -20  190.99    8.03
  15   1 -20  193.86    8.32
  15   1 -21   13.38    4.01
  15   1 -21   12.81    3.82
  15   1 -22  197.88    8.13
  15   1 -22  201.89    8.32
  15   1 -23   13.57    3.82
  15   1 -23   20.84    4.40
  14   2   7  317.18   10.42
  14   2   7  316.22   10.32
  14   2   6    7.46    2.87
  14   2   6    9.18    2.87
  14   2   5  562.66   17.97
  14   2   5  544.69   17.40
  14   2   4   11.28    3.35
  14   2   4   19.02    3.35
  14   2   3   11.28    3.06
  14   2   3    1.72    3.25
  14   2   2    6.50    3.35
  14   2   2    0.48    3.15
  14   2   1  397.09   13.38
  14   2   1  413.53   14.05
  14   2   0   34.51    4.11
  14   2   0   31.83    4.11
  14   2  -1  612.46   19.79
  14   2  -1  593.34   19.50
  14   2  -2  188.32    8.03
  14   2  -2  194.91    8.32
  14   2  -3  167.00    7.55
  14   2  -3  171.97    7.65
  14   2  -4   -1.34    2.96
  14   2  -4    7.07    3.35
  14   2  -5   -2.77    3.25
  14   2  -5   -0.96    3.63
  14   2  -6  175.41    7.93
  14   2  -6  164.04    7.46
  14   2  -7  188.41    8.03
  14   2  -7  192.62    8.41
  14   2  -8   -0.57    3.54
  14   2  -8   -2.39    3.82
  14   2  -9  661.88   21.70
  14   2  -9  688.94   22.66
  14   2 -10  164.23    7.55
  14   2 -10  154.19    7.46
  14   2 -11  139.95    7.07
  14   2 -11  139.66    6.98
  14   2 -12  154.00    7.17
  14   2 -12  135.65    6.98
  14   2 -13  854.22   27.24
  14   2 -13  840.45   26.86
  14   2 -14   11.57    3.92
  14   2 -14    9.08    4.01
  14   2 -15  481.02   16.44
  14   2 -15  486.09   16.73
  14   2 -16    0.57    3.44
  14   2 -16    0.57    3.44
  14   2 -17   60.03    4.78
  14   2 -17   52.67    4.68
  14   2 -18    5.83    3.54
  14   2 -18    4.97    3.54
  14   2 -19  227.13    9.08
  14   2 -19  223.02    9.08
  14   2 -20   36.99    4.01
  14   2 -20   35.56    4.21
  14   2 -21  410.38   14.24
  14   2 -21  412.67   14.15
  14   2 -22    7.55    3.73
  14   2 -22   12.43    4.01
  13   3   6   33.36    2.96
  13   3   6   28.39    2.68
  13   3   4  238.98    8.51
  13   3   4  221.01    8.03
  13   3   3  481.02   15.87
  13   3   3  477.96   15.58
  13   3   2  237.26    8.79
  13   3   2  223.02    8.60
  13   3   1   88.04    5.45
  13   3   1   82.50    4.78
  13   3   0  391.83   13.48
  13   3   0  423.95   14.43
  13   3  -1  140.81    6.40
  13   3  -1  156.01    6.98
  13   3  -2  462.57   15.87
  13   3  -2  462.86   15.68
  13   3  -3  685.30   22.27
  13   3  -3  672.02   21.89
  13   3  -4   54.77    4.40
  13   3  -4   47.41    4.21
  13   3  -5 1273.30   39.58
  13   3  -5 1315.36   40.63
  13   3  -6   62.71    4.78
  13   3  -6   60.22    4.78
  13   3  -7  114.52    6.02
  13   3  -7  110.31    6.21
  13   3  -8  385.24   13.86
  13   3  -8  376.35   13.57
  13   3  -9  417.55   14.63
  13   3  -9  446.04   15.49
  13   3 -10   20.36    3.44
  13   3 -10   32.69    4.30
  13   3 -11  800.40   25.62
 -13  -3  11  868.08   28.01
  13   3 -12   -0.48    3.54
 -13  -3  12    0.38    2.96
  13   3 -13   62.61    5.07
 -13  -3  13   65.39    4.40
  13   3 -14    0.10    3.54
 -13  -3  14    0.48    3.15
  13   3 -15    4.11    3.63
  13   3 -15    5.45    3.15
  13   3 -16   64.53    4.88
  13   3 -16   62.23    4.68
  13   3 -17  614.57   20.17
  13   3 -17  621.74   20.27
  13   3 -18   16.73    3.63
  13   3 -18   25.14    3.82
  13   3 -19   65.77    4.88
  13   3 -19   73.70    5.07
  13   3 -20  167.19    7.46
  13   3 -20  166.33    7.36
  13   3 -21   10.04    3.73
  13   3 -21   10.13    3.73
  13   3 -22   -1.43    3.35
  13   3 -22   -0.76    3.63
  13   3 -23   60.61    5.16
  13   3 -23   50.38    4.68
  12   4   6   89.67    3.82
  12   4   6   90.43    3.82
  12   4   5   62.71    3.44
  12   4   5   57.45    3.44
  12   4   4  474.14   15.29
  12   4   4  466.87   14.91
  12   4   3   66.91    4.11
  12   4   3   79.06    4.01
  12   4   2  445.65   14.72
  12   4   2  439.54   14.53
  12   4   1   -1.24    2.77
  12   4   1   -0.86    2.68
  12   4   0    1.43    2.68
  12   4   0   -4.78    2.87
  12   4  -1  430.55   14.43
  12   4  -1  381.42   13.29
  12   4  -2  487.05   16.44
  12   4  -2  515.91   17.02
  12   4  -3  211.16    8.51
  12   4  -3  219.48    8.89
  12   4  -4 2143.19   64.62
  12   4  -4 2351.58   70.83
  12   4  -5   95.69    5.64
 -12  -4   5   93.20    5.26
  12   4  -6  371.19   13.29
 -12  -4   6  357.61   12.71
  12   4  -7   41.30    4.40
 -12  -4   7   37.76    4.21
  12   4  -8  246.44    9.85
 -12  -4   8  272.53   10.61
  12   4  -9  337.06   12.43
 -12  -4   9  315.26   11.85
  12   4 -10 1171.01   36.42
 -12  -4  10 1138.51   35.37
  12   4 -11  117.96    6.31
 -12  -4  11  111.65    6.31
  12   4 -12  134.88    6.88
 -12  -4  12  115.48    6.02
  12   4 -13   10.99    3.82
 -12  -4  13    8.03    3.25
  12   4 -14  325.68   11.95
 -12  -4  14  332.57   12.43
  12   4 -15    0.00    3.35
 -12  -4  15    0.00    3.06
  12   4 -16  393.36   13.86
 -12  -4  16  392.89   13.77
  12   4 -17   14.15    3.82
 -12  -4  17   15.39    3.44
  12   4 -18   78.19    5.07
 -12  -4  18   67.68    4.88
  12   4 -19    6.88    3.73
 -12  -4  19    7.84    2.96
  12   4 -20   40.15    4.21
  12   4 -20   40.05    4.30
  12   4 -21   41.30    4.11
  12   4 -21   47.51    4.49
  12   4 -22    9.56    3.73
  12   4 -22   -3.63    3.92
  12   4 -23   10.61    4.21
  12   4 -23   10.42    3.92
  11   5   6   81.54    3.25
  11   5   6   81.16    3.15
  11   5   5    2.10    2.39
  11   5   5    1.82    2.10
  11   5   4   -2.77    2.49
  11   5   4    5.16    2.01
  11   5   3   13.38    2.77
  11   5   3    8.99    2.49
  11   5   2  565.53   18.35
  11   5   2  558.55   17.88
  11   5   1   15.87    2.87
  11   5   1   14.53    2.96
  11   5  -1  221.68    8.70
  11   5  -1  239.46    9.46
  11   5  -2  346.43   12.14
 -11  -5   2  349.10   12.24
  11   5  -3   74.75    4.78
 -11  -5   3   91.86    5.26
  11   5  -4    6.40    3.25
 -11  -5   4    3.44    3.25
  11   5  -5    0.57    3.54
 -11  -5   5    7.65    3.25
  11   5  -6 1645.15   50.28
 -11  -5   6 1568.68   47.99
  11   5  -7   42.83    4.59
 -11  -5   7   45.50    4.68
  11   5  -8 2559.02   76.95
 -11  -5   8 2424.23   73.03
  11   5  -9  545.26   18.35
 -11  -5   9  516.20   17.59
  11   5 -10   40.53    4.40
 -11  -5  10   39.48    4.40
  11   5 -11  228.37    9.37
 -11  -5  11  228.56    9.56
  11   5 -12  237.55    9.56
 -11  -5  12  211.64    8.70
  11   5 -13   97.41    5.83
 -11  -5  13  100.95    5.83
  11   5 -14  861.58   27.34
 -11  -5  14  844.47   26.96
  11   5 -15  310.87   11.47
 -11  -5  15  299.11   10.99
  11   5 -16   32.98    4.01
 -11  -5  16   38.43    4.49
  11   5 -17  232.10    9.37
 -11  -5  17  233.72    8.99
  11   5 -18    4.49    3.54
 -11  -5  18   10.61    3.63
  11   5 -19   37.47    3.92
 -11  -5  19   31.26    3.92
  11   5 -20  100.18    5.45
 -11  -5  20  104.87    5.74
  11   5 -21   33.84    3.92
 -11  -5  21   40.82    3.82
  11   5 -22  147.69    6.88
  11   5 -22  154.76    7.07
  10   6   6    1.05    1.15
  10   6   6   -0.19    1.15
  10   6   5   91.86    3.92
  10   6   5   78.77    3.63
  10   6   4   27.15    2.68
  10   6   4   25.81    2.58
  10   6   3  227.99    8.32
  10   6   3  218.05    7.84
  10   6   2    7.46    2.77
  10   6   2    5.16    2.58
  10   6   1  396.71   13.29
  10   6   1  397.57   13.19
  10   6   0   45.79    3.63
 -10  -6   0   39.58    3.63
  10   6  -1 1603.09   48.75
 -10  -6   1 1587.80   48.18
  10   6  -2  740.65   23.61
 -10  -6   2  732.05   23.42
  10   6  -3   58.41    4.59
 -10  -6   3   58.60    4.40
  10   6  -4  124.75    6.21
 -10  -6   4  139.85    6.69
  10   6  -5  508.08   17.11
 -10  -6   5  493.93   16.73
  10   6  -6    1.72    3.35
 -10  -6   6    4.21    3.54
  10   6  -7  984.61   31.16
 -10  -6   7  944.93   29.82
  10   6  -8   46.36    4.49
 -10  -6   8   39.48    4.49
  10   6  -9  404.45   14.34
 -10  -6   9  358.86   12.81
  10   6 -10  809.86   25.91
 -10  -6  10  798.39   25.62
  10   6 -11  228.85    9.46
 -10  -6  11  200.17    8.60
  10   6 -12  157.25    7.27
 -10  -6  12  167.29    7.55
  10   6 -13  722.59   23.32
 -10  -6  13  753.46   24.47
  10   6 -14    4.21    3.63
 -10  -6  14   15.10    3.54
  10   6 -15   25.33    3.73
 -10  -6  15   28.87    3.92
  10   6 -16   84.98    5.26
 -10  -6  16   83.74    5.54
  10   6 -17   -1.72    3.54
 -10  -6  17    6.79    3.06
  10   6 -18   42.54    4.30
 -10  -6  18   39.10    3.82
  10   6 -19   17.30    3.44
 -10  -6  19   23.52    3.63
  10   6 -20   23.23    4.01
 -10  -6  20   25.33    3.63
  10   6 -21  222.16    8.99
 -10  -6  21  248.25    9.56
  10   6 -22    2.29    4.01
 -10  -6  22    9.37    3.54
   9   7   6   -0.10    1.24
   9   7   6   -0.48    1.05
   9   7   5  172.83    6.02
   9   7   5  177.04    6.31
   9   7   4  371.19   11.95
   9   7   4  389.44   12.62
   9   7   3  426.92   13.96
   9   7   3  431.89   14.05
   9   7   2   11.57    2.77
  -9  -7  -2    8.79    2.58
   9   7   1   10.61    2.96
  -9  -7  -1   17.02    3.06
   9   7   0   30.11    3.35
  -9  -7   0   26.00    3.35
   9   7  -1   78.29    4.97
  -9  -7   1   66.25    4.40
   9   7  -2    4.68    3.06
  -9  -7   2    0.38    2.96
   9   7  -3 1664.27   50.76
  -9  -7   3 1643.24   49.90
   9   7  -4  382.66   13.48
  -9  -7   4  380.36   13.38
   9   7  -5  240.32    9.46
  -9  -7   5  266.70   10.32
   9   7  -6   56.11    4.68
  -9  -7   6   61.18    4.97
   9   7  -7   -0.48    3.54
  -9  -7   7    3.63    3.54
   9   7  -8   12.71    3.73
  -9  -7   8    2.58    3.82
   9   7  -9 1780.89   54.20
  -9  -7   9 1838.25   55.73
   9   7 -10   45.22    4.68
  -9  -7  10   55.06    4.97
   9   7 -11  768.66   24.85
  -9  -7  11  794.09   25.52
   9   7 -12    0.00    3.44
  -9  -7  12   -2.10    3.15
   9   7 -13    2.96    3.25
  -9  -7  13   -1.53    3.25
   9   7 -14  288.79   10.80
  -9  -7  14  285.34   10.71
   9   7 -15  244.14    9.56
  -9  -7  15  311.06   11.57
   9   7 -16    1.34    3.35
  -9  -7  16   -0.86    3.15
   9   7 -17  168.15    7.55
  -9  -7  17  176.75    7.55
   9   7 -18   18.16    3.82
  -9  -7  18   21.99    3.73
   9   7 -19  189.27    8.03
  -9  -7  19  206.58    8.22
   9   7 -20   30.40    4.30
  -9  -7  20   22.46    3.73
   9   7 -21   47.13    4.78
  -9  -7  21   50.47    4.59
   9   7 -22    4.40    4.21
  -9  -7  22    4.68    4.11
   8   8   6   12.62    1.53
   8   8   6   10.04    1.72
   8   8   5   49.71    2.87
   8   8   5   51.43    2.68
   8   8   4  684.44   21.22
  -8  -8  -4  651.85   20.36
   8   8   3  154.76    6.31
  -8  -8  -3  164.99    6.50
   8   8   2    2.96    2.58
  -8  -8  -2   -2.39    2.58
   8   8   1  317.27   11.09
  -8  -8  -1  322.15   11.38
   8   8   0  130.77    6.02
  -8  -8   0  108.31    5.54
   8   8  -1  203.80    8.32
  -8  -8   1  210.78    8.32
   8   8  -2  335.91   11.85
  -8  -8   2  329.22   11.85
   8   8  -3  468.12   16.06
  -8  -8   3  477.58   16.06
   8   8  -4   90.81    5.45
  -8  -8   4  107.64    5.93
   8   8  -5  620.40   20.46
  -8  -8   5  590.48   19.60
   8   8  -6   21.99    4.11
  -8  -8   6   22.37    4.11
   8   8  -7 1013.28   31.83
  -8  -8   7 1185.35   36.99
   8   8  -8  417.17   14.72
  -8  -8   8  441.83   15.29
   8   8  -9   14.34    3.92
  -8  -8   9   14.63    3.73
   8   8 -10  622.12   20.65
  -8  -8  10  649.65   21.51
   8   8 -11   88.14    5.54
  -8  -8  11   72.84    5.07
   8   8 -12   34.13    4.01
  -8  -8  12   41.39    4.30
   8   8 -13  118.53    6.21
  -8  -8  13  117.10    6.31
   8   8 -14  106.39    5.74
  -8  -8  14  112.99    5.83
   8   8 -15   88.90    5.45
  -8  -8  15  107.73    6.21
   8   8 -16   20.17    3.92
  -8  -8  16   13.48    3.44
   8   8 -17   -1.53    3.63
  -8  -8  17   -2.49    3.35
   8   8 -18  170.82    7.36
  -8  -8  18  164.23    7.36
   8   8 -19  203.90    8.51
  -8  -8  19  201.03    8.32
   8   8 -20   23.04    4.11
  -8  -8  20   12.14    3.82
   8   8 -21   49.33    4.78
  -8  -8  21   59.65    4.59
   7   9   6    6.69    1.72
   7   9   6    5.64    1.72
   7   9   5   19.79    2.49
  -7  -9  -5   23.80    2.68
   7   9   4  280.56    9.65
  -7  -9  -4  262.78    9.27
   7   9   3   67.49    4.01
  -7  -9  -3   73.32    4.11
   7   9   2  923.33   28.58
  -7  -9  -2  976.96   30.21
   7   9   1   18.45    2.96
  -7  -9  -1   24.28    3.35
   7   9   0  498.71   16.63
  -7  -9   0  505.11   16.63
   7   9  -1   91.39    4.97
  -7  -9   1   78.77    4.97
   7   9  -2  247.39    9.65
  -7  -9   2  215.85    8.60
   7   9  -3    7.07    3.25
  -7  -9   3    6.40    3.25
   7   9  -4 1359.33   41.68
  -7  -9   4 1410.95   43.30
   7   9  -5  252.36   10.04
  -7  -9   5  238.41    9.46
   7   9  -6  442.98   15.39
  -7  -9   6  460.85   15.77
   7   9  -7  185.45    8.13
  -7  -9   7  186.12    8.22
   7   9  -8  178.47    7.93
  -7  -9   8  173.79    7.65
   7   9  -9   44.07    4.40
  -7  -9   9   42.92    4.49
   7   9 -10   70.17    4.88
  -7  -9  10   85.94    5.54
   7   9 -11  307.62   11.47
  -7  -9  11  279.23   10.52
   7   9 -12  572.50   19.12
  -7  -9  12  608.93   20.36
   7   9 -13   77.33    5.07
  -7  -9  13   62.33    4.49
   7   9 -14 1115.57   34.80
  -7  -9  14 1282.85   39.48
   7   9 -15   23.32    4.01
  -7  -9  15   19.79    3.73
   7   9 -16  143.77    6.88
  -7  -9  16  164.04    7.36
   7   9 -17    1.82    3.54
  -7  -9  17    7.07    2.96
   7   9 -18   78.67    4.97
  -7  -9  18   84.31    5.07
   7   9 -19    2.68    3.54
  -7  -9  19    7.36    3.63
   7   9 -20   85.94    5.83
  -7  -9  20   79.44    5.16
   7   9 -21   -0.38    4.30
  -7  -9  21   -2.29    3.92
   6  10   7   23.71    2.10
  -6 -10  -7   19.79    2.01
   6  10   6  381.32   12.24
  -6 -10  -6  402.35   13.00
   6  10   5    5.93    2.39
  -6 -10  -5    3.54    2.39
   6  10   4  428.26   14.05
  -6 -10  -4  389.54   13.00
   6  10   3  759.58   23.71
  -6 -10  -3  809.96   25.33
   6  10   2  129.24    5.83
  -6 -10  -2  122.55    5.74
   6  10   1   60.99    4.21
  -6 -10  -1   46.17    3.73
   6  10   0  355.89   12.52
  -6 -10   0  386.67   13.38
   6  10  -1    2.29    3.25
  -6 -10   1   -2.10    3.25
   6  10  -2 1202.56   37.19
  -6 -10   2 1244.62   38.33
   6  10  -3   91.20    5.35
  -6 -10   3   95.31    5.64
   6  10  -4   22.27    3.73
  -6 -10   4   26.67    3.82
   6  10  -5  439.92   15.39
  -6 -10   5  458.27   15.77
   6  10  -6  886.72   28.30
  -6 -10   6  840.93   26.86
   6  10  -7  437.62   15.29
  -6 -10   7  431.79   15.20
   6  10  -8   47.61    4.49
  -6 -10   8   45.02    4.40
   6  10  -9   29.16    4.01
  -6 -10   9   19.79    4.30
   6  10 -10  356.56   12.91
  -6 -10  10  361.63   12.91
   6  10 -11  152.57    7.17
  -6 -10  11  152.28    7.27
   6  10 -12   14.05    3.82
  -6 -10  12    9.37    3.82
   6  10 -13   36.99    4.21
  -6 -10  13   38.81    4.01
   6  10 -14  120.92    6.50
  -6 -10  14  131.54    6.98
   6  10 -15  126.47    6.60
  -6 -10  15  150.56    6.69
   6  10 -16  255.61    9.85
  -6 -10  16  248.83    9.56
   6  10 -17   13.57    3.63
  -6 -10  17   12.04    3.63
   6  10 -18   25.81    4.11
  -6 -10  18   39.00    4.21
   6  10 -19  116.24    6.50
  -6 -10  19  124.94    6.21
   6  10 -20    3.82    4.11
  -6 -10  20    3.54    4.11
   5  11   8  113.85    4.40
  -5 -11  -8  116.72    4.40
   5  11   7  117.87    4.97
  -5 -11  -7  114.33    4.88
   5  11   6   13.57    2.58
  -5 -11  -6   10.52    2.68
   5  11   5 1297.19   39.19
  -5 -11  -5 1318.22   39.96
   5  11   4   82.88    4.49
  -5 -11  -4   79.06    4.40
   5  11   3  188.80    7.55
  -5 -11  -3  185.16    7.46
   5  11   2   89.57    4.88
  -5 -11  -2   89.67    5.07
   5  11   1  191.57    7.84
  -5 -11  -1  182.20    7.65
   5  11   0  107.64    5.64
  -5 -11   0  101.42    5.54
   5  11  -1 1193.95   37.09
  -5 -11   1 1192.04   36.90
   5  11  -2    4.68    3.35
  -5 -11   2   11.85    3.54
   5  11  -3  375.87   13.48
  -5 -11   3  389.83   13.86
   5  11  -4   10.42    3.73
  -5 -11   4    5.93    3.54
   5  11  -5  243.67    9.85
  -5 -11   5  229.71    9.27
   5  11  -6  163.08    7.65
  -5 -11   6  171.59    8.13
   5  11  -7  185.74    8.03
  -5 -11   7  163.18    7.65
   5  11  -8   12.62    3.44
  -5 -11   8   15.68    3.82
   5  11  -9  232.67    9.56
  -5 -11   9  225.50    9.46
   5  11 -10  286.40   10.90
  -5 -11  10  296.15   10.99
   5  11 -11   45.31    4.49
  -5 -11  11   36.42    4.40
   5  11 -12   -4.49    3.54
  -5 -11  12   -0.10    3.44
   5  11 -13   56.40    4.59
  -5 -11  13   59.17    4.49
   5  11 -14   22.85    3.92
  -5 -11  14   29.06    4.01
   5  11 -15  438.10   15.10
  -5 -11  15  447.95   15.01
   5  11 -16  108.12    5.74
  -5 -11  16  121.31    5.83
   5  11 -17  161.55    7.55
  -5 -11  17  171.49    7.36
   5  11 -18   22.56    4.11
  -5 -11  18   13.86    3.54
   5  11 -19    6.98    3.73
  -5 -11  19   12.71    3.63
   4  12   9   24.76    2.20
  -4 -12  -9  208.58    7.07
   4  12   8    1.91    2.39
  -4 -12  -8    1.91    2.20
   4  12   7   89.76    4.40
  -4 -12  -7   86.13    4.30
   4  12   6  167.00    6.60
  -4 -12  -6  173.21    6.98
   4  12   5    6.02    3.06
  -4 -12  -5    5.54    3.06
   4  12   4   36.33    3.63
  -4 -12  -4   43.97    3.92
   4  12   3 1543.82   46.84
  -4 -12  -3 1547.65   46.94
   4  12   2    8.41    3.25
  -4 -12  -2    0.96    3.15
   4  12   1  273.30   10.13
  -4 -12  -1  279.42   10.42
   4  12   0   11.38    3.54
  -4 -12   0    8.03    3.25
   4  12  -1   14.91    3.54
  -4 -12   1   17.02    3.92
   4  12  -2  260.68   10.23
  -4 -12   2  294.62   11.09
   4  12  -3  834.43   26.57
  -4 -12   3  812.92   26.00
   4  12  -4  135.74    6.88
  -4 -12   4  136.41    6.79
   4  12  -5  494.31   16.82
  -4 -12   5  489.82   16.63
   4  12  -6  266.42   10.52
  -4 -12   6  271.77   10.71
   4  12  -7  204.38    8.70
  -4 -12   7  180.19    7.93
   4  12  -8  219.00    8.99
  -4 -12   8  209.35    9.08
   4  12  -9  311.82   11.76
  -4 -12   9  304.08   11.47
   4  12 -10  131.34    6.69
  -4 -12  10  121.59    6.50
   4  12 -11  127.71    6.50
  -4 -12  11  121.31    6.79
   4  12 -12   36.71    4.49
  -4 -12  12   40.44    4.11
   4  12 -13  515.34   17.30
  -4 -12  13  511.33   17.21
   4  12 -14   98.46    5.64
  -4 -12  14  109.36    5.74
   4  12 -15   19.21    4.01
  -4 -12  15   17.88    3.82
   4  12 -16  123.12    6.31
  -4 -12  16  111.37    6.12
   4  12 -17  241.85    9.56
  -4 -12  17  253.03    9.46
   4  12 -18   -0.19    3.44
  -4 -12  18   -0.86    3.25
   3  13  10    0.29    2.01
  -3 -13 -10  402.06   12.71
   3  13   9    0.86    2.58
  -3 -13  -9    1.24    2.39
   3  13   8   89.38    4.49
  -3 -13  -8   85.94    4.40
   3  13   7   89.67    4.78
  -3 -13  -7   80.39    4.49
   3  13   6   25.62    3.35
  -3 -13  -6   31.45    3.73
   3  13   5  233.72    8.79
  -3 -13  -5  236.02    9.08
   3  13   4   98.36    5.45
  -3 -13  -4   98.94    5.54
   3  13   3    5.26    3.15
  -3 -13  -3    2.77    3.54
   3  13   2  509.51   17.02
  -3 -13  -2  527.86   17.59
   3  13   1  123.41    6.31
  -3 -13  -1  112.23    6.12
   3  13   0  252.56    9.75
  -3 -13   0  240.42    9.75
   3  13  -1   -0.96    3.44
  -3 -13   1    6.79    3.63
   3  13  -2  552.05   18.54
  -3 -13   2  600.51   19.88
   3  13  -3   16.44    3.82
  -3 -13   3   13.57    3.73
   3  13  -4  419.75   14.82
  -3 -13   4  424.91   14.91
   3  13  -5    0.57    3.35
  -3 -13   5   -3.35    3.54
   3  13  -6   22.27    4.30
  -3 -13   6   25.62    4.30
   3  13  -7  114.81    6.40
  -3 -13   7  114.14    6.21
   3  13  -8   50.47    4.68
  -3 -13   8   56.02    5.16
   3  13  -9    1.15    3.44
  -3 -13   9    2.77    3.54
   3  13 -10  191.76    8.32
  -3 -13  10  191.85    8.03
   3  13 -11   -0.10    3.54
  -3 -13  11    3.44    3.73
   3  13 -12  776.69   24.76
  -3 -13  12  752.12   23.71
   3  13 -13   -0.38    3.54
  -3 -13  13    0.96    3.63
   3  13 -14   24.38    3.92
  -3 -13  14   18.64    3.54
   3  13 -15   50.57    4.59
  -3 -13  15   55.63    4.78
   3  13 -16   77.91    5.16
  -3 -13  16   80.49    5.35
   3  13 -17   14.63    3.92
  -3 -13  17   19.41    3.82
   2  14  11    3.44    2.49
  -2 -14 -11   10.52    2.49
   2  14  10   -0.19    2.68
  -2 -14 -10    1.43    2.49
   2  14   9    8.13    2.87
  -2 -14  -9   13.00    2.96
   2  14   8  593.15   18.93
  -2 -14  -8  600.42   19.21
   2  14   7   84.31    4.78
  -2 -14  -7   78.67    4.68
   2  14   6  301.50   10.80
  -2 -14  -6  309.62   11.09
   2  14   5   93.68    5.26
  -2 -14  -5   71.69    4.88
   2  14   4  249.02    9.56
  -2 -14  -4  250.84    9.75
   2  14   3   13.10    3.44
  -2 -14  -3   13.57    3.63
   2  14   2  109.17    5.93
  -2 -14  -2   84.79    5.54
   2  14   1   68.83    4.88
  -2 -14  -1   69.11    5.07
   2  14   0  106.01    6.02
  -2 -14   0  102.28    5.93
   2  14  -1  873.91   27.82
  -2 -14   1  871.61   27.63
   2  14  -2  671.06   21.99
  -2 -14   2  710.45   23.04
   2  14  -3    0.10    3.63
  -2 -14   3   -4.40    3.44
   2  14  -4  135.07    6.88
  -2 -14   4  143.96    7.07
   2  14  -5    1.34    3.54
  -2 -14   5    4.68    3.82
   2  14  -6  199.31    8.60
  -2 -14   6  207.63    9.08
   2  14  -7    6.21    3.54
  -2 -14   7    0.86    3.92
   2  14  -8  170.16    7.74
  -2 -14   8  163.46    7.84
   2  14  -9   71.22    5.26
  -2 -14   9   79.44    5.16
   2  14 -10   54.58    4.68
  -2 -14  10   54.97    4.68
   2  14 -11   99.23    5.64
  -2 -14  11   91.00    5.83
   2  14 -12   54.58    4.78
  -2 -14  12   47.51    4.21
   2  14 -13    9.94    3.73
  -2 -14  13   13.96    3.63
   2  14 -14  169.29    7.55
  -2 -14  14  166.43    7.36
   2  14 -15    0.57    3.73
  -2 -14  15    1.53    3.63
   2  14 -16   36.04    4.30
  -2 -14  16   31.16    4.21
   1  15  12    2.10    2.77
  -1 -15 -12   27.05    3.44
   1  15  11   -1.24    3.15
  -1 -15 -11   11.18    3.15
   1  15  10  144.25    6.21
  -1 -15 -10  138.90    6.21
   1  15   9  237.93    8.89
  -1 -15  -9  245.39    9.18
   1  15   8   25.91    3.63
  -1 -15  -8   24.85    3.82
   1  15   7  165.09    7.07
  -1 -15  -7  154.29    6.98
   1  15   6  144.73    6.60
  -1 -15  -6  140.04    6.60
   1  15   5  144.92    6.60
  -1 -15  -5  161.17    7.27
   1  15   4  230.09    9.27
  -1 -15  -4  228.85    9.27
   1  15   3    1.24    3.06
  -1 -15  -3    6.12    3.92
   1  15   2  137.37    6.69
  -1 -15  -2  116.62    6.31
   1  15   1  621.83   20.55
  -1 -15  -1  659.49   21.60
   1  15   0  139.47    6.88
  -1 -15   0  139.28    7.07
   1  15  -1  675.55   22.18
  -1 -15   1  754.23   24.47
   1  15  -2   87.95    5.64
  -1 -15   2   91.39    5.64
   1  15  -3   78.58    5.45
  -1 -15   3   85.08    5.74
   1  15  -4  177.71    7.84
  -1 -15   4  175.13    7.84
   1  15  -5  136.51    6.98
  -1 -15   5  124.56    6.69
   1  15  -6  151.99    7.17
  -1 -15   6  136.32    6.69
   1  15  -7  107.45    5.93
  -1 -15   7  102.09    5.93
   1  15  -8   54.49    4.78
  -1 -15   8   57.64    4.97
   1  15  -9  462.86   15.77
  -1 -15   9  477.58   16.16
   1  15 -10   53.72    4.68
  -1 -15  10   54.49    4.68
   1  15 -11   -1.15    3.54
  -1 -15  11   -2.77    3.44
   1  15 -12   21.41    3.92
  -1 -15  12   28.30    4.01
   1  15 -13   41.01    4.21
  -1 -15  13   50.57    4.40
   1  15 -14    5.83    3.82
  -1 -15  14    0.48    3.54
   1  15 -15  115.76    6.02
  -1 -15  15  114.62    5.93
   0  16  13    4.88    3.44
   0 -16 -13   21.80    4.01
   0  16  12   -3.82    3.82
   0 -16 -12   27.24    4.21
   0  16  11  108.59    5.83
   0 -16 -11  116.43    5.93
   0  16  10    9.85    3.63
   0 -16 -10    6.12    3.54
   0  16   9   85.08    5.26
   0 -16  -9   98.94    5.35
   0  16   8    3.06    3.54
   0 -16  -8    3.82    3.44
   0  16   7   37.66    4.01
   0 -16  -7   38.43    4.49
   0  16   6   95.88    5.45
   0 -16  -6  102.86    5.83
   0  16   5  212.22    8.60
   0 -16  -5  211.45    8.60
   0  16   4   34.32    4.01
   0 -16  -4   31.55    4.21
   0  16   3  236.88    9.37
   0 -16  -3  263.07   10.42
   0  16   2   17.21    3.82
   0 -16  -2   16.25    4.21
   0  16   1   14.82    3.63
   0 -16  -1    4.11    3.73
   0  16   0   51.91    4.68
   0 -16   0   45.88    4.68
   0  16  -1   15.10    4.01
   0 -16   1   15.10    4.11
   0  16  -2   17.97    3.92
   0 -16   2   16.16    4.01
   0  16  -3  228.28    9.46
   0 -16   3  265.37   10.52
   0  16  -4   30.49    4.30
   0 -16   4   36.04    4.21
   0  16  -5  225.69    9.18
   0 -16   5  228.47    9.46
   0  16  -6  106.49    6.02
   0 -16   6  103.72    5.83
   0  16  -7   36.80    4.30
   0 -16   7   35.37    3.92
   0  16  -8    2.01    3.44
   0 -16   8    1.63    3.92
   0  16  -9  113.66    6.21
   0 -16   9  110.98    5.93
   0  16 -10    2.96    3.73
   0 -16  10    3.35    3.82
   0  16 -11  154.19    7.07
   0 -16  11  145.40    6.88
   0  16 -12   44.64    4.49
   0 -16  12   38.62    4.11
   0  16 -13   35.85    4.40
   0 -16  13   46.74    4.40
   0  16 -14    0.48    3.92
   0 -16  14    1.05    3.82
  -1  17  13    0.76    4.59
   1 -17 -13    9.27    4.68
  -1  17  12    7.46    4.11
   1 -17 -12   64.53    5.16
  -1  17  11   57.55    4.97
   1 -17 -11   46.55    4.68
  -1  17  10   76.76    4.88
   1 -17 -10   77.05    5.26
  -1  17   9   39.29    4.40
   1 -17  -9   36.71    4.40
  -1  17   8  116.53    6.02
   1 -17  -8  115.76    6.12
  -1  17   7  124.17    6.21
   1 -17  -7  112.61    6.21
  -1  17   6   86.89    5.45
   1 -17  -6   97.79    5.93
  -1  17   5   -0.86    3.54
   1 -17  -5   -2.29    3.73
  -1  17   4  103.53    5.83
   1 -17  -4  100.95    5.83
  -1  17   3   46.84    4.49
   1 -17  -3   40.91    4.49
  -1  17   2   12.52    3.82
   1 -17  -2    8.32    3.92
  -1  17   1   -5.35    3.82
   1 -17  -1    2.39    3.92
  -1  17   0   89.09    5.45
   1 -17   0   79.34    5.54
  -1  17  -1   59.65    4.78
   1 -17   1   73.42    5.64
  -1  17  -2   13.29    3.73
   1 -17   2   22.18    4.21
  -1  17  -3   -3.54    3.44
   1 -17   3    1.15    4.01
  -1  17  -4  206.96    8.60
   1 -17   4  221.97    8.99
  -1  17  -5   -3.44    3.73
   1 -17   5    3.73    4.01
  -1  17  -6   10.04    3.63
   1 -17   6    7.65    3.92
  -1  17  -7  246.82    9.56
   1 -17   7  241.18    9.27
  -1  17  -8   53.15    4.59
   1 -17   8   54.87    4.68
  -1  17  -9  100.47    5.54
   1 -17   9   95.69    5.83
  -1  17 -10   54.68    4.59
   1 -17  10   62.33    4.88
  -1  17 -11    8.89    3.73
   1 -17  11   15.10    3.63
  -1  17 -12   31.45    4.21
   1 -17  12   28.58    4.11
  -2  18  12   64.24    6.02
   2 -18 -12   67.49    5.64
  -2  18  11    5.07    4.21
   2 -18 -11    4.68    3.92
  -2  18  10   57.74    4.68
   2 -18 -10   45.31    4.88
  -2  18   9   23.42    4.49
   2 -18  -9   31.74    4.21
  -2  18   8  248.54    9.94
   2 -18  -8  238.70    9.46
  -2  18   7   -1.63    3.44
   2 -18  -7    2.68    3.92
  -2  18   6  165.28    7.65
   2 -18  -6  154.76    7.27
  -2  18   5    9.08    3.63
   2 -18  -5    2.20    3.44
  -2  18   4    2.49    3.82
   2 -18  -4    4.78    3.54
  -2  18   3   60.13    4.97
   2 -18  -3   64.24    4.97
  -2  18   2  128.09    6.50
   2 -18  -2  130.48    6.69
  -2  18   1  180.00    7.93
   2 -18  -1  175.70    7.93
  -2  18   0  636.65   20.74
   2 -18   0  652.42   21.22
  -2  18  -1    3.82    3.54
   2 -18   1    5.74    4.21
  -2  18  -2  111.75    6.31
   2 -18   2  112.32    6.12
  -2  18  -3   35.37    4.21
   2 -18   3   37.47    4.49
  -2  18  -4   40.05    4.30
   2 -18   4   42.73    4.59
  -2  18  -5    3.54    3.44
   2 -18   5   -3.54    3.63
  -2  18  -6  288.98   10.71
   2 -18   6  260.68    9.94
  -2  18  -7    4.49    3.54
   2 -18   7    3.15    3.73
  -2  18  -8   39.19    4.30
   2 -18   8   39.67    4.40
  -2  18  -9   10.23    3.73
   2 -18   9    7.65    3.73
  -2  18 -10    5.83    3.82
   2 -18  10    7.46    4.01
  -3  19  11   -2.01    4.49
   3 -19 -11   -1.72    4.88
  -3  19  10   66.91    5.45
   3 -19 -10   56.02    5.07
  -3  19   9   41.97    4.97
   3 -19  -9   40.53    4.97
  -3  19   8    5.07    4.01
   3 -19  -8   12.04    4.01
  -3  19   7   22.85    4.21
   3 -19  -7   19.98    4.11
  -3  19   6   25.05    4.21
   3 -19  -6   27.72    4.21
  -3  19   5    1.72    3.63
   3 -19  -5   -1.72    3.63
  -3  19   4  262.31   10.04
   3 -19  -4  259.25    9.94
  -3  19   3   33.94    4.40
   3 -19  -3   31.74    4.30
  -3  19   2   34.51    4.11
   3 -19  -2   22.27    4.40
  -3  19   1  202.85    8.41
   3 -19  -1  225.69    9.08
  -3  19   0    4.59    3.63
   3 -19   0   13.96    4.01
  -3  19  -1    3.44    3.63
   3 -19   1   -2.49    3.54
  -3  19  -2  427.20   14.72
   3 -19   2  437.34   15.20
  -3  19  -3   -2.96    3.44
   3 -19   3   11.95    4.01
  -3  19  -4  108.31    5.93
   3 -19   4  113.09    6.02
  -3  19  -5  137.37    6.60
   3 -19   5  147.98    6.98
  -3  19  -6    0.00    3.35
   3 -19   6    0.48    3.92
  -3  19  -7   44.83    4.40
   3 -19   7   54.01    4.59
  -3  19  -8   48.08    4.40
   3 -19   8   64.62    4.88
  -4  20  10    4.30    4.97
  -4  20   9    7.65    4.21
   4 -20  -9    6.88    4.21
  -4  20   8   10.71    4.40
   4 -20  -8    7.17    3.92
  -4  20   7   11.57    4.21
   4 -20  -7    8.32    4.30
  -4  20   6   23.80    4.30
   4 -20  -6   23.23    4.30
  -4  20   5   94.73    5.74
   4 -20  -5   98.46    5.93
  -4  20   4   -1.53    4.01
   4 -20  -4    3.92    4.11
  -4  20   3   75.90    5.07
   4 -20  -3   85.36    5.54
  -4  20   2   27.15    4.21
   4 -20  -2   21.51    4.21
  -4  20   1    2.39    3.35
   4 -20  -1    0.96    3.63
  -4  20   0   34.22    3.92
   4 -20   0   35.27    4.78
  -4  20  -1  105.73    5.83
   4 -20   1  112.61    6.31
  -4  20  -2    6.88    3.63
   4 -20   2   -1.34    4.11
  -4  20  -3   82.40    5.16
   4 -20   3   99.42    5.93
  -4  20  -4   24.57    4.11
   4 -20   4   31.26    4.11
  -4  20  -5   48.66    4.40
   4 -20   5   46.27    4.68
  -4  20  -6    7.27    3.63
   4 -20   6    5.16    3.82
  -5  21   7   96.26    5.83
   5 -21  -7   95.78    5.74
  -5  21   6    5.26    4.40
   5 -21  -6    2.10    4.11
  -5  21   5   -5.07    3.73
   5 -21  -5    7.55    4.01
  -5  21   4   31.35    4.11
   5 -21  -4   49.80    4.78
  -5  21   3   84.89    5.45
   5 -21  -3  101.81    5.74
  -5  21   2   20.93    3.92
   5 -21  -2    9.56    4.21
  -5  21   1   91.29    5.45
   5 -21  -1   79.53    5.16
  -5  21   0   -7.07    3.82
   5 -21   0   -4.88    4.21
  -5  21  -1   15.87    4.01
   5 -21   1   23.32    3.92
  -5  21  -2    9.65    3.82
   5 -21   2    6.98    4.21
  23  -5  -5    9.37    4.11
  23  -5  -5    4.78    3.82
  23  -5  -6   29.92    4.40
  23  -5  -6   38.91    4.30
  23  -5  -7    8.51    3.73
  23  -5  -7    7.74    4.01
  23  -5  -8   25.24    4.30
  23  -5  -8   24.18    4.11
  23  -5  -9   17.21    4.01
  23  -5  -9   21.89    3.82
  23  -5 -10   91.20    5.74
  23  -5 -10   78.58    5.16
  23  -5 -11    0.86    3.63
  23  -5 -11    0.29    3.92
  23  -5 -12   56.50    4.97
  23  -5 -12   61.75    4.88
  23  -5 -13    9.37    4.01
  23  -5 -13    8.51    3.92
  23  -5 -14   15.58    3.92
  23  -5 -14   19.02    4.01
  23  -5 -15   -2.68    3.54
  23  -5 -15    6.02    4.11
  23  -5 -16   18.54    4.11
  23  -5 -16   27.24    4.40
  23  -5 -17    1.43    4.21
  23  -5 -17    0.76    3.73
  22  -4  -2    8.41    4.30
  22  -4  -2    6.21    4.21
  22  -4  -3   14.82    4.21
  22  -4  -3   16.82    4.40
  22  -4  -4   45.31    4.88
  22  -4  -4   39.38    4.68
  22  -4  -5   14.34    4.11
  22  -4  -5   12.04    4.01
  22  -4  -6  135.26    6.40
  22  -4  -6  118.06    6.60
  22  -4  -7    6.60    3.82
  22  -4  -7    8.70    3.92
  22  -4  -8  113.18    5.93
  22  -4  -8  109.26    6.12
  22  -4  -9   17.68    4.11
  22  -4  -9   21.03    4.11
  22  -4 -10   -2.29    3.73
  22  -4 -10    0.00    3.92
  22  -4 -11   65.29    5.26
  22  -4 -11   66.82    5.35
  22  -4 -12   87.66    5.26
  22  -4 -12   81.45    5.64
  22  -4 -13    8.03    4.11
  22  -4 -13    6.98    4.01
  22  -4 -14  113.66    6.40
  22  -4 -14  102.67    5.93
  22  -4 -15    4.59    3.92
  22  -4 -15   -0.38    3.92
  22  -4 -16   29.35    4.30
  22  -4 -16   23.32    4.40
  22  -4 -17    7.36    3.92
  22  -4 -17    2.77    3.63
  22  -4 -18    1.82    3.92
  22  -4 -18   13.38    3.92
  22  -4 -19   19.41    3.92
  22  -4 -19   16.63    4.21
  21  -3   0   21.80    4.68
  21  -3   0   18.74    4.59
  21  -3  -1  152.09    7.07
  21  -3  -1  134.21    7.07
  21  -3  -2  119.68    6.40
  21  -3  -2  115.76    6.50
  21  -3  -3    2.10    3.73
  21  -3  -3   -3.54    4.01
  21  -3  -4    9.18    4.40
  21  -3  -4    5.45    4.21
  21  -3  -5   75.23    5.26
  21  -3  -5   81.25    5.45
  21  -3  -6    2.68    3.82
  21  -3  -6    3.25    3.73
  21  -3  -7  162.41    7.27
  21  -3  -7  162.89    7.36
  21  -3  -8   48.08    4.49
  21  -3  -8   40.34    4.68
  21  -3  -9  143.20    6.88
  21  -3  -9  158.88    7.46
  21  -3 -10   34.99    4.49
  21  -3 -10   25.71    4.40
  21  -3 -11   77.14    5.16
  21  -3 -11   64.43    5.26
  21  -3 -12   44.45    4.88
  21  -3 -12   56.21    4.78
  21  -3 -13  156.58    7.27
  21  -3 -13  159.07    7.55
  21  -3 -14   13.67    4.01
  21  -3 -14   20.27    4.30
  21  -3 -15   36.61    4.68
  21  -3 -15   28.87    4.59
  21  -3 -16   29.82    4.49
  21  -3 -16   27.15    4.30
  21  -3 -17    4.78    4.11
  21  -3 -17    2.10    3.82
  21  -3 -18   34.22    4.59
  21  -3 -18   36.33    4.40
  21  -3 -19  100.37    6.02
  21  -3 -19  108.98    6.12
  21  -3 -20    2.29    3.82
  21  -3 -20    0.96    4.21
  20  -2   2   -5.16    4.59
  20  -2   2    1.91    4.21
  20  -2   1    2.68    4.11
  20  -2   1   13.96    4.11
  20  -2   0    7.93    4.01
  20  -2   0    0.19    3.82
  20  -2  -1  275.88   10.61
  20  -2  -1  263.84   10.42
  20  -2  -2    9.08    3.82
  20  -2  -2    0.10    3.73
  20  -2  -3  194.34    8.41
  20  -2  -3  175.89    7.74
  20  -2  -4   -1.82    3.63
  20  -2  -4   -5.64    4.01
  20  -2  -5   18.45    3.92
  20  -2  -5   25.24    4.11
  20  -2  -6   10.42    3.92
  20  -2  -6   11.18    3.92
  20  -2  -7   91.10    5.54
  20  -2  -7   94.64    5.83
  20  -2  -8   24.38    4.68
  20  -2  -8   26.00    4.40
  20  -2  -9  666.47   21.51
  20  -2  -9  666.85   21.60
  20  -2 -10    9.56    3.92
  20  -2 -10    7.07    4.11
  20  -2 -11  352.93   12.33
  20  -2 -11  353.41   12.81
  20  -2 -13   10.23    4.21
  20  -2 -13   17.40    4.40
  20  -2 -14   42.83    4.78
  20  -2 -14   32.79    4.30
  20  -2 -15   19.79    4.30
  20  -2 -15   17.68    4.11
  20  -2 -16   33.36    4.40
  20  -2 -16   37.95    4.40
  20  -2 -17  430.93   14.91
  20  -2 -17  439.06   15.10
  20  -2 -18    4.78    3.82
  20  -2 -18    2.77    4.30
  20  -2 -19   12.04    4.21
  20  -2 -19    4.21    4.01
  20  -2 -20    0.48    3.73
  20  -2 -20   -9.37    3.73
  20  -2 -21   14.82    4.11
  20  -2 -21   16.06    4.49
  19  -1   2   -2.39    3.92
  19  -1   2    2.20    4.21
  19  -1   1  118.15    6.31
  19  -1   1  124.94    6.79
  19  -1   0   58.98    5.07
  19  -1   0   58.60    5.07
  19  -1  -1   19.79    4.11
  19  -1  -1   16.35    4.21
  19  -1  -2  128.76    6.69
  19  -1  -2  108.40    6.12
  19  -1  -3   41.68    4.11
  19  -1  -3   35.18    4.30
  19  -1  -4   58.12    5.07
  19  -1  -4   47.41    4.59
  19  -1  -5  234.78    9.37
  19  -1  -5  234.87    9.46
  19  -1  -6   97.89    6.12
  19  -1  -6   85.56    5.93
  19  -1  -7  197.21    8.41
  19  -1  -7  197.49    8.51
  19  -1  -8  218.62    9.46
  19  -1  -8  220.44    9.08
  19  -1  -9    4.01    3.92
  19  -1  -9    6.50    3.92
  19  -1 -10  236.11    9.65
  19  -1 -10  228.08    9.27
  19  -1 -11   20.55    3.92
  19  -1 -11   13.96    4.21
  19  -1 -12    2.10    3.82
  19  -1 -12    0.38    3.63
  19  -1 -13  284.77   10.90
  19  -1 -13  252.94   10.13
  19  -1 -14   33.84    4.49
  19  -1 -14   47.41    4.78
  19  -1 -15   25.43    4.01
  19  -1 -15   31.07    4.40
  19  -1 -16  381.13   13.48
  19  -1 -16  377.78   13.48
  19  -1 -17    3.15    3.63
  19  -1 -17   -4.01    3.73
  19  -1 -18   94.45    5.74
  19  -1 -18   80.87    5.35
  19  -1 -19   99.42    5.64
  19  -1 -19  103.72    6.12
  19  -1 -20    0.38    3.54
  19  -1 -20    9.46    3.82
  19  -1 -21   20.07    4.11
  19  -1 -21   20.84    4.21
  19  -1 -22   22.56    4.40
  19  -1 -22   30.11    4.21
  18   0   5   -1.53    4.40
  18   0   5   -9.18    4.78
  18   0   3   -1.82    3.82
  18   0   3   -0.96    4.21
  18   0   2  231.05    9.37
  18   0   2  256.76   10.04
  18   0   1    5.16    4.21
  18   0   1   -2.68    3.82
  18   0   0   86.51    5.45
  18   0   0  101.42    6.02
  18   0  -1   -4.30    3.73
  18   0  -1   -6.60    3.73
  18   0  -2    0.67    3.35
  18   0  -2    8.32    3.92
  18   0  -3   -1.05    4.40
  18   0  -3   -1.53    3.82
  18   0  -4  512.95   17.21
  18   0  -4  531.11   17.68
  18   0  -5    5.35    4.01
  18   0  -5    1.43    3.82
  18   0  -6  399.10   14.15
  18   0  -6  421.85   14.91
  18   0  -7   -4.30    3.82
  18   0  -7   -0.96    3.73
  18   0  -8   40.63    4.88
  18   0  -8   45.41    4.78
  18   0  -9    1.91    3.54
  18   0  -9    2.77    3.92
  18   0 -10    8.60    4.11
  18   0 -10    2.87    3.82
  18   0 -11   -4.97    3.35
  18   0 -11    2.77    4.11
  18   0 -12  688.55   22.46
  18   0 -12  673.07   22.18
  18   0 -13    4.59    3.63
  18   0 -13    0.48    4.01
  18   0 -14 1196.82   37.28
  18   0 -14 1240.79   38.43
  18   0 -15    6.50    3.63
  18   0 -15   -6.02    3.82
  18   0 -16   36.99    4.49
  18   0 -16   34.32    4.59
  18   0 -17    1.34    3.63
  18   0 -17    0.76    3.63
  18   0 -18  200.17    8.41
  18   0 -18  184.49    8.03
  18   0 -19   -1.24    3.63
  18   0 -19   -2.58    3.54
  18   0 -20  122.07    6.31
  18   0 -20  113.85    6.31
  18   0 -21    5.07    3.54
  18   0 -21    4.59    3.63
  17   1   5   -4.68    3.73
  17   1   5    6.40    4.01
  17   1   2   32.31    4.40
  17   1   2   23.99    3.73
  17   1   1  104.48    5.93
  17   1   1  102.86    5.83
  17   1   0   94.35    5.64
  17   1   0   90.72    5.26
  17   1  -1    3.92    3.35
  17   1  -1    2.01    3.35
  17   1  -2   85.17    5.64
  17   1  -2   79.06    5.74
  17   1  -3   58.79    4.78
  17   1  -3   54.30    4.78
  17   1  -4   -1.53    3.92
  17   1  -4    1.15    3.63
  17   1  -5   60.51    5.26
  17   1  -5   63.38    4.97
  17   1  -6  188.89    7.93
  17   1  -6  187.36    8.32
  17   1  -7   34.13    4.30
  17   1  -7   31.16    4.30
  17   1  -8   31.35    4.68
  17   1  -8   25.91    4.40
  17   1  -9   10.13    3.82
  17   1  -9   11.47    4.01
  17   1 -10  159.45    7.84
  17   1 -10  167.29    7.84
  17   1 -11  147.79    7.07
  17   1 -11  156.58    7.65
  17   1 -13  156.49    7.27
  17   1 -13  172.54    8.03
  17   1 -14  436.00   15.20
  17   1 -14  460.37   15.87
  17   1 -15   97.98    5.74
  17   1 -15  105.73    6.21
  17   1 -16  523.08   17.59
  17   1 -16  539.43   18.26
  17   1 -17  105.53    6.02
  17   1 -17  118.06    6.31
  17   1 -18   43.21    4.40
  17   1 -18   40.72    4.88
  17   1 -19   80.68    5.35
  17   1 -19   62.90    4.78
  17   1 -20    1.43    3.44
  17   1 -20    4.59    4.11
  17   1 -21  102.19    5.74
  17   1 -21  110.60    6.02
  17   1 -22  136.79    6.50
  17   1 -22  118.73    6.31
  16   2   7  107.16    4.78
  16   2   7  110.41    4.88
  16   2   6    5.16    3.25
  16   2   6    8.70    3.44
  16   2   2   54.49    4.49
  16   2   2   55.63    4.59
  16   2   1   91.39    5.16
  16   2   1   93.39    5.54
  16   2   0  176.56    7.84
  16   2   0  174.74    7.65
  16   2  -1  316.79   11.18
  16   2  -1  306.18   11.18
  16   2  -2   10.80    3.82
  16   2  -2    6.69    3.54
  16   2  -3  405.89   14.05
  16   2  -3  401.97   14.15
  16   2  -4    6.98    3.82
  16   2  -4    1.05    4.01
  16   2  -5   35.94    4.59
  16   2  -5   34.70    4.59
  16   2  -6   15.01    4.01
  16   2  -6    7.07    3.82
  16   2  -7   11.09    4.21
  16   2  -7   18.45    4.21
  16   2  -8   72.84    5.16
  16   2  -8   72.94    5.54
  16   2  -9  403.11   14.34
  16   2  -9  445.27   15.68
  16   2 -10   -0.96    3.63
  16   2 -10    3.06    4.11
  16   2 -11  116.15    6.12
  16   2 -11  111.56    6.60
  16   2 -12   22.08    4.21
  16   2 -12   23.80    4.30
  16   2 -13  163.08    7.46
  16   2 -13  186.79    8.41
  16   2 -14   -4.88    3.54
  16   2 -14   -2.87    3.92
  16   2 -15  264.70   10.23
  16   2 -15  262.69   10.32
  16   2 -16   75.71    5.35
  16   2 -16   80.87    5.35
  16   2 -17  280.76   10.71
  16   2 -17  277.31   10.61
  16   2 -18    4.30    3.54
  16   2 -18    1.34    3.15
  16   2 -19    7.27    3.63
  16   2 -19    5.64    3.63
  16   2 -20   41.20    4.30
  16   2 -20   42.63    4.30
  16   2 -21  252.75    9.85
  16   2 -21  253.89    9.85
  16   2 -22   24.76    3.92
  16   2 -22   25.33    4.30
  16   2 -23  138.13    6.60
  16   2 -23  129.91    6.88
  15   3   3  277.89   10.04
  15   3   3  291.84   10.42
  15   3   2   30.49    3.63
  15   3   2   33.94    3.82
  15   3   1  492.88   16.54
  15   3   1  458.75   15.39
  15   3   0  273.49    9.94
  15   3   0  262.59    9.85
  15   3  -1    8.13    4.01
  15   3  -1   12.52    3.63
  15   3  -2  181.63    7.74
  15   3  -2  189.27    8.13
  15   3  -3  410.76   14.43
  15   3  -3  431.51   15.01
  15   3  -4   -0.38    3.63
  15   3  -4    2.87    3.92
  15   3  -5  509.51   17.11
  15   3  -5  564.00   18.83
  15   3  -6  212.22    8.79
  15   3  -6  215.08    8.89
  15   3  -7  949.33   30.21
  15   3  -7  955.35   30.40
  15   3  -8   84.31    5.35
  15   3  -8  104.58    6.31
  15   3  -9  433.13   15.29
  15   3  -9  449.00   15.68
  15   3 -10  190.04    8.32
  15   3 -10  198.55    8.70
  15   3 -11  931.26   29.54
  15   3 -11  910.52   29.06
  15   3 -12  182.58    8.13
  15   3 -12  173.79    7.84
  15   3 -13  155.05    7.36
  15   3 -13  161.26    7.65
  15   3 -14  129.05    6.79
  15   3 -14  112.32    6.40
  15   3 -15    1.34    3.54
  15   3 -15    3.92    3.63
  15   3 -16  299.01   10.99
  15   3 -16  301.31   11.38
  15   3 -17  116.81    6.21
  15   3 -17  118.53    6.21
  15   3 -18    2.87    3.44
  15   3 -18    5.35    3.54
  15   3 -19  245.48    9.75
  15   3 -19  233.25    9.27
  15   3 -20  177.42    7.55
  15   3 -20  163.65    7.36
  15   3 -21   44.07    4.21
  15   3 -21   50.47    4.59
  15   3 -22   24.66    4.11
  15   3 -22   27.44    4.40
  15   3 -23   32.98    4.21
  15   3 -23   33.84    4.49
  14   4   6   11.38    2.49
  14   4   6   13.77    2.49
  14   4   3  111.65    5.54
  14   4   3  121.79    5.54
  14   4   2  766.65   24.28
  14   4   2  707.39   22.37
  14   4   1    5.16    3.06
  14   4   1   -0.67    3.15
  14   4   0   -0.86    3.06
  14   4   0    7.17    3.15
  14   4  -1   21.89    3.73
  14   4  -1   21.70    3.54
  14   4  -2   60.61    4.40
  14   4  -2   66.63    4.88
  14   4  -3   73.22    5.16
  14   4  -3   74.37    5.07
  14   4  -4 1337.34   41.10
  14   4  -4 1417.64   43.59
  14   4  -5  204.76    8.32
  14   4  -5  201.99    8.60
  14   4  -7  788.83   25.52
  14   4  -7  760.44   24.76
  14   4  -8   95.40    5.54
  14   4  -8  108.59    6.60
  14   4  -9    5.26    3.35
  14   4  -9   15.01    4.01
  14   4 -10  664.47   21.80
 -14  -4  10  672.97   21.99
  14   4 -11   20.07    4.01
 -14  -4  11   14.82    3.54
  14   4 -12  311.92   11.66
 -14  -4  12  288.40   10.99
  14   4 -13    1.34    3.73
 -14  -4  13   -0.67    3.35
  14   4 -14  263.07   10.42
 -14  -4  14  256.76    9.94
  14   4 -15    6.21    3.54
 -14  -4  15   -0.38    3.44
  14   4 -16  186.79    8.03
 -14  -4  16  198.83    8.13
  14   4 -17  258.87   10.04
  14   4 -17  271.67   10.32
  14   4 -18  320.43   11.76
  14   4 -18  308.38   11.38
  14   4 -19   70.17    4.88
  14   4 -19   71.79    5.07
  14   4 -20   41.30    4.49
  14   4 -20   41.77    4.30
  14   4 -21   24.47    3.92
  14   4 -21   20.84    4.11
  14   4 -22    4.78    3.54
  14   4 -22    3.06    3.73
  14   4 -23   10.04    3.82
  14   4 -23    9.46    4.01
  13   5   6  436.86   13.67
  13   5   6  460.57   14.34
  13   5   5    4.01    2.68
  13   5   5    3.15    2.49
  13   5   4   17.30    3.06
  13   5   4   20.36    2.87
  13   5   3   73.61    4.40
  13   5   3   70.07    4.11
  13   5   2    1.15    3.15
  13   5   2    8.13    2.87
  13   5   1    7.27    3.25
  13   5   1   12.33    3.15
  13   5   0  634.64   20.74
  13   5   0  607.97   19.79
  13   5  -1    8.03    2.96
  13   5  -1    8.13    3.06
  13   5  -2  567.15   18.64
  13   5  -2  579.29   19.02
  13   5  -3   86.13    5.54
  13   5  -3   77.05    4.88
  13   5  -4  566.67   18.64
  13   5  -4  580.44   19.12
  13   5  -5   20.65    3.73
 -13  -5   5   19.60    3.44
  13   5  -6  877.25   27.91
 -13  -5   6  888.34   28.20
  13   5  -7   76.67    5.35
 -13  -5   7   64.05    4.88
  13   5  -8  475.19   16.35
 -13  -5   8  476.63   16.35
  13   5  -9    7.46    3.92
 -13  -5   9    1.34    3.44
  13   5 -10    6.79    3.73
 -13  -5  10    6.69    3.44
  13   5 -11  337.82   12.43
 -13  -5  11  343.37   12.33
  13   5 -12  103.53    5.93
 -13  -5  12  102.28    5.93
  13   5 -13   64.05    5.07
 -13  -5  13   61.27    4.59
  13   5 -14  516.77   17.40
 -13  -5  14  516.01   17.40
  13   5 -15   54.20    4.68
 -13  -5  15   46.36    4.59
  13   5 -16  158.11    7.36
 -13  -5  16  150.18    6.88
  13   5 -17   17.49    3.63
 -13  -5  17   12.04    3.82
  13   5 -18  163.27    7.46
 -13  -5  18  172.64    7.07
  13   5 -19   31.55    4.21
 -13  -5  19   32.50    4.01
  13   5 -20   18.64    3.73
 -13  -5  20   11.95    3.15
  13   5 -21   52.00    4.21
  13   5 -21   39.96    4.21
  13   5 -22  105.25    5.64
  13   5 -22   91.10    5.45
  12   6   6   61.47    2.68
  12   6   6   70.83    2.96
  12   6   3   -3.06    2.77
  12   6   3   -1.82    2.68
  12   6   2  161.93    6.50
  12   6   2  146.73    6.02
  12   6   1  872.09   27.24
  12   6   1  830.32   25.91
  12   6   0   66.72    4.40
  12   6   0   61.66    4.49
  12   6  -1 1147.11   35.08
  12   6  -1 1099.32   33.84
  12   6  -2  206.48    8.41
 -12  -6   2  215.47    8.51
  12   6  -3   90.43    5.35
 -12  -6   3   90.43    5.26
  12   6  -4 1067.77   33.27
 -12  -6   4 1093.58   34.13
  12   6  -5  130.96    6.50
 -12  -6   5  123.60    6.40
  12   6  -6    4.59    3.44
 -12  -6   6    7.84    3.54
  12   6  -7 1079.24   33.74
 -12  -6   7 1104.10   34.51
  12   6  -8   -2.10    3.35
 -12  -6   8    2.87    3.54
  12   6  -9  458.18   15.96
 -12  -6   9  401.49   14.43
  12   6 -10  539.14   18.07
 -12  -6  10  540.86   18.35
  12   6 -11   18.83    3.82
 -12  -6  11    6.79    3.35
  12   6 -12   13.96    3.92
 -12  -6  12   11.76    3.63
  12   6 -13  199.12    8.51
 -12  -6  13  158.11    7.07
  12   6 -14   -1.53    3.35
 -12  -6  14    3.06    3.25
  12   6 -15   55.06    4.88
 -12  -6  15   61.08    4.68
  12   6 -16  336.49   12.24
 -12  -6  16  334.86   11.85
  12   6 -17    2.87    3.35
 -12  -6  17    8.03    3.44
  12   6 -18   25.33    4.01
 -12  -6  18   14.43    3.25
  12   6 -19    1.72    3.54
 -12  -6  19    1.63    3.15
  12   6 -20   -2.20    3.63
 -12  -6  20    5.16    3.54
  12   6 -21  180.67    7.84
 -12  -6  21  193.38    8.03
  12   6 -22   -0.57    3.44
 -12  -6  22   -1.91    3.25
  11   7   4    4.01    2.29
  11   7   4    7.93    2.58
  11   7   3   51.33    3.54
  11   7   3   61.18    3.82
  11   7   2   21.32    2.96
  11   7   2   20.46    2.68
  11   7   1   34.60    3.44
  11   7   1   38.14    3.73
  11   7   0   27.24    3.63
 -11  -7   0   24.38    3.15
  11   7  -1   99.89    5.16
 -11  -7   1   99.42    5.26
  11   7  -2    1.05    3.15
 -11  -7   2   -1.15    3.15
  11   7  -3 1766.55   53.63
 -11  -7   3 1800.01   54.68
  11   7  -4   79.53    4.97
 -11  -7   4   85.84    5.35
  11   7  -5   95.69    5.64
 -11  -7   5   96.45    5.64
  11   7  -6   39.67    4.40
 -11  -7   6   43.21    4.40
  11   7  -7   -0.10    3.44
 -11  -7   7    2.77    3.54
  11   7  -8   12.14    3.35
 -11  -7   8   18.93    3.82
  11   7  -9  834.72   26.67
 -11  -7   9  799.06   26.00
  11   7 -10    1.15    3.35
 -11  -7  10   -3.44    3.25
  11   7 -11  729.37   23.61
 -11  -7  11  773.06   24.95
  11   7 -12    8.99    3.63
 -11  -7  12    9.46    3.82
  11   7 -13    0.86    3.35
 -11  -7  13   10.13    3.25
  11   7 -14    2.96    3.54
 -11  -7  14    2.77    3.44
  11   7 -15   19.12    3.92
 -11  -7  15   15.10    3.44
  11   7 -16   85.56    5.45
 -11  -7  16   87.18    5.26
  11   7 -17  186.02    8.03
 -11  -7  17  193.86    8.03
  11   7 -18    7.65    3.44
 -11  -7  18   11.95    3.35
  11   7 -19   77.91    4.97
 -11  -7  19   86.99    5.07
  11   7 -20    7.46    3.35
 -11  -7  20    4.78    3.63
  11   7 -21    3.73    4.01
 -11  -7  21   -2.39    3.73
  11   7 -22    0.76    4.11
 -11  -7  22    5.26    3.44
  10   8   4    2.49    2.68
  10   8   4    2.01    2.20
  10   8   3   83.07    4.01
  10   8   3   82.78    4.30
  10   8   2  192.62    7.55
 -10  -8  -2  200.08    7.55
  10   8   1  287.35   10.23
 -10  -8  -1  292.42   10.42
  10   8   0   27.53    3.54
 -10  -8   0   28.68    3.54
  10   8  -1   68.54    4.59
 -10  -8   1   84.70    5.07
  10   8  -2  137.56    6.40
 -10  -8   2  139.37    6.40
  10   8  -3    0.76    3.54
 -10  -8   3    5.45    3.44
  10   8  -4  425.87   14.53
 -10  -8   4  438.01   15.10
  10   8  -5  262.31   10.32
 -10  -8   5  240.03    9.75
  10   8  -6   17.02    3.82
 -10  -8   6   16.06    3.73
  10   8  -7  516.87   17.59
 -10  -8   7  497.56   16.92
  10   8  -8  329.13   12.33
 -10  -8   8  294.43   11.18
  10   8  -9  343.56   12.52
 -10  -8   9  345.57   13.00
  10   8 -10  403.31   14.15
 -10  -8  10  401.11   14.05
  10   8 -11    2.39    3.44
 -10  -8  11    9.37    3.92
  10   8 -12   69.78    5.16
 -10  -8  12   79.72    5.07
  10   8 -13   95.02    5.54
 -10  -8  13   82.21    5.16
  10   8 -14   76.47    5.35
 -10  -8  14   79.25    5.45
  10   8 -15  154.57    7.36
 -10  -8  15  151.61    6.88
  10   8 -16  282.29   10.71
 -10  -8  16  277.41   10.52
  10   8 -17   30.97    3.92
 -10  -8  17   31.35    3.63
  10   8 -18   97.22    5.45
 -10  -8  18  102.09    5.64
  10   8 -19   26.00    3.92
 -10  -8  19   37.57    4.01
  10   8 -20   21.03    4.01
 -10  -8  20   42.54    4.11
  10   8 -21   93.97    5.54
 -10  -8  21   79.34    5.07
   9   9   5  184.78    6.69
   9   9   5  183.44    6.79
   9   9   4  194.24    7.17
  -9  -9  -4  196.06    7.27
   9   9   3    4.21    2.39
  -9  -9  -3    2.58    2.49
   9   9   2 1201.60   36.71
  -9  -9  -2 1171.97   35.85
   9   9   1    5.54    2.87
  -9  -9  -1    1.43    2.77
   9   9   0  921.80   28.68
  -9  -9   0  912.72   28.68
   9   9  -1   -1.43    3.35
  -9  -9   1    1.72    3.06
   9   9  -2  146.45    6.69
  -9  -9   2  145.87    6.98
   9   9  -3   58.60    4.68
  -9  -9   3   58.12    4.59
   9   9  -4  844.94   26.96
  -9  -9   4  970.27   30.49
   9   9  -5   78.00    5.26
  -9  -9   5   73.61    5.35
   9   9  -6  366.88   13.29
  -9  -9   6  347.67   12.71
   9   9  -7    2.29    3.54
  -9  -9   7    6.12    3.63
   9   9  -8  320.90   12.04
  -9  -9   8  368.51   13.48
   9   9  -9   41.87    4.30
  -9  -9   9   47.89    4.49
   9   9 -10   25.71    3.82
  -9  -9  10   32.12    4.01
   9   9 -11   19.21    3.73
  -9  -9  11   25.71    4.01
   9   9 -12  430.36   15.01
  -9  -9  12  406.56   14.05
   9   9 -13   21.80    3.92
  -9  -9  13   15.39    3.82
   9   9 -14  530.44   17.88
  -9  -9  14  511.99   17.30
   9   9 -15  116.72    6.12
  -9  -9  15  106.59    5.64
   9   9 -16   45.60    4.49
  -9  -9  16   57.45    4.78
   9   9 -17   33.17    4.11
  -9  -9  17   34.22    4.11
   9   9 -18   20.84    3.73
  -9  -9  18   18.45    3.54
   9   9 -19    9.18    3.63
  -9  -9  19    0.29    3.73
   9   9 -20   96.17    6.02
  -9  -9  20  102.67    5.74
   9   9 -21   52.48    4.78
  -9  -9  21   38.05    4.21
   8  10   5    7.36    2.29
  -8 -10  -5   11.18    2.39
   8  10   4  417.64   13.77
  -8 -10  -4  419.17   13.77
   8  10   3  240.32    8.79
  -8 -10  -3  259.06    9.37
   8  10   2   69.50    4.11
  -8 -10  -2   76.67    4.49
   8  10   1  726.70   23.13
  -8 -10  -1  736.35   23.32
   8  10   0  367.36   12.81
  -8 -10   0  362.30   12.62
   8  10  -1   10.52    3.35
  -8 -10   1   16.92    3.44
   8  10  -2 1143.29   35.46
  -8 -10   2 1203.51   37.28
   8  10  -3  196.73    8.13
  -8 -10   3  201.13    8.41
   8  10  -4  660.26   21.70
  -8 -10   4  630.05   20.74
   8  10  -5  152.76    7.17
  -8 -10   5  143.96    6.88
   8  10  -6  413.92   14.63
  -8 -10   6  409.33   14.43
   8  10  -7  116.53    6.60
  -8 -10   7  107.73    5.93
   8  10  -8  278.46   10.80
  -8 -10   8  281.23   10.99
   8  10  -9   48.94    4.40
  -8 -10   9   52.29    4.49
   8  10 -10  363.54   13.10
  -8 -10  10  412.96   14.91
   8  10 -11   38.14    4.21
  -8 -10  11   43.02    4.21
   8  10 -12  164.90    7.55
  -8 -10  12  164.99    7.46
   8  10 -13    7.84    3.54
  -8 -10  13    9.85    3.73
   8  10 -14    0.48    3.35
  -8 -10  14    7.84    3.44
   8  10 -15   36.99    4.30
  -8 -10  15   37.47    4.01
   8  10 -16  272.34   10.52
  -8 -10  16  284.87   10.42
   8  10 -17   17.88    3.82
  -8 -10  17   16.54    3.54
   8  10 -18  140.33    6.88
  -8 -10  18  157.44    7.07
   8  10 -19   51.05    4.88
  -8 -10  19   51.05    4.30
   8  10 -20   14.63    3.73
  -8 -10  20   15.20    3.92
   7  11   7    2.49    1.72
   7  11   7    2.49    1.91
   7  11   6   17.40    2.49
  -7 -11  -6   14.63    2.39
   7  11   5  821.24   25.24
  -7 -11  -5  814.07   25.24
   7  11   4    4.88    2.49
  -7 -11  -4    5.74    2.87
   7  11   3  156.20    6.60
  -7 -11  -3  149.79    6.50
   7  11   2   30.30    3.54
  -7 -11  -2   31.16    3.54
   7  11   1  183.16    7.36
  -7 -11  -1  176.75    7.36
   7  11   0  111.94    5.83
  -7 -11   0  115.95    5.83
   7  11  -1  475.29   16.06
  -7 -11   1  464.29   15.77
   7  11  -2   78.00    5.07
  -7 -11   2   70.45    4.97
   7  11  -3  360.96   13.00
  -7 -11   3  374.25   13.38
   7  11  -4   34.32    4.30
  -7 -11   4   26.19    4.01
   7  11  -5   11.95    3.82
  -7 -11   5   20.65    3.73
   7  11  -6  227.42    9.37
  -7 -11   6  207.34    8.79
   7  11  -7   95.59    5.74
  -7 -11   7  110.31    6.12
   7  11  -8   24.09    3.92
  -7 -11   8   26.48    4.11
   7  11  -9  511.42   17.40
  -7 -11   9  521.17   17.40
   7  11 -10    4.21    3.73
  -7 -11  10    3.25    3.73
   7  11 -11  127.23    6.60
  -7 -11  11  136.03    6.69
   7  11 -12    8.22    3.63
  -7 -11  12    6.12    3.44
   7  11 -13   34.99    4.21
  -7 -11  13   35.46    4.01
   7  11 -14   26.10    4.11
  -7 -11  14   14.63    3.35
   7  11 -15  134.50    6.69
  -7 -11  15  145.78    6.69
   7  11 -16   25.33    3.82
  -7 -11  16   24.47    3.44
   7  11 -17  374.05   13.19
  -7 -11  17  334.00   11.85
   7  11 -18    2.29    3.63
  -7 -11  18   -0.38    3.35
   7  11 -19    4.88    3.63
  -7 -11  19    1.82    3.63
   7  11 -20   24.57    4.59
  -7 -11  20   13.19    4.01
   6  12   8   21.80    2.10
  -6 -12  -8   44.07    2.58
   6  12   7  243.67    8.51
  -6 -12  -7  243.09    8.41
   6  12   6  154.29    6.21
  -6 -12  -6  146.07    5.93
   6  12   5   34.22    3.35
  -6 -12  -5   25.33    3.15
   6  12   4  375.87   12.71
  -6 -12  -4  371.47   12.52
   6  12   3  570.88   18.45
  -6 -12  -3  583.50   18.93
   6  12   2   40.63    3.82
  -6 -12  -2   29.44    3.73
   6  12   1  158.59    6.98
  -6 -12  -1  164.04    7.27
   6  12   0  109.84    5.64
  -6 -12   0  116.34    6.02
   6  12  -1   21.22    3.82
  -6 -12   1   19.31    3.82
   6  12  -2  351.11   12.62
  -6 -12   2  375.01   13.38
   6  12  -3   41.01    4.30
  -6 -12   3   44.93    4.49
   6  12  -4  100.56    6.12
  -6 -12   4   83.17    5.45
   6  12  -5  627.85   20.74
  -6 -12   5  642.77   21.22
   6  12  -6  236.50    9.56
  -6 -12   6  193.10    8.22
   6  12  -7  570.50   19.02
  -6 -12   7  540.58   18.35
   6  12  -8    7.36    3.54
  -6 -12   8    8.99    3.82
   6  12  -9   79.15    5.35
  -6 -12   9   64.24    5.07
   6  12 -10   12.81    3.73
  -6 -12  10   15.10    4.01
   6  12 -11  266.89   10.42
  -6 -12  11  261.73    9.94
   6  12 -12   71.22    5.07
  -6 -12  12   78.19    5.35
   6  12 -13  456.26   15.58
  -6 -12  13  438.29   15.10
   6  12 -14    7.65    3.73
  -6 -12  14    2.58    3.06
   6  12 -15  418.22   14.43
  -6 -12  15  423.86   14.72
   6  12 -16   71.69    5.07
  -6 -12  16   47.03    4.21
   6  12 -17   89.19    5.35
  -6 -12  17  105.34    5.83
   6  12 -18    8.03    3.73
  -6 -12  18    9.27    3.44
   6  12 -19  118.06    6.21
  -6 -12  19  113.37    5.83
   5  13   9   -1.91    1.72
  -5 -13  -9    2.58    1.91
   5  13   8  223.02    7.93
  -5 -13  -8  201.51    7.27
   5  13   7   82.88    4.30
  -5 -13  -7   74.66    4.21
   5  13   6    0.29    2.77
  -5 -13  -6    0.96    2.68
   5  13   5  179.33    7.17
  -5 -13  -5  182.01    7.46
   5  13   4  141.96    6.31
  -5 -13  -4  141.09    6.40
   5  13   3   61.66    4.40
  -5 -13  -3   65.39    4.49
   5  13   2  759.77   24.18
  -5 -13  -2  745.72   23.80
   5  13   1  149.32    6.69
  -5 -13  -1  163.37    7.27
   5  13   0  328.74   12.04
  -5 -13   0  328.65   12.14
   5  13  -1  149.99    6.88
  -5 -13   1  149.70    7.27
   5  13  -2  107.73    5.93
  -5 -13   2  115.48    6.40
   5  13  -3  179.62    8.03
  -5 -13   3  180.57    8.03
   5  13  -4 1056.30   33.17
  -5 -13   4 1056.30   32.98
   5  13  -5  131.92    6.79
  -5 -13   5  135.45    6.88
   5  13  -6 1335.43   41.30
  -5 -13   6 1435.80   43.97
   5  13  -7   11.18    3.82
  -5 -13   7   14.43    4.01
   5  13  -8   98.75    5.93
  -5 -13   8  109.17    5.93
   5  13  -9  248.16    9.94
  -5 -13   9  240.99    9.75
   5  13 -10   65.39    5.07
  -5 -13  10   76.86    5.45
   5  13 -11    1.63    3.82
  -5 -13  11   -1.72    3.15
   5  13 -12  472.71   16.06
  -5 -13  12  460.28   15.77
   5  13 -13   67.11    4.97
  -5 -13  13   60.03    4.59
   5  13 -14  462.86   15.87
  -5 -13  14  428.06   14.63
   5  13 -15   13.67    3.73
  -5 -13  15   24.76    3.54
   5  13 -16    5.07    3.82
  -5 -13  16    2.58    3.44
   5  13 -17    2.29    3.54
  -5 -13  17   -0.48    3.63
   5  13 -18  184.78    7.84
  -5 -13  18  194.44    8.03
   4  14  10   -0.67    1.82
  -4 -14 -10   91.96    3.92
   4  14   9   65.58    3.92
  -4 -14  -9   80.20    4.01
   4  14   8  253.42    8.99
  -4 -14  -8  235.73    8.51
   4  14   7   38.72    3.73
  -4 -14  -7   36.23    3.54
   4  14   6  252.36    9.37
  -4 -14  -6  228.08    8.70
   4  14   5   11.57    3.06
  -4 -14  -5    8.89    3.35
   4  14   4  261.92    9.75
  -4 -14  -4  268.14   10.04
   4  14   3    0.19    3.25
  -4 -14  -3    4.59    3.44
   4  14   2    8.32    3.44
  -4 -14  -2    3.06    3.63
   4  14   1  317.65   11.57
  -4 -14  -1  305.61   11.38
   4  14   0  220.53    8.99
  -4 -14   0  239.56    9.65
   4  14  -1  246.25    9.85
  -4 -14   1  237.64    9.65
   4  14  -2  937.76   29.54
  -4 -14   2  975.05   30.69
   4  14  -3  405.50   14.34
  -4 -14   3  425.48   14.91
   4  14  -4   93.49    5.83
  -4 -14   4  105.25    5.93
   4  14  -5   40.05    4.59
  -4 -14   5   35.08    4.59
   4  14  -6  117.01    6.50
  -4 -14   6  127.14    6.50
   4  14  -7   55.25    4.88
  -4 -14   7   64.81    5.16
   4  14  -8  431.70   15.10
  -4 -14   8  396.81   13.86
   4  14  -9   18.35    4.11
  -4 -14   9   15.77    4.11
   4  14 -10  226.65    9.27
  -4 -14  10  302.26   11.28
   4  14 -11   78.58    5.16
  -4 -14  11   90.81    5.26
   4  14 -12    6.50    3.73
  -4 -14  12    5.74    3.54
   4  14 -13  124.08    6.40
  -4 -14  13  123.98    6.21
   4  14 -14  273.97   10.32
  -4 -14  14  235.06    9.27
   4  14 -15   -6.21    3.44
  -4 -14  15    0.38    3.44
   4  14 -16   86.99    5.35
  -4 -14  16   74.18    4.88
   4  14 -17   18.54    3.82
  -4 -14  17   25.52    4.30
   3  15  11   -1.53    2.01
  -3 -15 -11  105.15    4.49
   3  15  10    0.86    2.96
  -3 -15 -10   66.72    4.11
   3  15   9   33.84    3.54
  -3 -15  -9   30.88    3.25
   3  15   8   41.49    3.92
  -3 -15  -8   49.23    3.92
   3  15   7   79.34    4.88
  -3 -15  -7   80.01    4.78
   3  15   6   11.09    3.54
  -3 -15  -6   11.47    3.35
   3  15   5  230.86    8.99
  -3 -15  -5  223.21    8.79
   3  15   4  118.34    5.83
  -3 -15  -4  115.48    6.12
   3  15   3   36.61    4.30
  -3 -15  -3   28.30    4.21
   3  15   2   74.85    5.07
  -3 -15  -2   78.96    5.45
   3  15   1  277.12   10.52
  -3 -15  -1  260.30   10.23
   3  15   0   16.44    3.73
  -3 -15   0   15.96    3.82
   3  15  -1  161.65    7.55
  -3 -15   1  163.94    7.55
   3  15  -2   18.93    3.92
  -3 -15   2   20.46    3.92
   3  15  -3  213.08    8.99
  -3 -15   3  216.42    8.99
   3  15  -4  256.95   10.23
  -3 -15   4  236.59    9.65
   3  15  -5    4.49    3.73
  -3 -15   5    9.08    3.92
   3  15  -6  142.62    7.07
  -3 -15   6  157.35    7.55
   3  15  -7  171.97    7.93
  -3 -15   7  158.11    7.55
   3  15  -8    0.00    3.63
  -3 -15   8   -3.92    3.44
   3  15  -9  674.50   21.89
  -3 -15   9  704.14   22.75
   3  15 -10  228.37    9.18
  -3 -15  10  239.46    9.37
   3  15 -11   83.26    5.26
  -3 -15  11   78.48    4.97
   3  15 -12  106.97    6.02
  -3 -15  12  121.69    6.21
   3  15 -13  202.08    8.41
  -3 -15  13  184.69    7.74
   3  15 -14   -3.25    3.35
  -3 -15  14    0.96    3.44
   3  15 -15  129.24    6.50
  -3 -15  15  141.00    6.50
   3  15 -16   24.76    3.92
  -3 -15  16   31.83    4.11
  -2 -16 -12   11.57    3.35
   2  16  11   -1.34    3.35
  -2 -16 -11  296.91   10.42
   2  16  10    0.76    3.35
  -2 -16 -10   -5.35    3.15
   2  16   9  364.59   12.62
  -2 -16  -9  352.83   12.14
   2  16   8    3.35    3.25
  -2 -16  -8    0.67    3.25
   2  16   7    8.89    3.63
  -2 -16  -7    4.01    3.54
   2  16   6   40.34    4.30
  -2 -16  -6   53.53    4.40
   2  16   5  141.09    6.60
  -2 -16  -5  136.98    6.50
   2  16   4   73.32    4.88
  -2 -16  -4   74.37    5.16
   2  16   3  275.79   10.32
  -2 -16  -3  268.62   10.32
   2  16   2    6.31    3.73
  -2 -16  -2    9.27    3.92
   2  16   1  200.74    8.41
  -2 -16  -1  200.27    8.60
   2  16   0  157.92    7.36
  -2 -16   0  144.15    6.98
   2  16  -1   94.64    5.64
  -2 -16   1  100.85    5.93
   2  16  -2  606.34   20.07
  -2 -16   2  599.56   19.88
   2  16  -3   77.05    5.26
  -2 -16   3   80.01    5.35
   2  16  -4   13.96    3.92
  -2 -16   4    7.46    3.92
   2  16  -5  299.59   11.28
  -2 -16   5  319.57   11.85
   2  16  -6   48.27    4.59
  -2 -16   6   40.24    4.88
   2  16  -7   56.78    4.68
  -2 -16   7   57.45    5.07
   2  16  -8    1.82    3.54
  -2 -16   8    2.01    3.35
   2  16  -9  107.54    5.93
  -2 -16   9  100.56    5.83
   2  16 -10   67.20    4.97
  -2 -16  10   74.56    5.35
   2  16 -11  483.51   16.35
  -2 -16  11  483.13   16.16
   2  16 -12   -4.59    3.54
  -2 -16  12   10.80    3.54
   2  16 -13   10.71    3.73
  -2 -16  13   10.04    3.63
   2  16 -14   -3.54    3.73
  -2 -16  14    4.78    3.44
   1  17  12    0.10    4.11
  -1 -17 -12   22.08    4.49
   1  17  11    2.01    3.92
  -1 -17 -11   13.96    4.21
   1  17  10   58.89    5.35
  -1 -17 -10   45.50    4.68
   1  17   9   68.44    5.16
  -1 -17  -9   73.51    5.07
   1  17   8   56.21    4.78
  -1 -17  -8   48.37    4.49
   1  17   7  236.02    9.18
  -1 -17  -7  213.08    8.51
   1  17   6   14.15    3.63
  -1 -17  -6   17.30    3.92
   1  17   5    4.49    3.63
  -1 -17  -5    2.39    3.63
   1  17   4  216.33    8.79
  -1 -17  -4  213.75    8.89
   1  17   3    1.63    3.63
  -1 -17  -3    1.24    3.63
   1  17   2   14.63    3.73
  -1 -17  -2   23.23    3.82
   1  17   1   67.87    4.88
  -1 -17  -1   67.01    4.97
   1  17   0   86.99    5.54
  -1 -17   0   79.44    5.35
   1  17  -1    3.54    3.54
  -1 -17   1    3.63    3.54
   1  17  -2   11.66    3.73
  -1 -17   2    8.13    3.92
   1  17  -3   37.38    4.21
  -1 -17   3   39.86    4.40
   1  17  -4  112.51    6.31
  -1 -17   4  104.29    6.02
   1  17  -5    0.29    3.54
  -1 -17   5    4.59    3.82
   1  17  -6   70.83    4.97
  -1 -17   6  104.00    5.93
   1  17  -7  101.14    5.74
  -1 -17   7  129.81    6.79
   1  17  -8  123.51    6.50
  -1 -17   8  132.78    6.69
   1  17  -9   37.28    4.21
  -1 -17   9   47.80    4.59
   1  17 -10   95.59    5.74
  -1 -17  10   92.92    5.35
   1  17 -11   67.78    4.88
  -1 -17  11   56.78    4.68
   1  17 -12   72.55    4.97
  -1 -17  12   77.05    4.88
   1  17 -13   23.23    4.01
  -1 -17  13   21.13    4.21
   0  18  11   11.09    5.07
   0 -18 -11    4.30    4.59
   0  18  10    1.72    4.40
   0 -18 -10   -0.48    4.21
   0  18   9    6.50    4.01
   0 -18  -9    2.77    3.82
   0  18   8  240.89    9.37
   0 -18  -8  219.29    8.79
   0  18   7   40.72    4.30
   0 -18  -7   27.82    4.01
   0  18   6  174.65    7.46
   0 -18  -6  189.85    8.22
   0  18   5    4.49    3.54
   0 -18  -5    5.16    3.82
   0  18   4    3.73    3.73
   0 -18  -4   -1.82    3.82
   0  18   3   41.58    4.40
   0 -18  -3   47.80    4.78
   0  18   2  276.84   10.61
   0 -18  -2  257.53   10.04
   0  18   1    3.92    3.63
   0 -18  -1   11.57    4.11
   0  18   0  296.53   11.09
   0 -18   0  311.54   11.47
   0  18  -1   19.21    3.92
   0 -18   1   11.38    4.01
   0  18  -2  251.60    9.75
   0 -18   2  259.92   10.23
   0  18  -3   43.88    4.49
   0 -18   3   50.86    4.78
   0  18  -4    2.87    3.54
   0 -18   4    2.58    3.54
   0  18  -5    0.96    3.54
   0 -18   5    0.57    3.82
   0  18  -6  189.08    8.03
   0 -18   6  189.66    8.13
   0  18  -7   50.09    4.40
   0 -18   7   38.05    4.11
   0  18  -8  245.39    9.56
   0 -18   8  231.72    9.18
   0  18  -9   14.82    3.82
   0 -18   9    8.79    4.01
   0  18 -10   -1.05    3.44
   0 -18  10    0.48    3.73
   0  18 -11    5.54    3.63
   0 -18  11    7.93    3.54
  -1  19  10   59.17    5.74
   1 -19 -10   64.53    5.54
  -1  19   9   45.98    4.88
   1 -19  -9   49.23    4.59
  -1  19   8   -5.83    4.21
   1 -19  -8    1.63    4.21
  -1  19   7  217.47    8.89
   1 -19  -7  207.82    8.70
  -1  19   6   22.27    4.30
   1 -19  -6   35.66    4.59
  -1  19   5   28.49    4.40
   1 -19  -5   25.33    4.21
  -1  19   4  245.77    9.85
   1 -19  -4  226.27    9.27
  -1  19   3   10.13    3.82
   1 -19  -3    9.46    3.92
  -1  19   2   60.70    4.68
   1 -19  -2   59.65    4.97
  -1  19   1  132.49    6.60
   1 -19  -1  123.98    6.60
  -1  19   0    2.29    3.63
   1 -19   0   -2.10    3.73
  -1  19  -1   16.16    3.92
   1 -19   1   17.02    4.21
  -1  19  -2  215.08    8.89
   1 -19   2  223.40    8.89
  -1  19  -3    0.19    3.63
   1 -19   3    3.73    3.73
  -1  19  -4  197.59    8.41
   1 -19   4  205.43    8.60
  -1  19  -5   54.39    4.59
   1 -19   5   47.61    4.59
  -1  19  -6   17.88    3.63
   1 -19   6   21.60    4.01
  -1  19  -7  156.77    6.98
   1 -19   7  143.20    6.98
  -1  19  -8   46.36    4.40
   1 -19   8   43.88    4.49
  -1  19  -9    3.35    3.54
   1 -19   9   -2.68    3.54
  -2  20   9   32.60    4.78
   2 -20  -9   36.61    5.16
  -2  20   8    9.75    4.21
   2 -20  -8    4.40    4.11
  -2  20   7    6.60    4.40
   2 -20  -7   16.63    4.21
  -2  20   6   26.57    4.30
   2 -20  -6   18.83    4.21
  -2  20   5  159.83    7.27
   2 -20  -5  186.02    8.13
  -2  20   4    8.22    4.11
   2 -20  -4    9.46    3.92
  -2  20   3  115.67    6.12
   2 -20  -3   96.36    5.74
  -2  20   2   -0.38    3.54
   2 -20  -2    6.88    3.82
  -2  20   1   27.05    4.11
   2 -20  -1   25.33    4.21
  -2  20   0   49.52    4.49
   2 -20   0   61.85    4.97
  -2  20  -1  112.23    6.12
   2 -20   1  110.12    6.02
  -2  20  -2    2.10    3.63
   2 -20   2    5.16    3.92
  -2  20  -3  128.57    6.21
   2 -20   3  103.34    6.12
  -2  20  -4   14.15    3.73
   2 -20   4   14.72    3.92
  -2  20  -5   89.00    5.35
   2 -20   5   88.90    5.26
  -2  20  -6    7.74    3.54
   2 -20   6    8.99    3.63
  -2  20  -7   21.13    3.82
   2 -20   7   28.39    4.59
  -3  21   7  104.96    6.50
   3 -21  -7   94.25    5.93
  -3  21   6   35.27    4.40
   3 -21  -6   52.29    4.97
  -3  21   5   19.12    4.11
   3 -21  -5   13.19    4.21
  -3  21   4   40.72    4.49
   3 -21  -4   31.45    4.59
  -3  21   3   36.52    4.59
   3 -21  -3   36.52    4.49
  -3  21   2    0.19    3.63
   3 -21  -2   -0.57    3.73
  -3  21   1  159.16    7.36
   3 -21  -1  150.27    7.07
  -3  21   0   -4.49    3.54
   3 -21   0    3.44    3.82
  -3  21  -1   43.40    4.40
   3 -21   1   46.27    4.59
  -3  21  -2   11.57    3.82
   3 -21   2    6.02    3.63
  -3  21  -3   12.04    3.63
   3 -21   3   12.04    4.40
  -3  21  -4   -0.67    3.63
   3 -21   4    1.72    3.82
  24  -4  -8   25.81    4.30
  24  -4  -8   33.08    4.49
  24  -4  -9   -0.57    3.73
  24  -4  -9   -4.40    3.82
  24  -4 -10   12.91    4.11
  24  -4 -10   16.16    4.21
  24  -4 -11   14.34    3.82
  24  -4 -11   19.60    4.21
  24  -4 -12   31.35    4.40
  24  -4 -12   33.36    4.30
  24  -4 -13    8.99    3.54
  24  -4 -13    6.31    3.73
  24  -4 -14   53.34    4.40
  24  -4 -14   50.09    4.40
  24  -4 -15    0.67    3.63
  24  -4 -15    1.91    4.11
  23  -3  -4    9.65    4.01
  23  -3  -4    6.12    4.30
  23  -3  -5  156.39    7.36
  23  -3  -5  143.48    7.27
  23  -3  -6    8.41    4.01
  23  -3  -6    4.97    4.40
  23  -3  -7   68.06    5.26
  23  -3  -7   56.40    5.07
  23  -3  -8   33.74    4.21
  23  -3  -8   26.10    4.40
  23  -3  -9   32.69    4.30
  23  -3  -9   36.99    4.30
  23  -3 -10   66.82    5.07
  23  -3 -10   71.69    5.16
  23  -3 -11    4.59    4.01
  23  -3 -11    5.16    4.01
  23  -3 -12   12.24    3.92
  23  -3 -12   -0.38    4.21
  23  -3 -13   93.39    5.93
  23  -3 -13   95.31    5.83
  23  -3 -14   14.15    4.21
  23  -3 -14    0.38    4.01
  23  -3 -15   28.30    4.40
  23  -3 -15   28.39    4.30
  23  -3 -16   67.30    4.97
  23  -3 -16   53.63    4.59
  23  -3 -17    6.88    3.92
  23  -3 -17   11.09    4.01
  23  -3 -18    6.02    4.30
  23  -3 -18    5.35    3.82
  22  -2  -1   39.29    5.07
  22  -2  -2    3.54    4.11
  22  -2  -2    4.11    4.21
  22  -2  -3  258.00    9.94
  22  -2  -3  265.17   10.32
  22  -2  -4   -1.05    3.92
  22  -2  -4   -2.58    4.40
  22  -2  -5   32.79    4.40
  22  -2  -5   41.68    5.07
  22  -2  -6   39.19    4.59
  22  -2  -6   49.52    4.88
  22  -2  -7    5.54    3.82
  22  -2  -7    8.41    4.40
  22  -2  -8    3.73    3.82
  22  -2  -8    7.17    4.11
  22  -2  -9  252.27    9.75
  22  -2  -9  273.49   10.52
  22  -2 -10   56.40    5.16
  22  -2 -10   53.82    4.97
  22  -2 -11  252.56    9.56
  22  -2 -11  245.00    9.94
  22  -2 -12   21.22    4.40
  22  -2 -12   18.07    4.30
  22  -2 -13   81.73    5.16
  22  -2 -13   83.26    5.64
  22  -2 -14    6.79    3.82
  22  -2 -14    5.93    3.82
  22  -2 -16   21.32    4.21
  22  -2 -16   27.72    4.30
  22  -2 -17  192.05    8.22
  22  -2 -17  202.75    8.51
  22  -2 -18    2.10    4.01
  22  -2 -18    6.98    3.73
  22  -2 -19   55.73    4.88
  22  -2 -19   51.33    4.59
  21  -1   0   32.21    4.78
  21  -1   0   28.10    4.88
  21  -1  -1   68.35    5.54
  21  -1  -1   63.86    5.16
  21  -1  -2  158.30    7.65
  21  -1  -2  160.88    7.65
  21  -1  -3    9.65    3.92
  21  -1  -3    0.96    4.78
  21  -1  -4  128.29    6.60
  21  -1  -4  140.62    6.88
  21  -1  -5    4.97    3.82
  21  -1  -5    1.34    4.11
  21  -1  -6    2.68    3.54
  21  -1  -6    1.24    3.82
  21  -1  -7  355.99   12.71
  21  -1  -7  365.93   13.19
  21  -1  -8   89.28    5.64
  21  -1  -8   91.48    5.54
  21  -1  -9   10.71    3.92
  21  -1  -9   10.42    4.01
  21  -1 -10  400.92   13.86
  21  -1 -10  399.39   13.96
  21  -1 -11    2.77    4.01
  21  -1 -11   -1.43    3.92
  21  -1 -12  219.39    8.89
  21  -1 -12  221.97    9.08
  21  -1 -13  121.31    6.50
  21  -1 -13  116.24    6.31
  21  -1 -14   79.15    5.74
  21  -1 -14   64.72    4.97
  21  -1 -15   60.51    4.88
  21  -1 -15   68.16    4.97
  21  -1 -16  116.15    6.40
  21  -1 -16  116.05    6.21
  21  -1 -17   12.91    4.40
  21  -1 -17   21.99    4.30
  21  -1 -18   50.09    4.97
  21  -1 -18   39.96    4.49
  21  -1 -19   93.97    5.74
  21  -1 -19   81.83    5.45
  21  -1 -20    0.10    3.63
  21  -1 -20   -0.86    3.73
  20   0   1    1.43    4.59
  20   0   1    6.60    4.21
  20   0   0  129.43    6.79
  20   0   0  122.36    6.40
  20   0  -1   -4.11    4.30
  20   0  -1    2.87    4.59
  20   0  -2   11.09    4.30
  20   0  -2    7.84    4.40
  20   0  -3    0.10    3.54
  20   0  -3   -1.53    3.63
  20   0  -4   30.69    4.21
  20   0  -4   30.30    4.40
  20   0  -5   -3.44    3.92
  20   0  -5    1.72    3.92
  20   0  -6  579.01   18.83
  20   0  -6  529.58   17.78
  20   0  -7    2.49    3.82
  20   0  -7    2.96    3.92
  20   0  -8   44.83    4.59
  20   0  -8   40.05    4.40
  20   0  -9    7.65    4.30
  20   0  -9    4.78    3.82
  20   0 -10    1.72    3.54
  20   0 -10    3.63    3.73
  20   0 -11   -1.63    3.54
  20   0 -11    4.49    3.82
  20   0 -12  384.09   13.29
  20   0 -12  413.15   14.53
  20   0 -13    1.34    3.54
  20   0 -13    4.40    3.82
  20   0 -14  954.49   29.92
  20   0 -14  937.19   29.44
  20   0 -15    0.29    3.63
  20   0 -15   -1.43    3.73
  20   0 -16   -1.15    3.82
  20   0 -16    2.49    3.82
  20   0 -17    6.79    3.82
  20   0 -17    0.76    3.73
  20   0 -18   84.89    5.45
  20   0 -18   86.51    5.93
  20   0 -19    8.03    3.92
  20   0 -19    3.44    3.82
  20   0 -20  280.28   10.42
  20   0 -20  255.33    9.85
  20   0 -21    1.63    3.25
  20   0 -21   -2.01    3.73
  19   1   2    1.72    4.40
  19   1   2    6.50    3.92
  19   1   0   43.59    5.07
  19   1   0   49.33    4.59
  19   1  -1   15.87    4.11
  19   1  -1   19.41    3.92
  19   1  -2  118.15    6.02
  19   1  -2  116.34    6.02
  19   1  -3   38.72    4.30
  19   1  -3   45.22    4.49
  19   1  -4   49.61    4.68
  19   1  -4   43.69    4.49
  19   1  -5  226.36    8.99
  19   1  -5  211.45    8.70
  19   1  -6   85.08    5.64
  19   1  -6   94.16    5.74
  19   1  -7  229.90    9.18
  19   1  -7  206.58    8.79
  19   1  -8  238.41    9.94
  19   1  -8  211.26    8.99
  19   1  -9   16.06    4.01
  19   1  -9    4.88    4.11
  19   1 -10  222.35    8.89
  19   1 -10  233.34    9.56
  19   1 -11   12.62    4.11
  19   1 -11   11.09    3.92
  19   1 -12    0.00    3.35
  19   1 -12    7.27    4.01
  19   1 -13  275.69   10.90
  19   1 -13  265.75   10.42
  19   1 -14   36.71    4.30
  19   1 -14   43.40    4.88
  19   1 -15   28.39    4.21
  19   1 -15   25.33    4.21
  19   1 -16  392.89   13.96
  19   1 -16  413.92   14.63
  19   1 -17    6.40    3.92
  19   1 -17    1.15    3.73
  19   1 -18   87.95    5.35
  19   1 -18   91.86    5.54
  19   1 -19   91.29    5.45
  19   1 -19  110.51    6.12
  19   1 -20    1.63    3.54
  19   1 -20    2.39    4.11
  19   1 -21   19.41    3.63
  19   1 -21   15.77    4.01
  19   1 -22   21.41    3.73
  19   1 -22   22.75    4.11
  18   2   4   -0.57    4.59
  18   2   4   -1.34    3.92
  18   2   3    3.54    3.82
  18   2   3    6.21    4.21
  18   2   2    8.22    4.30
  18   2   2   22.08    4.11
  18   2   1    0.67    3.82
  18   2   1    0.86    4.01
  18   2   0    4.78    3.54
  18   2   0    8.89    3.63
  18   2  -1  168.82    7.65
  18   2  -1  171.40    7.74
  18   2  -2   77.53    5.45
  18   2  -2   66.34    4.97
  18   2  -3   26.19    4.01
  18   2  -3   15.58    4.01
  18   2  -4    7.46    3.92
  18   2  -4    4.21    3.73
  18   2  -5   16.92    3.82
  18   2  -5   12.62    3.82
  18   2  -6    3.35    4.11
  18   2  -6   -0.57    3.73
  18   2  -7  313.16   11.57
  18   2  -7  298.82   11.47
  18   2  -8   95.78    5.93
  18   2  -8   85.17    5.64
  18   2  -9  260.01   10.13
  18   2  -9  280.09   10.99
  18   2 -10   22.08    3.92
  18   2 -10   16.25    4.21
  18   2 -12   -1.15    3.25
  18   2 -12    7.46    4.01
  18   2 -13  202.75    8.79
  18   2 -13  200.36    8.60
  18   2 -14   11.28    3.73
  18   2 -14   18.83    4.21
  18   2 -16    1.72    3.92
  18   2 -16    9.65    3.82
  18   2 -17  582.92   19.12
  18   2 -17  544.59   18.16
  18   2 -18   -3.15    3.63
  18   2 -18    6.88    3.92
  18   2 -19   24.38    4.01
  18   2 -19   22.27    4.11
  18   2 -20   17.21    4.01
  18   2 -20   19.79    3.92
  18   2 -21   25.14    4.21
  18   2 -21   24.28    4.01
  18   2 -22   39.96    4.21
  18   2 -22   49.23    4.59
  17   3   2   35.27    4.30
  17   3   2   49.42    4.40
  17   3   1   90.43    5.26
  17   3   1   92.15    5.35
  17   3   0  184.78    7.74
  17   3   0  206.48    8.41
  17   3  -1  331.52   12.04
  17   3  -1  317.85   11.47
  17   3  -2    4.40    3.44
  17   3  -2   16.06    3.73
  17   3  -3  108.78    6.02
  17   3  -3   97.22    5.93
  17   3  -4  191.85    7.93
  17   3  -4  197.30    8.60
  17   3  -6  246.92    9.94
  17   3  -6  250.07   10.04
  17   3  -7  114.71    5.83
  17   3  -7  126.09    6.98
  17   3  -8   59.75    5.45
  17   3  -8   60.51    4.97
  17   3  -9    2.87    3.63
  17   3  -9   -2.39    3.73
  17   3 -10  123.60    6.60
  17   3 -10  118.15    6.60
  17   3 -12   18.93    3.82
  17   3 -12   31.83    4.49
  17   3 -14   37.85    4.30
  17   3 -14   32.88    4.49
  17   3 -15  102.86    5.93
  17   3 -15  103.14    5.93
  17   3 -16  391.55   13.96
  17   3 -16  426.25   14.82
  17   3 -17   94.64    5.64
  17   3 -17  104.77    5.93
  17   3 -18   19.88    3.82
  17   3 -18   31.35    4.30
  17   3 -19  124.37    6.40
  17   3 -19  133.45    6.50
  17   3 -20   10.71    3.63
  17   3 -20   15.39    3.82
  17   3 -21  115.95    5.83
  17   3 -21  110.31    6.12
  17   3 -22    2.01    3.63
  17   3 -22    0.86    3.54
  16   4   6    0.19    2.77
  16   4   6    2.68    2.96
  16   4   3    1.34    3.44
  16   4   3   -2.29    2.87
  16   4   2  379.89   13.00
  16   4   2  377.69   12.91
  16   4   1    2.87    3.82
  16   4   1    6.98    3.54
  16   4   0  232.29    9.08
  16   4   0  222.06    8.89
  16   4  -1   49.04    4.21
  16   4  -1   52.86    4.49
  16   4  -2   71.98    4.97
  16   4  -2   72.08    4.88
  16   4  -3    8.13    3.82
  16   4  -3   10.99    3.82
  16   4  -4  449.09   15.39
  16   4  -4  442.31   15.20
  16   4  -5   53.25    5.26
  16   4  -5   57.83    4.88
  16   4  -7   20.17    3.82
  16   4  -7   14.63    3.92
  16   4  -8    3.63    3.82
  16   4  -8    3.82    3.82
  16   4 -10  463.82   16.35
  16   4 -10  432.94   15.29
  16   4 -11   13.57    3.73
  16   4 -11   15.49    3.92
  16   4 -12  446.70   15.49
  16   4 -12  436.38   15.39
  16   4 -13   11.85    3.63
  16   4 -13   17.11    4.11
  16   4 -14  205.05    8.79
  16   4 -14  213.94    8.99
  16   4 -15   13.77    3.73
  16   4 -15   11.47    3.63
  16   4 -16  113.28    6.40
  16   4 -16  107.92    5.93
  16   4 -17   56.50    4.68
  16   4 -17   53.53    4.59
  16   4 -18  221.20    8.79
  16   4 -18  202.08    8.51
  16   4 -19   -3.06    3.54
  16   4 -19   -2.39    3.44
  16   4 -20  243.00    9.46
  16   4 -20  240.51    9.37
  16   4 -21   29.82    4.01
  16   4 -21   32.50    4.40
  16   4 -22  116.43    5.93
  16   4 -22  120.45    6.21
  15   5   2   46.08    4.21
  15   5   2   37.95    3.63
  15   5   1   -2.01    3.25
  15   5   1    3.25    3.15
  15   5   0  162.70    7.07
  15   5   0  160.60    7.07
  15   5  -1   30.49    3.82
  15   5  -1   39.00    4.01
  15   5  -2  493.64   16.82
  15   5  -2  488.38   16.44
  15   5  -3    2.77    3.63
  15   5  -3    2.77    3.15
  15   5  -4  338.78   12.62
  15   5  -4  340.31   12.52
  15   5  -5  139.47    6.79
  15   5  -5  144.92    6.98
  15   5  -6   41.87    4.30
  15   5  -6   46.55    4.68
  15   5  -7   18.54    4.01
  15   5  -7   13.10    3.73
  15   5  -8  735.20   23.90
  15   5  -8  725.17   23.61
  15   5  -9   31.16    4.30
  15   5 -10   14.63    3.92
 -15  -5  10   14.72    3.54
  15   5 -11   -5.74    3.63
 -15  -5  11    3.73    3.63
  15   5 -12  223.21    9.27
 -15  -5  12  203.99    8.60
  15   5 -13   10.90    3.82
 -15  -5  13   14.34    3.63
  15   5 -14  268.04   10.52
 -15  -5  14  281.52   10.90
  15   5 -15    8.22    3.73
 -15  -5  15   -0.86    3.06
  15   5 -16  115.28    6.21
 -15  -5  16  116.43    6.12
  15   5 -17   19.50    3.73
 -15  -5  17   15.68    3.44
  15   5 -18   30.69    4.21
  15   5 -19    3.15    3.44
  15   5 -19    3.73    3.63
  15   5 -20  232.29    9.08
  15   5 -20  227.32    9.08
  15   5 -21   55.73    4.59
  15   5 -21   46.17    4.59
  15   5 -22  217.57    8.51
  15   5 -22  231.05    9.08
  14   6   6   29.92    1.82
  14   6   3    5.74    3.15
  14   6   3    7.55    2.87
  14   6   2  324.35   11.38
  14   6   2  300.16   10.52
  14   6   1    4.11    3.06
  14   6   1    5.93    3.54
  14   6   0    6.12    3.15
  14   6   0    9.65    3.35
  14   6  -1  899.62   28.39
  14   6  -1  905.45   28.30
  14   6  -2  167.77    7.36
  14   6  -2  179.91    7.93
  14   6  -3   52.29    4.40
  14   6  -3   49.90    4.40
  14   6  -4  194.15    8.51
  14   6  -4  185.16    8.32
  14   6  -5   12.33    3.54
 -14  -6   5   11.09    3.15
  14   6  -6  599.84   19.88
 -14  -6   6  566.77   18.93
  14   6  -7  349.77   12.81
 -14  -6   7  335.15   12.24
  14   6  -8   39.10    4.49
 -14  -6   8   33.74    3.92
  14   6  -9  432.84   15.20
 -14  -6   9  449.00   15.49
  14   6 -10  568.78   19.02
 -14  -6  10  547.36   18.16
  14   6 -11   38.62    4.40
 -14  -6  11   36.13    4.30
  14   6 -12  101.62    5.93
 -14  -6  12   91.39    5.26
  14   6 -13   71.60    5.35
 -14  -6  13   71.98    5.07
  14   6 -14   80.39    5.35
 -14  -6  14   78.48    5.16
  14   6 -15   32.21    4.21
 -14  -6  15   39.38    4.11
  14   6 -16   62.04    4.78
 -14  -6  16   47.61    4.49
  14   6 -17   79.44    5.45
 -14  -6  17   64.24    4.40
  14   6 -18  254.75    9.94
 -14  -6  18  256.09    9.75
  14   6 -19   85.84    5.26
 -14  -6  19   91.39    4.97
  14   6 -20    5.16    3.82
 -14  -6  20    2.87    3.54
  14   6 -21  137.18    6.60
  14   6 -22   24.95    4.01
  14   6 -22   14.63    4.11
  13   7   3  605.48   19.21
  13   7   3  595.16   18.83
  13   7   2   87.85    4.88
  13   7   2   89.86    4.97
  13   7   1   36.13    3.73
  13   7   1   43.69    3.73
  13   7   0   -0.38    2.68
  13   7   0   -3.73    2.96
  13   7  -1   16.63    3.25
  13   7  -1   12.24    3.15
  13   7  -2  106.49    5.83
  13   7  -2  111.46    5.35
  13   7  -3 1419.55   43.40
 -13  -7   3 1353.59   41.58
  13   7  -4   13.29    3.63
 -13  -7   4    0.86    3.44
  13   7  -5 1210.20   37.47
 -13  -7   5 1253.22   38.81
  13   7  -6   71.69    5.07
 -13  -7   6   76.76    5.26
  13   7  -7    1.63    3.54
 -13  -7   7   19.60    4.11
  13   7  -8   28.58    4.30
 -13  -7   8   38.14    4.21
  13   7  -9  168.43    7.74
 -13  -7   9  172.83    7.65
  13   7 -10   16.92    3.92
 -13  -7  10   14.43    3.82
  13   7 -11 1168.14   36.42
 -13  -7  11 1167.19   36.33
  13   7 -12    5.16    3.73
 -13  -7  12   -2.01    3.15
  13   7 -13   43.02    4.59
 -13  -7  13   46.65    4.59
  13   7 -14    0.57    3.63
 -13  -7  14   -1.82    3.06
  13   7 -15   -2.20    3.44
 -13  -7  15    9.46    3.63
  13   7 -16    1.82    3.25
 -13  -7  16    0.19    3.25
  13   7 -17  342.89   12.33
 -13  -7  17  336.87   11.66
  13   7 -18   47.22    4.40
 -13  -7  18   58.98    4.78
  13   7 -19  146.83    6.88
 -13  -7  19  150.37    6.79
  13   7 -20    3.82    3.73
 -13  -7  20    3.73    3.63
  13   7 -21   -1.91    3.35
 -13  -7  21    4.11    3.63
  13   7 -22   12.14    4.21
 -13  -7  22    8.41    3.44
  12   8   3   43.97    3.44
  12   8   3   50.66    3.63
  12   8   2   12.14    3.15
  12   8   2   17.97    3.06
  12   8   1  291.56   10.52
  12   8   1  292.04   10.23
  12   8   0   66.05    4.49
 -12  -8   0   65.39    4.21
  12   8  -1  253.42    9.46
 -12  -8   1  257.14    9.65
  12   8  -2  161.55    7.27
 -12  -8   2  168.53    7.17
  12   8  -3  146.83    6.69
 -12  -8   3  122.26    6.12
  12   8  -4  669.24   21.89
 -12  -8   4  583.40   19.31
  12   8  -5 1004.68   31.64
 -12  -8   5  966.44   30.49
  12   8  -6  104.29    5.83
 -12  -8   6  125.04    6.50
  12   8  -7   66.25    5.07
 -12  -8   7   71.98    5.16
  12   8  -8   48.47    4.68
 -12  -8   8   43.21    4.59
  12   8  -9  157.82    7.36
 -12  -8   9  146.73    6.88
  12   8 -10  678.71   22.27
 -12  -8  10  678.90   22.27
  12   8 -11   11.76    4.11
 -12  -8  11    6.02    3.44
  12   8 -12  143.58    7.07
 -12  -8  12  156.29    7.46
  12   8 -13  148.65    7.17
 -12  -8  13  139.37    7.07
  12   8 -14   65.58    5.07
 -12  -8  14   60.13    4.30
  12   8 -15  252.36    9.85
 -12  -8  15  246.15    9.94
  12   8 -16   21.03    3.73
 -12  -8  16   38.14    4.01
  12   8 -17    1.53    3.35
 -12  -8  17    5.26    3.06
  12   8 -18  243.09    9.46
 -12  -8  18  218.91    8.60
  12   8 -19   17.88    3.63
 -12  -8  19   31.74    3.82
  12   8 -20   96.84    5.74
 -12  -8  20  113.85    5.83
  12   8 -21   24.18    4.01
 -12  -8  21   26.19    4.11
  12   8 -22   31.55    5.16
 -12  -8  22   21.99    4.21
  11   9   5   -1.91    2.49
  11   9   5    2.01    2.20
  11   9   4   30.97    3.35
  11   9   4   27.91    3.06
  11   9   3   18.74    3.06
  11   9   3   12.81    2.77
  11   9   2  833.76   25.91
 -11  -9  -2  850.11   26.48
  11   9   1    1.34    3.06
 -11  -9  -1    5.26    2.87
  11   9   0 1162.41   35.85
 -11  -9   0 1295.28   39.67
  11   9  -1    2.77    2.96
 -11  -9   1    8.03    3.15
  11   9  -2  232.77    9.18
 -11  -9   2  241.56    9.27
  11   9  -3  156.10    7.07
 -11  -9   3  150.85    6.98
  11   9  -4  205.24    8.51
 -11  -9   4  193.00    8.22
  11   9  -5  270.72   10.61
 -11  -9   5  249.78    9.94
  11   9  -6 1116.52   34.89
 -11  -9   6 1148.07   35.85
  11   9  -7   38.33    4.59
 -11  -9   7   45.50    4.30
  11   9  -8  225.89    9.37
 -11  -9   8  227.70    9.18
  11   9  -9  105.92    6.12
 -11  -9   9   98.17    5.54
  11   9 -10  175.13    8.03
 -11  -9  10  162.13    7.55
  11   9 -11  112.13    6.31
 -11  -9  11  105.53    5.83
  11   9 -12  281.14   10.80
 -11  -9  12  249.31   10.13
  11   9 -13    3.44    3.35
 -11  -9  13    1.34    3.06
  11   9 -14  474.81   16.25
 -11  -9  14  432.46   14.82
  11   9 -15    1.43    3.54
 -11  -9  15   -0.57    3.73
  11   9 -16  106.11    6.02
 -11  -9  16   99.99    5.16
  11   9 -17   47.99    4.30
 -11  -9  17   54.01    4.59
  11   9 -18   -2.58    3.44
 -11  -9  18    4.68    3.06
  11   9 -19    8.51    3.73
 -11  -9  19    2.39    3.63
  11   9 -20  173.98    7.74
 -11  -9  20  142.62    6.60
  11   9 -21   -2.29    3.54
 -11  -9  21    0.10    3.44
  10  10   4  239.84    8.60
  10  10   4  250.36    8.89
  10  10   3  278.84   10.04
 -10 -10  -3  274.45    9.75
  10  10   2  196.35    7.74
 -10 -10  -2  191.19    7.55
  10  10   1  560.36   18.16
 -10 -10  -1  582.92   19.12
  10  10   0  290.60   10.52
 -10 -10   0  266.70   10.04
  10  10  -1    1.05    3.35
 -10 -10   1    3.06    3.25
  10  10  -2 1229.32   37.76
 -10 -10   2 1239.84   38.24
  10  10  -3   72.55    5.16
 -10 -10   3   78.96    5.16
  10  10  -4   80.87    5.45
 -10 -10   4   78.10    5.16
  10  10  -5 1240.79   38.43
 -10 -10   5 1265.65   39.19
  10  10  -6    6.31    3.44
 -10 -10   6    8.32    3.63
  10  10  -7  259.44   10.23
 -10 -10   7  283.24   10.80
  10  10  -8   78.67    5.26
 -10 -10   8   71.98    4.97
  10  10  -9  200.17    8.60
 -10 -10   9  191.09    8.32
  10  10 -10  558.84   18.74
 -10 -10  10  555.30   18.54
  10  10 -11   27.91    4.01
 -10 -10  11   22.85    3.73
  10  10 -12  399.39   14.24
 -10 -10  12  404.36   14.34
  10  10 -13   28.96    4.11
 -10 -10  13   23.90    3.63
  10  10 -14   27.63    3.92
 -10 -10  14   23.99    4.01
  10  10 -15  364.97   12.91
 -10 -10  15  356.18   12.71
  10  10 -16   97.31    5.74
 -10 -10  16   99.89    5.35
  10  10 -17   -0.29    3.54
 -10 -10  17    2.49    3.44
  10  10 -18  405.22   14.05
 -10 -10  18  408.47   13.96
  10  10 -19  101.52    6.02
 -10 -10  19  130.87    6.50
  10  10 -20    3.82    3.73
 -10 -10  20   -0.38    3.25
  10  10 -21    8.79    4.21
 -10 -10  21    3.54    3.63
   9  11   6   -2.58    2.20
   9  11   6   -2.29    2.10
   9  11   5  279.51    9.56
  -9 -11  -5  262.21    8.99
   9  11   4   20.17    2.87
  -9 -11  -4   20.74    2.77
   9  11   3  290.70   10.23
  -9 -11  -3  286.78   10.23
   9  11   2    6.31    3.06
  -9 -11  -2    6.12    2.96
   9  11   1   15.39    3.35
  -9 -11  -1   18.35    3.06
   9  11   0   39.00    3.82
  -9 -11   0   42.25    3.92
   9  11  -1  268.42   10.04
  -9 -11   1  273.59   10.13
   9  11  -2  720.00   23.13
  -9 -11   2  705.19   22.75
   9  11  -3  348.72   12.62
  -9 -11   3  349.01   12.52
   9  11  -4   53.34    4.68
  -9 -11   4   54.58    4.59
   9  11  -5   32.98    4.01
  -9 -11   5   38.43    4.30
   9  11  -6   68.92    4.97
  -9 -11   6   75.61    4.97
   9  11  -7  607.11   20.17
  -9 -11   7  614.18   20.27
   9  11  -8   49.04    4.40
  -9 -11   8   52.29    4.40
   9  11  -9  406.65   14.43
  -9 -11   9  423.95   14.91
   9  11 -10   52.67    4.59
  -9 -11  10   46.36    4.21
   9  11 -11  355.51   13.00
  -9 -11  11  350.44   12.71
   9  11 -12   32.69    4.30
  -9 -11  12   27.15    3.92
   9  11 -13   25.14    4.01
  -9 -11  13   28.10    3.82
   9  11 -14   24.28    3.92
  -9 -11  14   18.64    3.82
   9  11 -15  127.81    6.60
  -9 -11  15  128.19    6.31
   9  11 -16    8.51    3.44
  -9 -11  16    3.82    3.35
   9  11 -17  406.27   14.15
  -9 -11  17  440.97   14.63
   9  11 -18    4.11    3.82
  -9 -11  18   11.47    3.63
   9  11 -19   26.67    4.01
  -9 -11  19   17.30    3.73
   9  11 -20    5.35    3.63
  -9 -11  20    5.54    3.82
   8  12   6   30.97    2.96
  -8 -12  -6   35.08    2.96
   8  12   5   -1.34    2.49
  -8 -12  -5   -1.53    2.49
   8  12   4   66.82    4.21
  -8 -12  -4   70.74    4.40
   8  12   3  146.54    6.31
  -8 -12  -3  150.94    6.50
   8  12   2    9.46    2.96
  -8 -12  -2    9.08    3.15
   8  12   1  468.40   15.68
  -8 -12  -1  472.80   15.77
   8  12   0   12.24    3.44
  -8 -12   0    2.96    2.96
   8  12  -1    5.45    3.06
  -8 -12   1    5.07    3.06
   8  12  -2  604.62   19.98
  -8 -12   2  582.26   19.21
   8  12  -3    6.50    3.25
  -8 -12   3    7.36    3.35
   8  12  -4    9.46    3.63
  -8 -12   4   11.47    3.54
   8  12  -5  150.75    7.17
  -8 -12   5  152.28    7.07
   8  12  -6  181.82    8.13
  -8 -12   6  172.35    7.55
   8  12  -7  118.44    6.31
  -8 -12   7  126.56    6.50
   8  12  -8   20.36    4.01
  -8 -12   8   13.29    3.54
   8  12  -9   42.06    4.40
  -8 -12   9   53.34    4.78
   8  12 -10  147.50    7.17
  -8 -12  10  135.17    6.69
   8  12 -11  130.96    6.79
  -8 -12  11  132.30    6.79
   8  12 -12   48.94    4.49
  -8 -12  12   44.55    4.40
   8  12 -13  330.66   12.24
  -8 -12  13  326.64   11.57
   8  12 -14   65.48    4.97
  -8 -12  14   64.33    4.88
   8  12 -15  177.52    7.84
  -8 -12  15  192.52    7.74
   8  12 -16   41.30    4.40
  -8 -12  16   41.58    4.11
   8  12 -17   -2.01    3.54
  -8 -12  17    5.07    3.35
   8  12 -18  105.25    5.83
  -8 -12  18  101.33    5.64
   8  12 -19   37.09    4.01
  -8 -12  19   35.94    4.21
   7  13   8   -1.34    1.82
   7  13   8    0.86    1.82
   7  13   7   41.39    3.25
  -7 -13  -7   35.66    3.06
   7  13   6   15.39    2.77
  -7 -13  -6   11.57    2.77
   7  13   5   56.11    4.01
  -7 -13  -5   57.83    4.01
   7  13   4   13.67    3.06
  -7 -13  -4   19.02    3.35
   7  13   3   93.87    5.07
  -7 -13  -3   82.40    4.68
   7  13   2  654.71   21.03
  -7 -13  -2  615.14   19.98
   7  13   1  115.28    5.74
  -7 -13  -1  113.37    5.93
   7  13   0  446.13   15.10
  -7 -13   0  462.86   15.87
   7  13  -1   46.08    4.59
  -7 -13   1   42.44    4.21
   7  13  -2   10.61    3.63
  -7 -13   2   13.19    3.54
   7  13  -3  486.38   16.63
  -7 -13   3  509.41   17.21
   7  13  -4  118.34    6.31
  -7 -13   4  119.40    6.31
   7  13  -5    5.83    3.73
  -7 -13   5    1.53    3.44
   7  13  -6  552.62   18.54
  -7 -13   6  582.35   19.41
   7  13  -7  401.20   14.24
  -7 -13   7  408.28   14.43
   7  13  -8  138.90    6.98
  -7 -13   8  139.76    6.98
   7  13  -9   11.76    4.01
  -7 -13   9    9.85    3.82
   7  13 -10   17.59    3.92
  -7 -13  10   11.28    3.44
   7  13 -11   22.18    4.01
  -7 -13  11   17.40    3.92
   7  13 -12  154.86    7.36
  -7 -13  12  177.80    7.55
   7  13 -13    2.29    3.54
  -7 -13  13    1.72    3.35
   7  13 -14  327.60   11.76
  -7 -13  14  295.38   10.90
   7  13 -15   41.01    4.21
  -7 -13  15   32.60    3.73
   7  13 -16   15.77    3.82
  -7 -13  16   17.78    3.54
   7  13 -17   -3.73    3.63
  -7 -13  17   -2.49    3.25
   7  13 -18   73.42    4.88
  -7 -13  18   69.50    4.59
   6  14   8   28.20    3.15
  -6 -14  -8   40.15    3.35
   6  14   7    5.74    3.15
  -6 -14  -7    5.54    2.77
   6  14   6  127.90    5.74
  -6 -14  -6  133.35    5.93
   6  14   5    2.58    2.96
  -6 -14  -5    0.48    2.77
   6  14   4  143.77    6.50
  -6 -14  -4  142.05    6.40
   6  14   3   47.03    4.01
  -6 -14  -3   50.19    4.01
   6  14   2    2.49    3.15
  -6 -14  -2    6.40    3.15
   6  14   1  117.58    6.12
  -6 -14  -1   90.14    5.45
   6  14   0  200.46    8.22
  -6 -14   0  213.84    8.70
   6  14  -1   45.02    4.30
  -6 -14   1   37.09    4.21
   6  14  -2  364.02   13.19
  -6 -14   2  374.72   13.38
   6  14  -3    2.29    3.35
  -6 -14   3    6.88    3.54
   6  14  -4  230.76    9.37
  -6 -14   4  237.17    9.65
   6  14  -5  378.64   13.67
  -6 -14   5  374.91   13.38
   6  14  -6   12.24    3.73
  -6 -14   6   23.61    4.30
   6  14  -7   44.26    4.49
  -6 -14   7   33.84    4.11
   6  14  -8  207.82    8.79
  -6 -14   8  192.14    8.51
   6  14  -9   24.95    4.21
  -6 -14   9   24.47    3.92
   6  14 -10  235.92    9.56
  -6 -14  10  249.40    9.65
   6  14 -11   10.52    3.63
  -6 -14  11    6.40    3.54
   6  14 -12   12.33    3.82
  -6 -14  12    8.89    3.63
   6  14 -13   67.87    4.88
  -6 -14  13   79.44    5.07
   6  14 -14  112.51    6.02
  -6 -14  14  104.39    5.54
   6  14 -15   20.74    3.82
  -6 -14  15   12.71    3.73
   6  14 -16  184.40    8.03
  -6 -14  16  172.45    7.17
   6  14 -17    5.45    3.82
  -6 -14  17    0.57    3.06
   5  15   9    1.24    2.96
  -5 -15  -9    3.82    3.06
   5  15   8   49.04    3.73
  -5 -15  -8   55.06    3.92
   5  15   7  143.96    6.31
  -5 -15  -7  147.50    6.12
   5  15   6   23.42    3.63
  -5 -15  -6   26.67    3.44
   5  15   5   65.29    4.49
  -5 -15  -5   71.69    4.68
   5  15   4   20.46    3.73
  -5 -15  -4   16.35    3.54
   5  15   3  173.79    7.36
  -5 -15  -3  166.52    7.36
   5  15   2    9.08    3.63
  -5 -15  -2   13.19    3.82
   5  15   1   32.12    3.92
  -5 -15  -1   39.67    4.30
   5  15   0   81.83    5.35
  -5 -15   0   73.32    5.35
   5  15  -1    4.78    3.44
  -5 -15   1    2.49    3.54
   5  15  -2    0.76    3.25
  -5 -15   2    1.53    3.63
   5  15  -3  224.07    9.27
  -5 -15   3  225.22    9.18
   5  15  -4   -4.97    3.44
  -5 -15   4   -4.21    3.73
   5  15  -5   64.62    5.07
  -5 -15   5   60.41    4.78
   5  15  -6  232.10    9.56
  -5 -15   6  237.07    9.65
   5  15  -7  149.79    7.36
  -5 -15   7  140.81    6.88
   5  15  -8   55.16    4.78
  -5 -15   8   58.22    4.88
   5  15  -9  286.11   10.90
  -5 -15   9  277.12   10.32
   5  15 -10   67.58    5.07
  -5 -15  10   63.66    4.49
   5  15 -11   21.22    3.92
  -5 -15  11   34.60    4.11
   5  15 -12   94.83    5.64
  -5 -15  12   96.26    5.54
   5  15 -13   29.35    4.01
  -5 -15  13   21.89    3.63
   5  15 -14   61.66    4.68
  -5 -15  14   66.91    4.97
   5  15 -15  259.25    9.94
  -5 -15  15  266.23    9.85
   5  15 -16   24.28    4.11
  -5 -15  16   22.18    3.92
   4  16  10    1.53    3.25
  -4 -16 -10   -6.12    3.44
   4  16   9  213.46    8.41
  -4 -16  -9  213.36    8.22
   4  16   8    2.01    3.25
  -4 -16  -8    3.15    3.06
   4  16   7   11.85    3.35
  -4 -16  -7   15.58    3.35
   4  16   6    7.93    3.63
  -4 -16  -6   11.18    3.35
   4  16   5   84.70    5.07
  -4 -16  -5   86.22    5.26
   4  16   4   54.30    4.21
  -4 -16  -4   49.04    4.30
   4  16   3  162.79    7.27
  -4 -16  -3  159.45    7.17
   4  16   2   43.78    4.30
  -4 -16  -2   37.47    4.30
   4  16   1  442.21   15.20
  -4 -16  -1  450.24   15.49
   4  16   0   91.96    5.45
  -4 -16   0   82.11    5.54
   4  16  -1    5.26    3.35
  -4 -16   1   -2.58    3.82
   4  16  -2  160.12    7.46
  -4 -16   2  172.74    8.03
   4  16  -3  144.63    6.98
  -4 -16   3  143.10    6.98
   4  16  -4   77.33    5.07
  -4 -16   4   82.40    5.45
   4  16  -5  554.44   18.54
  -4 -16   5  535.99   17.97
   4  16  -6   -0.57    3.35
  -4 -16   6   -1.05    3.63
   4  16  -7  168.72    7.36
  -4 -16   7  164.61    7.27
   4  16  -8    9.85    3.44
  -4 -16   8    7.84    3.82
   4  16  -9   22.75    4.01
  -4 -16   9   26.29    4.01
   4  16 -10   19.69    3.92
  -4 -16  10   29.54    3.92
   4  16 -11  403.31   14.05
  -4 -16  11  416.69   14.24
   4  16 -12   35.56    4.30
  -4 -16  12   20.36    4.21
   4  16 -13  160.88    7.27
  -4 -16  13  173.31    7.55
   4  16 -14    0.10    3.73
  -4 -16  14   -0.38    3.44
   4  16 -15   -2.58    3.73
  -4 -16  15    3.44    3.44
   3  17  11   -4.49    3.92
  -3 -17 -11   12.43    4.30
   3  17  10    2.68    4.01
  -3 -17 -10  153.14    6.98
   3  17   9   -2.10    4.11
  -3 -17  -9    0.86    3.63
   3  17   8   59.08    4.78
  -3 -17  -8   57.93    4.68
   3  17   7  311.06   11.18
  -3 -17  -7  291.75   10.61
   3  17   6   66.15    4.88
  -3 -17  -6   67.30    4.78
   3  17   5    4.68    3.73
  -3 -17  -5    5.26    3.73
   3  17   4   95.69    5.64
  -3 -17  -4   90.62    5.54
   3  17   3   97.79    5.45
  -3 -17  -3   96.93    5.64
   3  17   2   99.32    5.64
  -3 -17  -2   91.67    5.83
   3  17   1   19.69    3.73
  -3 -17  -1   25.14    4.21
   3  17   0   22.08    3.92
  -3 -17   0   18.16    4.11
   3  17  -1  405.79   14.34
  -3 -17   1  434.66   15.01
   3  17  -2  199.31    8.41
  -3 -17   2  207.91    8.70
   3  17  -3   31.74    4.21
  -3 -17   3   37.66    4.30
   3  17  -4  175.22    7.65
  -3 -17   4  192.05    8.51
   3  17  -5   18.54    3.73
  -3 -17   5   13.38    3.82
   3  17  -6  108.50    5.93
  -3 -17   6  109.07    6.40
   3  17  -7   63.00    4.78
  -3 -17   7   44.64    4.40
   3  17  -8   13.10    3.73
  -3 -17   8   12.81    3.73
   3  17  -9   88.04    5.54
  -3 -17   9   89.86    5.74
   3  17 -10  139.28    6.79
  -3 -17  10  127.33    6.31
   3  17 -11    0.86    3.44
  -3 -17  11    0.19    3.25
   3  17 -12  111.75    5.93
  -3 -17  12  126.37    6.12
   3  17 -13   87.37    5.35
  -3 -17  13   87.28    5.45
   3  17 -14   -4.68    3.54
  -3 -17  14    3.73    3.44
   2  18  10    3.63    4.88
  -2 -18 -10    5.26    4.30
   2  18   9   -1.05    4.40
  -2 -18  -9    7.93    4.11
   2  18   8   35.08    4.68
  -2 -18  -8   38.81    4.49
   2  18   7   -5.45    3.63
  -2 -18  -7    4.97    3.73
   2  18   6  250.84    9.65
  -2 -18  -6  251.98    9.75
   2  18   5   -7.17    3.82
  -2 -18  -5    1.24    3.73
   2  18   4   45.88    4.21
  -2 -18  -4   47.89    4.68
   2  18   3   39.00    4.49
  -2 -18  -3   31.64    4.30
   2  18   2  121.21    6.31
  -2 -18  -2  101.90    5.93
   2  18   1    2.10    3.54
  -2 -18  -1    1.05    3.82
   2  18   0  620.11   20.46
  -2 -18   0  634.07   20.84
   2  18  -1  171.02    7.55
  -2 -18   1  155.24    7.27
   2  18  -2  130.29    6.79
  -2 -18   2  123.70    6.50
   2  18  -3   61.85    5.07
  -2 -18   3   55.92    4.68
   2  18  -4    6.02    3.63
  -2 -18   4   -0.86    3.73
   2  18  -5    1.43    3.63
  -2 -18   5    8.22    3.92
   2  18  -6  177.71    7.65
  -2 -18   6  145.78    7.17
   2  18  -7   -1.43    3.35
  -2 -18   7    4.78    4.01
   2  18  -8  272.92   10.32
  -2 -18   8  265.17    9.85
   2  18  -9   24.85    3.92
  -2 -18   9   38.24    4.11
   2  18 -10   44.74    4.49
  -2 -18  10   59.65    4.49
   2  18 -11    0.10    3.44
  -2 -18  11    4.11    3.82
   2  18 -12   91.10    5.54
  -2 -18  12   85.17    5.45
   1  19  10   27.15    6.12
   1  19   9   -8.13    4.97
  -1 -19  -9    1.24    4.11
   1  19   8   33.55    4.78
  -1 -19  -8   39.48    4.68
   1  19   7  137.84    6.88
  -1 -19  -7  128.38    6.69
   1  19   6   15.10    4.11
  -1 -19  -6   14.72    4.30
   1  19   5   43.49    4.49
  -1 -19  -5   37.76    4.49
   1  19   4  175.70    7.55
  -1 -19  -4  190.23    8.22
   1  19   3   -2.39    3.73
  -1 -19  -3   -2.29    3.92
   1  19   2  209.92    8.89
  -1 -19  -2  202.56    8.51
   1  19   1   15.68    4.01
  -1 -19  -1   10.42    4.01
   1  19   0   -1.63    3.63
  -1 -19   0   -5.83    3.63
   1  19  -1  129.15    6.31
  -1 -19   1  125.42    6.50
   1  19  -2   74.94    5.26
  -1 -19   2   70.26    5.07
   1  19  -3    9.37    3.73
  -1 -19   3   14.53    4.11
   1  19  -4  248.54    9.85
  -1 -19   4  253.51    9.75
   1  19  -5   19.79    3.92
  -1 -19   5   30.11    4.40
   1  19  -6   30.69    4.30
  -1 -19   6   39.77    4.59
   1  19  -7  232.58    9.08
  -1 -19   7  218.24    8.70
   1  19  -8   -1.05    3.54
  -1 -19   8   -6.60    3.44
   1  19  -9   57.16    4.68
  -1 -19   9   51.72    4.68
   1  19 -10   68.64    4.97
  -1 -19  10   63.38    5.26
   0  20   8    2.39    4.49
   0 -20  -8    1.72    4.59
   0  20   7    3.06    4.01
   0 -20  -7   10.80    4.49
   0  20   6    4.59    4.21
   0 -20  -6    9.56    4.01
   0  20   5   78.48    5.45
   0 -20  -5   81.83    5.35
   0  20   4   22.08    4.11
   0 -20  -4   21.32    4.01
   0  20   3  184.40    8.03
   0 -20  -3  196.63    8.51
   0  20   2    2.58    4.01
   0 -20  -2    3.35    3.92
   0  20   1    9.56    3.82
   0 -20  -1    6.31    3.82
   0  20   0    9.75    3.54
   0 -20   0   13.29    3.73
   0  20  -1    9.46    3.82
   0 -20   1    6.02    3.63
   0  20  -2    3.73    3.63
   0 -20   2    0.48    3.73
   0  20  -3  213.55    8.70
   0 -20   3  220.25    8.79
   0  20  -4   32.79    4.11
   0 -20   4   23.32    4.49
   0  20  -5   82.31    5.26
   0 -20   5   81.06    5.64
   0  20  -6    6.79    3.54
   0 -20   6    8.13    4.01
   0  20  -7    2.10    3.44
   0 -20   7    9.85    3.54
   0  20  -8   -2.20    3.54
   0 -20   8   -4.49    3.92
  -1  21   6    4.68    4.11
   1 -21  -6    9.85    4.49
  -1  21   5   47.99    4.78
   1 -21  -5   39.10    4.88
  -1  21   4   18.45    4.21
   1 -21  -4   14.24    3.82
  -1  21   3   10.90    4.21
   1 -21  -3   14.82    3.92
  -1  21   2   12.71    3.92
   1 -21  -2   13.77    4.01
  -1  21   1  103.81    5.83
   1 -21  -1   91.48    5.64
  -1  21   0    5.83    3.63
   1 -21   0    3.92    3.92
  -1  21  -1  168.63    7.36
   1 -21   1  155.43    6.98
  -1  21  -2   43.49    4.40
   1 -21   2   41.77    4.49
  -1  21  -3    0.96    3.63
   1 -21   3    1.15    3.54
  -1  21  -4   11.66    3.73
   1 -21   4   13.57    4.01
  -1  21  -5   43.40    4.30
   1 -21   5   39.38    4.78
  -2  22   2   32.98    4.68
  -2  22   1    5.64    3.63
   2 -22  -1    4.30    3.73
  -2  22   0   81.54    5.54
  24  -2  -7    9.85    4.11
  24  -2  -7   17.40    4.30
  24  -2  -8   -2.77    3.82
  24  -2  -8   -3.15    3.92
  24  -2  -9  128.48    6.40
  24  -2  -9  141.76    6.50
  24  -2 -10   -0.96    4.11
  24  -2 -10   -2.87    3.82
  24  -2 -11   83.26    5.54
  24  -2 -11   82.40    5.07
  24  -2 -12    6.12    3.82
  24  -2 -12    6.98    4.01
  24  -2 -14    0.29    3.82
  24  -2 -14    6.12    3.92
  24  -2 -15    0.57    4.01
  24  -2 -15    0.19    3.82
  24  -2 -16    9.08    3.63
  24  -2 -16    7.07    3.54
  23  -1  -4   96.93    6.02
  23  -1  -4  104.39    6.12
  23  -1  -5   21.41    4.68
  23  -1  -5   22.18    4.97
  23  -1  -6   20.46    4.30
  23  -1  -6   13.67    4.21
  23  -1  -7   13.19    3.92
  23  -1  -7    9.65    4.11
  23  -1  -8   21.22    4.30
  23  -1  -8    9.75    3.82
  23  -1  -9   25.52    4.78
  23  -1  -9   18.54    4.21
  23  -1 -10   52.00    4.78
  23  -1 -10   59.36    4.97
  23  -1 -11    0.38    3.54
  23  -1 -11    1.05    4.01
  23  -1 -12  115.67    6.31
  23  -1 -12  127.90    6.60
  23  -1 -13   19.41    3.92
  23  -1 -13   15.77    4.01
  23  -1 -14    3.35    3.82
  23  -1 -14   10.42    4.49
  23  -1 -15  137.56    6.88
  23  -1 -15  146.16    6.88
  23  -1 -16  160.40    7.36
  23  -1 -16  165.66    7.17
  23  -1 -17   -2.01    3.92
  23  -1 -17    1.15    3.54
  23  -1 -18   44.93    4.40
  23  -1 -18   50.38    4.78
  22   0  -1   -4.59    5.26
  22   0  -1    3.25    4.30
  22   0  -2   62.14    5.26
  22   0  -2   77.24    5.54
  22   0  -3    0.29    4.40
  22   0  -3    1.53    4.11
  22   0  -4   44.64    4.78
  22   0  -4   43.21    4.88
  22   0  -5   -6.60    4.01
  22   0  -5    4.97    4.11
  22   0  -6   29.16    4.40
  22   0  -6   23.61    4.11
  22   0  -7    1.34    3.73
  22   0  -7    4.97    3.82
  22   0  -8  289.74   10.99
  22   0  -8  313.64   11.57
  22   0  -9    2.10    4.01
  22   0  -9   -0.29    3.92
  22   0 -10   68.16    4.97
  22   0 -10   64.33    5.35
  22   0 -11   -2.29    4.30
  22   0 -11   -1.72    3.92
  22   0 -12   47.03    4.59
  22   0 -12   42.73    4.49
  22   0 -13    0.76    3.82
  22   0 -13    1.91    3.63
  22   0 -14  513.33   17.11
  22   0 -14  522.99   17.68
  22   0 -15    2.87    3.92
  22   0 -15    0.57    3.73
  22   0 -16   37.66    4.40
  22   0 -16   29.16    4.59
  22   0 -17    4.01    4.11
  22   0 -17   -0.86    3.82
  22   0 -18    4.49    4.11
  22   0 -18    2.10    4.11
  22   0 -19   -0.19    4.01
  22   0 -19    0.19    3.63
  22   0 -20  100.66    6.40
  21   1   0   14.24    5.26
  21   1   0   26.10    4.78
  21   1  -1   58.22    5.26
  21   1  -1   62.04    5.26
  21   1  -2  160.79    7.46
  21   1  -2  155.82    7.65
  21   1  -3   19.79    4.49
  21   1  -3    8.32    4.49
  21   1  -4  135.55    7.07
  21   1  -4  144.25    7.27
  21   1  -5    2.01    3.73
  21   1  -5    0.67    3.92
  21   1  -7  356.94   12.43
  21   1  -7  344.80   12.33
  21   1  -8   87.37    5.74
  21   1  -8   92.06    5.64
  21   1  -9   11.95    4.21
  21   1  -9   10.13    4.01
  21   1 -10  399.86   13.77
  21   1 -10  398.33   13.86
  21   1 -11    5.07    3.73
  21   1 -11    2.96    3.82
  21   1 -12  209.44    8.32
  21   1 -12  213.94    8.70
  21   1 -13  112.70    6.31
  21   1 -13  113.37    6.21
  21   1 -14   70.26    4.97
  21   1 -14   71.03    5.26
  21   1 -15   73.61    5.16
  21   1 -15   78.96    5.45
  21   1 -16  113.18    6.50
  21   1 -16  112.13    6.21
  21   1 -17   24.18    4.21
  21   1 -17   18.83    3.92
  21   1 -18   39.29    4.49
  21   1 -18   40.24    4.40
  21   1 -19   84.89    5.45
  21   1 -19   86.22    5.54
  21   1 -20    2.96    3.73
  21   1 -20    5.74    3.73
  20   2   2   -0.96    4.49
  20   2   2   -0.86    5.07
  20   2   1    3.63    5.07
  20   2   1    5.35    4.30
  20   2   0    5.16    4.40
  20   2   0    2.01    4.11
  20   2  -1  283.34   10.71
  20   2  -1  253.80    9.85
  20   2  -2    1.24    3.73
  20   2  -2    6.40    4.01
  20   2  -3  189.66    8.41
  20   2  -3  192.24    8.22
  20   2  -4    2.58    3.63
  20   2  -4    2.10    3.54
  20   2  -5   15.39    3.92
  20   2  -5   17.59    3.92
  20   2  -6    9.85    3.82
  20   2  -6    9.85    4.01
  20   2  -7   89.57    5.74
  20   2  -7   90.53    5.93
  20   2  -8   25.71    3.82
  20   2  -8   17.97    4.11
  20   2  -9  672.69   21.89
  20   2  -9  634.83   20.65
  20   2 -10    8.79    3.73
  20   2 -10   11.09    3.92
  20   2 -11  379.50   13.38
  20   2 -11  381.32   13.57
  20   2 -12   19.31    3.82
  20   2 -12   15.96    4.30
  20   2 -13   11.47    3.82
  20   2 -13   11.28    4.01
  20   2 -14   45.12    4.30
  20   2 -14   42.44    4.59
  20   2 -15   22.56    4.21
  20   2 -15   21.03    4.49
  20   2 -17  429.02   14.53
  20   2 -17  445.18   15.20
  20   2 -18   -3.63    3.73
  20   2 -18    8.70    3.92
  20   2 -19    9.94    3.73
  20   2 -19   15.87    3.92
  20   2 -20    1.43    3.82
  20   2 -20    6.79    3.82
  20   2 -21   16.82    3.63
  20   2 -21   21.99    4.11
  19   3   0  127.04    6.79
  19   3   0  129.81    6.60
  19   3  -1   -2.96    4.21
  19   3  -1    3.82    3.63
  19   3  -2   15.96    4.49
  19   3  -2   15.20    3.82
  19   3  -3    9.08    3.73
  19   3  -3    2.29    3.73
  19   3  -4    4.30    3.73
  19   3  -4   -1.72    3.44
  19   3  -5  355.03   12.81
  19   3  -5  342.70   12.33
  19   3  -6    2.58    3.44
  19   3  -6    4.40    3.73
  19   3  -7  204.47    8.79
  19   3  -7  197.59    8.70
  19   3  -8  122.26    6.21
  19   3  -8  125.61    6.50
  19   3  -9    8.60    4.11
  19   3  -9    7.84    3.82
  19   3 -10   37.66    4.21
  19   3 -10   47.13    4.68
  19   3 -12    2.10    3.35
  19   3 -12    4.97    3.63
  19   3 -13  235.73    9.37
  19   3 -13  208.58    8.79
  19   3 -14   43.21    4.40
  19   3 -14   32.79    4.40
  19   3 -15  264.22   10.42
  19   3 -15  268.81   10.32
  19   3 -16  154.96    7.17
  19   3 -16  151.42    7.27
  19   3 -17    5.07    3.63
  19   3 -17   14.34    3.73
  19   3 -18   25.05    4.11
  19   3 -18   18.54    3.92
  19   3 -19   99.80    5.54
  19   3 -19  105.34    5.83
  19   3 -20    9.46    3.73
  19   3 -20   14.53    4.01
  19   3 -21   15.39    3.63
  19   3 -21   29.16    4.21
  18   4   3   -2.01    4.01
  18   4   3    1.72    3.82
  18   4   1    3.06    4.21
  18   4   1    5.16    3.63
  18   4   0  163.37    7.27
  18   4   0  161.46    7.36
  18   4  -1    0.38    3.82
  18   4  -1    1.43    3.92
  18   4  -2    3.82    3.82
  18   4  -2    8.99    3.44
  18   4  -3   82.97    5.07
  18   4  -3   89.38    5.74
  18   4  -4  346.62   12.33
  18   4  -4  341.74   12.33
  18   4  -5  163.65    7.46
  18   4  -5  155.05    7.17
  18   4  -6  442.69   15.29
  18   4  -6  454.07   15.68
  18   4  -7   51.43    4.88
  18   4  -7   58.50    4.88
  18   4  -8   18.45    3.92
  18   4  -8   10.32    4.11
  18   4  -9   62.14    5.07
  18   4  -9   71.89    5.45
  18   4 -10   72.36    4.97
  18   4 -10   67.39    5.16
  18   4 -11   98.65    6.02
  18   4 -11   98.56    5.93
  18   4 -12  320.81   11.57
  18   4 -12  351.59   12.81
  18   4 -13   66.15    5.07
  18   4 -13   63.19    5.07
  18   4 -14   68.64    4.97
  18   4 -14   76.67    5.35
  18   4 -15  131.82    6.88
  18   4 -15  143.10    6.88
  18   4 -16    0.86    3.63
  18   4 -16   -3.82    3.73
  18   4 -17   16.82    3.92
  18   4 -17   17.21    4.01
  18   4 -18  152.95    7.07
  18   4 -18  152.28    6.98
  18   4 -19    1.24    3.35
  18   4 -19    2.96    3.44
  18   4 -20   62.61    4.68
  18   4 -20   63.28    5.07
  18   4 -21   -1.43    3.35
  18   4 -21   -1.63    3.63
  18   4 -22   12.52    3.63
  18   4 -22   11.57    4.01
  17   5   5    1.91    3.35
  17   5   5    2.87    3.63
  17   5   2    0.96    3.73
  17   5   2    4.01    3.44
  17   5   1   56.59    4.40
  17   5   1   46.74    4.40
  17   5   0  134.31    6.40
  17   5   0  126.28    6.31
  17   5  -1   75.61    4.97
  17   5  -1   78.67    5.07
  17   5  -2  174.55    7.55
  17   5  -2  174.93    7.46
  17   5  -3   31.26    4.01
  17   5  -3   32.50    4.21
  17   5  -4    4.68    3.73
  17   5  -4    0.96    3.25
  17   5  -5  160.50    7.07
  17   5  -5  158.11    7.36
  17   5  -6  139.95    7.07
  17   5  -6  138.71    6.88
  17   5  -7   25.05    3.92
  17   5  -7   24.95    4.30
  17   5  -8  485.71   16.54
  17   5  -8  502.53   17.02
  17   5  -9   19.31    4.01
  17   5  -9   22.27    4.21
  17   5 -10   79.92    5.07
  17   5 -10   98.46    6.02
  17   5 -11  191.47    8.60
  17   5 -11  184.59    8.22
  17   5 -12   11.66    3.35
  17   5 -12   21.89    4.11
  17   5 -13   -0.67    3.54
  17   5 -13    1.43    3.73
  17   5 -14  572.03   18.74
  17   5 -14  558.93   18.64
  17   5 -15   25.14    4.40
  17   5 -15   29.06    4.11
  17   5 -16   25.43    4.01
  17   5 -16   33.65    4.21
  17   5 -17    7.46    3.54
  17   5 -17    2.10    3.73
  17   5 -18  125.99    6.40
  17   5 -18  132.49    6.50
  17   5 -19   -0.10    3.63
  17   5 -19    1.82    3.44
  17   5 -20   -2.87    3.44
  17   5 -20   -0.10    3.63
  17   5 -21    2.20    3.54
  17   5 -21    3.15    3.92
  17   5 -22   53.25    4.40
  17   5 -22   50.19    4.59
  16   6   4   -0.86    3.25
  16   6   4    2.29    3.54
  16   6   3   -4.49    3.54
  16   6   3    3.35    3.25
  16   6   1   14.63    3.35
  16   6   1    3.44    3.44
  16   6   0  184.78    7.65
  16   6   0  178.66    7.46
  16   6  -1   27.24    3.92
  16   6  -1   39.38    4.01
  16   6  -2    6.69    3.25
  16   6  -2   10.90    3.63
  16   6  -3   50.76    4.78
  16   6  -3   61.85    5.07
  16   6  -4    3.73    3.63
  16   6  -4    3.92    3.44
  16   6  -5   43.21    4.40
  16   6  -5   47.70    4.78
  16   6  -6  177.23    8.32
  16   6  -6  157.82    7.55
  16   6  -7  329.03   11.76
  16   6  -7  335.43   12.52
  16   6  -8   -1.63    3.54
  16   6  -8    1.05    3.54
  16   6  -9  370.71   13.38
  16   6  -9  328.46   12.33
  16   6 -10   91.58    5.83
 -16  -6  10   85.65    5.45
  16   6 -11   12.43    3.92
 -16  -6  11   13.38    3.73
  16   6 -12  103.81    6.02
 -16  -6  12  101.81    5.93
  16   6 -13  499.76   17.11
 -16  -6  13  530.54   17.68
  16   6 -14    1.43    3.63
 -16  -6  14   -0.96    3.06
  16   6 -15  204.38    8.60
 -16  -6  15  200.08    8.41
  16   6 -16   17.11    3.82
 -16  -6  16   17.49    3.54
  16   6 -17  119.68    6.40
 -16  -6  17  110.31    5.54
  16   6 -18   28.87    4.11
 -16  -6  18   35.56    3.54
  16   6 -20  108.31    5.74
  16   6 -20  130.10    6.60
  16   6 -21   69.21    4.88
  16   6 -21   78.48    4.68
  16   6 -22   15.87    3.63
  16   6 -22   10.71    4.01
  15   7   2   10.80    3.35
  15   7   2    9.37    3.54
  15   7   1  404.93   13.77
  15   7   1  404.93   13.86
  15   7   0   56.02    4.21
  15   7   0   57.74    4.40
  15   7  -1   57.45    4.49
  15   7  -1   51.05    4.30
  15   7  -2  282.19   10.32
  15   7  -2  267.56   10.04
  15   7  -3  309.82   11.47
  15   7  -3  332.57   12.24
  15   7  -4  130.48    6.31
  15   7  -4  136.79    6.69
  15   7  -5  298.44   11.18
  15   7  -5  300.35   11.47
  15   7  -6    0.96    3.44
 -15  -7   6    5.93    3.25
  15   7  -7  143.29    6.98
 -15  -7   7  137.56    6.60
  15   7  -8   12.14    3.63
 -15  -7   8    7.84    3.63
  15   7  -9   94.64    5.83
 -15  -7   9   94.06    5.54
  15   7 -10   -2.87    3.54
 -15  -7  10    3.63    3.35
  15   7 -11  528.34   17.88
 -15  -7  11  516.97   17.30
  15   7 -12   20.27    4.21
 -15  -7  12   15.10    3.73
  15   7 -13  240.03    9.75
 -15  -7  13  205.72    8.22
  15   7 -14    8.22    3.54
 -15  -7  14    1.05    3.25
  15   7 -15   17.49    3.82
 -15  -7  15   17.02    3.63
  15   7 -16   -5.93    3.54
 -15  -7  16    0.57    3.06
  15   7 -17  167.77    7.55
 -15  -7  17  167.19    7.27
  15   7 -18   -3.73    3.44
 -15  -7  18    6.60    3.44
  15   7 -19  248.16    9.56
 -15  -7  19  269.38   10.23
  15   7 -20    3.35    3.44
 -15  -7  20   13.67    3.54
  15   7 -21   98.27    5.64
 -15  -7  21  108.02    5.54
  15   7 -22    3.35    3.25
  15   7 -22    2.49    3.92
  14   8   2   51.24    4.21
  14   8   2   46.36    3.92
  14   8   1  209.73    8.13
  14   8   1  228.56    8.60
  14   8   0   19.98    3.73
  14   8   0   14.24    3.44
  14   8  -2  196.16    8.22
  14   8  -2  203.99    8.41
  14   8  -3 1140.42   35.27
 -14  -8   3 1136.60   35.37
  14   8  -4  151.04    7.07
 -14  -8   4  142.53    6.69
  14   8  -5   -1.24    3.54
 -14  -8   5    2.49    3.54
  14   8  -6  126.95    6.60
 -14  -8   6  135.65    6.69
  14   8  -7  106.87    6.12
 -14  -8   7   94.83    5.54
  14   8  -8   19.31    4.01
 -14  -8   8    8.70    3.35
  14   8  -9   56.21    4.78
 -14  -8   9   70.07    4.78
  14   8 -10  101.42    6.02
 -14  -8  10   95.69    5.74
  14   8 -11   19.79    4.11
 -14  -8  11   18.74    3.63
  14   8 -12  573.17   19.21
 -14  -8  12  530.44   17.88
  14   8 -13  161.84    7.55
 -14  -8  13  162.03    6.98
  14   8 -14   -2.58    3.35
 -14  -8  14    4.11    3.35
  14   8 -15   67.97    5.07
 -14  -8  15   67.39    4.68
  14   8 -16   39.10    4.30
 -14  -8  16   44.55    4.11
  14   8 -17   31.64    3.92
 -14  -8  17   29.06    3.82
  14   8 -18  115.00    6.21
 -14  -8  18  104.29    5.45
  14   8 -19   33.84    4.01
 -14  -8  19   37.09    4.01
  14   8 -20  201.41    8.41
 -14  -8  20  175.13    7.46
  14   8 -21   84.22    5.07
 -14  -8  21   91.96    5.26
  13   9   3    9.27    3.15
  13   9   3   15.58    2.96
  13   9   2   79.82    4.88
  13   9   2   84.41    4.59
  13   9   1   51.81    3.92
  13   9   1   57.07    4.01
  13   9   0 1199.69   36.80
  13   9   0 1172.92   35.94
  13   9  -1  144.35    6.69
 -13  -9   1  138.13    6.60
  13   9  -2   44.93    4.11
 -13  -9   2   39.58    4.11
  13   9  -3  521.94   17.30
 -13  -9   3  486.09   16.44
  13   9  -4   45.41    4.78
 -13  -9   4   36.13    4.01
  13   9  -5   22.56    3.92
 -13  -9   5   17.40    3.63
  13   9  -6  202.75    8.70
 -13  -9   6  185.83    8.03
  13   9  -7   33.08    4.49
 -13  -9   7   36.23    4.11
  13   9  -8  207.63    8.79
 -13  -9   8  197.30    8.51
  13   9  -9    9.08    3.73
 -13  -9   9    9.56    3.54
  13   9 -10  222.35    9.37
 -13  -9  10  207.44    8.70
  13   9 -11   90.05    5.83
 -13  -9  11   87.47    5.45
  13   9 -12   14.82    4.01
 -13  -9  12    7.55    3.54
  13   9 -13    3.82    3.44
 -13  -9  13    8.51    3.25
  13   9 -14  102.00    5.83
 -13  -9  14   98.27    5.64
  13   9 -15   11.47    3.73
 -13  -9  15    1.63    3.35
  13   9 -16   76.67    5.16
 -13  -9  16   82.02    4.97
  13   9 -17    5.16    3.73
 -13  -9  17    4.30    3.63
  13   9 -18    5.93    3.73
 -13  -9  18    5.35    3.25
  13   9 -19   22.37    3.92
 -13  -9  19   20.93    3.63
  13   9 -20  157.63    7.36
 -13  -9  20  171.49    7.17
  13   9 -21   14.72    3.82
 -13  -9  21   19.50    3.54
  12  10   3   79.72    4.59
  12  10   3   74.18    4.40
  12  10   2   82.11    4.68
  12  10   2   85.17    4.68
  12  10   1  398.81   13.48
 -12 -10  -1  414.20   13.96
  12  10   0    6.50    3.25
 -12 -10   0    1.82    3.06
  12  10  -1    6.50    3.35
 -12 -10   1    6.60    3.15
  12  10  -2  765.12   24.47
 -12 -10   2  796.00   25.33
  12  10  -3  411.72   14.34
 -12 -10   3  426.92   14.63
  12  10  -4  209.35    8.60
 -12 -10   4  221.20    8.99
  12  10  -5   32.98    4.21
 -12 -10   5   24.09    4.01
  12  10  -6   97.98    5.83
 -12 -10   6   87.75    5.54
  12  10  -7  109.07    6.02
 -12 -10   7  115.86    6.31
  12  10  -8   81.16    5.64
 -12 -10   8   76.00    4.97
  12  10  -9   41.39    4.68
 -12 -10   9   42.83    4.30
  12  10 -10  239.08    9.75
 -12 -10  10  231.05    9.08
  12  10 -11    1.91    3.54
 -12 -10  11    6.98    3.44
  12  10 -12  722.49   23.42
 -12 -10  12  752.41   23.99
  12  10 -13   59.65    4.59
 -12 -10  13   60.80    4.68
  12  10 -14   -0.19    3.44
 -12 -10  14    6.98    3.54
  12  10 -15  196.25    8.32
 -12 -10  15  195.30    8.03
  12  10 -16  126.85    6.31
 -12 -10  16  128.57    6.31
  12  10 -17    7.36    3.44
 -12 -10  17    5.45    3.63
  12  10 -18  141.38    6.60
 -12 -10  18  153.71    6.98
  12  10 -19   18.35    4.11
 -12 -10  19   21.32    3.54
  12  10 -20   31.07    4.30
 -12 -10  20   23.71    3.63
  12  10 -21   85.36    5.93
 -12 -10  21   77.14    4.88
  11  11   6    0.29    1.91
  11  11   6   -1.72    2.10
  11  11   4   78.58    4.49
  11  11   4   84.03    4.40
  11  11   3  440.78   14.53
 -11 -11  -3  426.53   14.15
  11  11   2   -0.19    2.96
 -11 -11  -2    0.00    2.77
  11  11   1  100.09    5.35
 -11 -11  -1   98.08    5.35
  11  11   0  120.45    6.02
 -11 -11   0  115.95    5.83
  11  11  -1  141.67    6.60
 -11 -11   1  131.34    6.50
  11  11  -2  314.21   11.38
 -11 -11   2  342.41   12.33
  11  11  -3  401.39   14.15
 -11 -11   3  404.74   14.15
  11  11  -4   12.04    3.35
 -11 -11   4   11.85    3.73
  11  11  -5  711.69   23.13
 -11 -11   5  718.76   23.32
  11  11  -6  172.83    7.84
 -11 -11   6  177.80    7.74
  11  11  -7   31.55    4.30
 -11 -11   7   30.49    4.01
  11  11  -8   -1.43    3.25
 -11 -11   8    4.30    3.35
  11  11  -9  297.10   11.28
 -11 -11   9  296.05   11.28
  11  11 -10    5.93    3.63
 -11 -11  10   -0.10    3.35
  11  11 -11  442.98   15.49
 -11 -11  11  446.42   15.39
  11  11 -12   60.61    4.68
 -11 -11  12   50.95    4.21
  11  11 -13   85.84    5.35
 -11 -11  13   78.96    5.45
  11  11 -14  117.87    6.31
 -11 -11  14  122.36    6.31
  11  11 -15    9.94    3.54
 -11 -11  15   -2.96    3.15
  11  11 -16   -4.97    3.25
 -11 -11  16    3.44    3.25
  11  11 -17  347.29   12.33
 -11 -11  17  346.43   12.24
  11  11 -18    3.44    3.63
 -11 -11  18    8.70    3.63
  11  11 -19  131.73    6.60
 -11 -11  19  130.29    6.31
  11  11 -20    2.87    3.63
 -11 -11  20    5.45    3.44
  10  12   6    8.03    2.39
  10  12   6   -0.29    2.49
  10  12   5   -0.19    2.77
  10  12   5    2.58    2.58
  10  12   4  169.58    6.79
 -10 -12  -4  173.69    6.79
  10  12   3  185.64    7.36
 -10 -12  -3  180.19    7.17
  10  12   2    8.51    3.15
 -10 -12  -2   16.73    3.25
  10  12   1  418.60   14.15
 -10 -12  -1  398.53   13.67
  10  12   0    8.89    3.44
 -10 -12   0    7.07    3.44
  10  12  -1  243.38    9.56
 -10 -12   1  225.41    9.08
  10  12  -2  569.35   18.64
 -10 -12   2  599.27   19.69
  10  12  -3    0.00    3.15
 -10 -12   3    2.58    3.25
  10  12  -4   58.22    4.88
 -10 -12   4   58.12    4.68
  10  12  -5  378.26   13.48
 -10 -12   5  333.43   12.14
  10  12  -6    5.45    3.63
 -10 -12   6    1.24    3.25
  10  12  -7  545.07   18.35
 -10 -12   7  578.81   19.12
  10  12  -8   19.50    4.01
 -10 -12   8   30.97    4.11
  10  12  -9    3.73    3.54
 -10 -12   9   10.13    3.35
  10  12 -10   46.08    4.49
 -10 -12  10   38.24    4.01
  10  12 -11   29.06    4.21
 -10 -12  11   21.41    3.82
  10  12 -12  216.80    9.08
 -10 -12  12  228.94    8.99
  10  12 -13  262.21   10.32
 -10 -12  13  274.06   10.61
  10  12 -14   76.19    5.35
 -10 -12  14   60.89    4.49
  10  12 -15   83.93    5.26
 -10 -12  15   87.37    4.97
  10  12 -16  147.79    6.88
 -10 -12  16  137.94    6.50
  10  12 -17    4.01    3.73
 -10 -12  17    6.88    3.35
  10  12 -18  102.38    5.93
 -10 -12  18  117.87    5.93
  10  12 -19   24.28    4.11
 -10 -12  19   19.02    3.63
   9  13   7   -1.24    2.10
   9  13   7    2.10    2.10
   9  13   6   78.29    4.21
  -9 -13  -6   76.00    4.01
   9  13   5   45.60    3.54
  -9 -13  -5   43.88    3.63
   9  13   4   19.88    3.25
  -9 -13  -4   22.27    3.06
   9  13   3   86.03    4.78
  -9 -13  -3   88.90    5.07
   9  13   2  311.15   11.09
  -9 -13  -2  275.21   10.13
   9  13   1  136.51    6.50
  -9 -13  -1  125.99    6.21
   9  13   0  984.61   30.59
  -9 -13   0 1002.77   31.16
   9  13  -1   42.16    4.40
  -9 -13   1   45.98    4.01
   9  13  -2   17.21    3.63
  -9 -13   2   13.57    3.54
   9  13  -3  198.93    8.32
  -9 -13   3  209.25    8.60
   9  13  -4  322.72   11.85
  -9 -13   4  317.75   11.66
   9  13  -5  136.89    7.07
  -9 -13   5  146.07    6.98
   9  13  -6  641.33   21.13
  -9 -13   6  662.46   21.70
   9  13  -7   36.80    4.30
  -9 -13   7   28.87    3.82
   9  13  -8  396.04   14.05
  -9 -13   8  406.65   14.43
   9  13  -9  224.36    9.27
  -9 -13   9  232.10    9.08
   9  13 -10  139.85    7.07
  -9 -13  10  156.39    7.46
   9  13 -11   86.61    5.45
  -9 -13  11   84.79    5.07
   9  13 -12  222.92    9.18
  -9 -13  12  218.14    8.60
   9  13 -13    1.43    3.54
  -9 -13  13    0.48    3.06
   9  13 -14  322.63   11.85
  -9 -13  14  347.86   12.04
   9  13 -15    2.96    3.73
  -9 -13  15   11.18    3.25
   9  13 -16   52.86    4.49
  -9 -13  16   54.39    4.40
   9  13 -17   52.77    4.78
  -9 -13  17   36.99    3.92
   9  13 -18   89.28    5.45
  -9 -13  18   78.86    4.88
   9  13 -19   -0.10    3.63
  -9 -13  19   -2.87    3.44
   8  14   7    7.36    2.87
  -8 -14  -7    2.20    2.96
   8  14   6  134.21    5.83
  -8 -14  -6  127.81    5.64
   8  14   5    0.10    2.87
  -8 -14  -5    1.63    2.87
   8  14   4   66.63    4.30
  -8 -14  -4   54.11    4.11
   8  14   3   30.11    3.73
  -8 -14  -3   30.78    3.82
   8  14   2   46.08    4.11
  -8 -14  -2   40.34    4.01
   8  14   1  533.41   17.59
  -8 -14  -1  548.51   17.97
   8  14   0  236.40    9.27
  -8 -14   0  235.83    9.27
   8  14  -1    0.48    3.25
  -8 -14   1    1.43    3.25
   8  14  -2  293.76   10.99
  -8 -14   2  272.53   10.52
   8  14  -3    8.41    3.82
  -8 -14   3    4.97    3.44
   8  14  -4  154.96    7.46
  -8 -14   4  162.32    7.65
   8  14  -5    9.18    3.73
  -8 -14   5   16.73    3.92
   8  14  -6   69.21    4.97
  -8 -14   6   77.72    5.45
   8  14  -7   87.18    5.54
  -8 -14   7   87.08    5.45
   8  14  -8  478.15   16.54
  -8 -14   8  475.96   16.35
   8  14  -9   40.82    4.49
  -8 -14   9   58.41    4.59
   8  14 -10  655.38   21.51
  -8 -14  10  646.59   21.22
   8  14 -11   12.52    3.63
  -8 -14  11    8.99    3.15
   8  14 -12   17.88    3.82
  -8 -14  12   11.38    3.44
   8  14 -13   46.17    4.49
  -8 -14  13   47.22    4.21
   8  14 -14   97.31    5.74
  -8 -14  14   95.31    5.35
   8  14 -15   -0.86    3.54
  -8 -14  15   -0.19    3.06
   8  14 -16  360.38   12.71
  -8 -14  16  362.87   12.62
   8  14 -17   43.69    4.49
  -8 -14  17   45.22    4.21
   8  14 -18   25.81    4.01
  -8 -14  18   37.38    4.11
   7  15   8   -3.25    2.87
  -7 -15  -8   39.96    3.73
   7  15   7  173.12    6.88
  -7 -15  -7  154.76    6.50
   7  15   6   11.57    3.25
  -7 -15  -6   10.23    3.15
   7  15   5   86.89    4.97
  -7 -15  -5   81.64    4.59
   7  15   4   36.23    3.82
  -7 -15  -4   41.49    3.92
   7  15   3   69.40    4.68
  -7 -15  -3   68.83    4.78
   7  15   2   32.50    3.82
  -7 -15  -2   18.45    3.35
   7  15   1   -1.53    3.35
  -7 -15  -1    4.49    3.35
   7  15   0   16.82    3.54
  -7 -15   0   13.19    3.63
   7  15  -1  108.69    5.93
  -7 -15   1  105.44    6.02
   7  15  -2   -1.15    3.35
  -7 -15   2    2.58    3.63
   7  15  -3  141.96    6.69
  -7 -15   3  148.26    7.07
   7  15  -4   -2.01    3.44
  -7 -15   4   -4.30    3.54
   7  15  -5   14.72    3.63
  -7 -15   5    4.59    3.54
   7  15  -6   76.76    5.35
  -7 -15   6   71.60    5.16
   7  15  -7   19.88    3.92
  -7 -15   7   24.57    4.30
   7  15  -8   62.80    4.88
  -7 -15   8   56.30    4.88
   7  15  -9  342.32   12.43
  -7 -15   9  371.00   13.00
   7  15 -10  102.67    6.02
  -7 -15  10  107.35    5.93
   7  15 -11   13.67    3.63
  -7 -15  11   11.85    3.35
   7  15 -12  144.44    6.79
  -7 -15  12  138.13    6.31
   7  15 -13   20.17    4.01
  -7 -15  13   35.66    4.11
   7  15 -14   49.52    4.59
  -7 -15  14   40.24    4.30
   7  15 -15  138.42    6.69
  -7 -15  15  164.13    7.36
   7  15 -16    3.06    3.63
  -7 -15  16   -5.74    3.35
   7  15 -17    1.43    3.73
  -7 -15  17   -0.96    3.06
   6  16   9    2.29    3.25
  -6 -16  -9   90.14    4.97
   6  16   8    2.01    3.63
  -6 -16  -8    3.82    3.54
   6  16   7  103.53    5.54
  -6 -16  -7   89.95    5.16
   6  16   6    9.94    3.44
  -6 -16  -6    1.24    3.06
   6  16   5   22.18    3.82
  -6 -16  -5   25.62    3.44
   6  16   4    8.22    3.44
  -6 -16  -4    0.19    2.96
   6  16   3  117.77    6.12
  -6 -16  -3  116.72    5.93
   6  16   2    5.45    3.35
  -6 -16  -2    2.87    3.35
   6  16   1  284.87   10.80
  -6 -16  -1  254.47    9.85
   6  16   0   38.91    4.30
  -6 -16   0   39.86    4.11
   6  16  -1   48.08    4.49
  -6 -16   1   56.11    4.78
   6  16  -2   44.26    4.21
  -6 -16   2   43.49    4.49
   6  16  -3   21.70    4.01
  -6 -16   3   21.60    4.11
   6  16  -4   36.42    4.40
  -6 -16   4   38.05    4.30
   6  16  -5  303.12   11.28
  -6 -16   5  308.29   11.47
   6  16  -6    7.36    3.44
  -6 -16   6   14.91    3.82
   6  16  -7  451.10   15.49
  -6 -16   7  414.01   14.53
   6  16  -8   57.07    4.88
  -6 -16   8   63.95    4.97
   6  16  -9   18.45    3.82
  -6 -16   9   17.97    3.73
   6  16 -10   12.14    3.54
  -6 -16  10   14.05    3.92
   6  16 -11  170.25    7.46
  -6 -16  11  184.40    8.03
   6  16 -12   -0.29    3.54
  -6 -16  12   -0.57    3.35
   6  16 -13  311.63   11.47
  -6 -16  13  305.61   10.99
   6  16 -14    1.24    3.54
  -6 -16  14    0.96    3.54
   6  16 -15    8.79    3.63
  -6 -16  15    7.36    3.44
   6  16 -16    6.21    3.82
  -6 -16  16    1.24    3.73
   5  17  10    0.19    3.25
  -5 -17 -10   40.05    4.21
   5  17   9   -0.48    4.21
  -5 -17  -9    4.78    4.01
   5  17   8  119.68    6.40
  -5 -17  -8  122.65    6.40
   5  17   7   75.23    5.16
  -5 -17  -7   66.34    4.68
   5  17   6   -6.40    3.63
  -5 -17  -6   -1.15    3.44
   5  17   5  108.69    5.74
  -5 -17  -5  119.30    6.02
   5  17   4  147.02    6.88
  -5 -17  -4  149.22    6.79
   5  17   3    0.76    3.25
  -5 -17  -3   -3.15    3.44
   5  17   2  129.62    6.21
  -5 -17  -2  123.22    6.50
   5  17   1    6.69    3.54
  -5 -17  -1    5.93    3.54
   5  17   0   21.41    3.92
  -5 -17   0   13.77    3.92
   5  17  -1  361.24   12.91
  -5 -17   1  376.25   13.38
   5  17  -2    7.84    3.63
  -5 -17   2    4.59    3.82
   5  17  -3  164.04    7.46
  -5 -17   3  163.18    7.46
   5  17  -4  443.93   15.20
  -5 -17   4  428.45   14.91
   5  17  -5   25.33    3.82
  -5 -17   5   23.99    4.21
   5  17  -6  215.27    8.89
  -5 -17   6  188.22    8.13
   5  17  -7  126.56    6.40
  -5 -17   7  126.47    6.50
   5  17  -8   -0.48    3.44
  -5 -17   8   -1.82    3.63
   5  17  -9  163.56    7.36
  -5 -17   9  169.10    7.46
   5  17 -10   46.46    4.30
  -5 -17  10   51.14    4.30
   5  17 -11   86.89    5.35
  -5 -17  11   77.14    5.07
   5  17 -12  140.81    6.69
  -5 -17  12  156.96    7.27
   5  17 -13   29.82    4.01
  -5 -17  13   29.16    4.21
   5  17 -14   -1.34    3.15
  -5 -17  14    4.78    3.35
   4  18   9    3.82    4.88
  -4 -18  -9    0.38    4.49
   4  18   8   49.71    5.45
  -4 -18  -8   38.72    4.49
   4  18   7    2.10    3.82
  -4 -18  -7    6.02    3.73
   4  18   6  352.64   12.62
  -4 -18  -6  369.75   13.00
   4  18   5   11.57    3.73
  -4 -18  -5   15.20    3.92
   4  18   4   63.76    4.97
  -4 -18  -4   64.72    4.97
   4  18   3   12.52    3.82
  -4 -18  -3    8.51    3.73
   4  18   2   -0.38    3.73
  -4 -18  -2    6.31    3.82
   4  18   1    8.51    3.92
  -4 -18  -1    2.29    3.44
   4  18   0   97.03    5.93
  -4 -18   0   93.68    5.74
   4  18  -1   58.22    4.59
  -4 -18   1   58.22    4.78
   4  18  -2  259.44   10.13
  -4 -18   2  279.61   10.52
   4  18  -3   21.41    3.82
  -4 -18   3   28.39    3.92
   4  18  -4   75.42    5.16
  -4 -18   4   80.11    5.45
   4  18  -5    2.10    3.63
  -4 -18   5    9.65    3.63
   4  18  -6  153.90    7.17
  -4 -18   6  153.04    7.27
   4  18  -7   15.01    3.82
  -4 -18   7   19.98    3.73
   4  18  -8  267.18   10.42
  -4 -18   8  276.93   10.52
   4  18  -9   52.96    4.49
  -4 -18   9   53.25    4.68
   4  18 -10  127.04    6.31
  -4 -18  10  126.85    6.50
   4  18 -11    1.43    3.73
  -4 -18  11   14.53    3.73
   4  18 -12    2.49    3.44
  -4 -18  12    7.65    3.35
   4  18 -13    2.39    3.44
  -4 -18  13   -6.31    3.63
   3  19   8   44.93    5.74
  -3 -19  -8   48.56    4.88
   3  19   7   34.22    4.88
  -3 -19  -7   40.91    4.78
   3  19   6   -0.48    3.92
  -3 -19  -6    2.87    4.01
   3  19   5  141.38    6.88
  -3 -19  -5  131.44    6.69
   3  19   4  104.77    6.12
  -3 -19  -4   87.28    5.74
   3  19   3    0.67    3.54
  -3 -19  -3    1.72    3.54
   3  19   2  432.94   15.01
  -3 -19  -2  412.10   14.34
   3  19   1    1.05    3.63
  -3 -19  -1    9.46    4.01
   3  19   0   13.48    3.73
  -3 -19   0    5.74    3.73
   3  19  -1  195.77    8.32
  -3 -19   1  224.74    9.08
   3  19  -2   37.66    4.21
  -3 -19   2   36.90    4.30
   3  19  -3   31.07    4.40
  -3 -19   3   30.49    4.21
   3  19  -4  259.44   10.13
  -3 -19   4  257.53   10.04
   3  19  -5    4.40    3.82
  -3 -19   5    7.46    3.54
   3  19  -6   18.54    4.21
  -3 -19   6   21.70    3.92
   3  19  -7   25.52    3.92
  -3 -19   7   19.79    4.21
   3  19  -8   15.20    3.82
  -3 -19   8    9.94    4.01
   3  19  -9   38.14    4.11
  -3 -19   9   35.75    4.11
   3  19 -10   68.83    4.68
  -3 -19  10   83.45    4.97
   3  19 -11   -0.96    3.35
  -3 -19  11    6.88    3.73
   2  20   7   17.97    4.59
  -2 -20  -7   13.48    4.88
   2  20   6    1.91    3.92
  -2 -20  -6    5.16    4.30
   2  20   5   84.79    5.74
  -2 -20  -5   94.54    5.83
   2  20   4   13.67    3.92
  -2 -20  -4   14.82    4.40
   2  20   3  121.59    6.12
  -2 -20  -3  124.75    6.69
   2  20   2    2.29    4.01
  -2 -20  -2   -2.01    3.92
   2  20   1   95.88    5.54
  -2 -20  -1   96.55    5.93
   2  20   0   61.27    4.78
  -2 -20   0   50.66    4.78
   2  20  -1   16.16    3.73
  -2 -20   1   28.68    4.21
   2  20  -2    4.30    3.63
  -2 -20   2    3.44    3.73
   2  20  -3  111.17    5.93
  -2 -20   3  130.58    6.69
   2  20  -4    0.67    3.73
  -2 -20   4    8.13    3.82
   2  20  -5  163.27    7.27
  -2 -20   5  177.52    7.74
   2  20  -6   25.14    3.92
  -2 -20   6   13.38    4.21
   2  20  -7   12.71    3.73
  -2 -20   7    4.30    3.63
   2  20  -8   -0.67    3.35
  -2 -20   8    3.63    3.54
   2  20  -9   42.54    4.30
  -2 -20   9   42.35    4.11
   1  21   5   38.24    4.88
  -1 -21  -5   28.96    4.88
   1  21   4    7.17    4.01
  -1 -21  -4   10.61    4.40
   1  21   3   -2.77    3.92
  -1 -21  -3   -0.10    3.92
   1  21   2   40.91    4.49
  -1 -21  -2   43.49    4.68
   1  21   1  161.74    7.36
  -1 -21  -1  168.63    7.46
   1  21   0    2.20    3.73
  -1 -21   0   12.33    4.21
   1  21  -1   92.72    5.64
  -1 -21   1   99.32    5.74
   1  21  -2   12.52    3.63
  -1 -21   2    8.13    3.82
   1  21  -3    8.51    3.63
  -1 -21   3    1.24    4.01
   1  21  -4   21.03    4.11
  -1 -21   4   24.66    4.11
   1  21  -5   43.88    4.21
  -1 -21   5   49.71    4.49
   1  21  -6    5.07    3.25
  -1 -21   6    2.68    3.92
   0  22   2   54.39    5.16
   0  22   1   -0.86    3.73
   0 -22  -1   -2.49    4.01
   0  22   0   53.63    4.78
   0 -22   0   59.75    5.07
   0  22  -1   -1.43    3.73
   0 -22   1   -4.11    4.01
   0  22  -2   48.94    5.07
  24   0  -6   68.83    5.74
  24   0  -6   65.39    5.35
  24   0  -7   -4.11    3.92
  24   0  -7    1.72    4.21
  24   0  -8    1.43    4.01
  24   0  -8   16.25    4.30
  24   0  -9   -1.82    3.82
  24   0  -9   -0.86    3.82
  24   0 -10   11.66    4.21
  24   0 -10   15.39    3.92
  24   0 -11    0.19    3.54
  24   0 -11    2.01    3.73
  24   0 -12    3.73    4.01
  24   0 -12   -3.25    3.73
  24   0 -13   -8.32    3.73
  24   0 -13    3.35    3.82
  24   0 -14  152.57    6.88
  24   0 -14  136.98    6.79
  24   0 -15   -1.72    4.01
  24   0 -15   -6.12    3.82
  24   0 -16    2.68    3.82
  24   0 -16   -0.10    3.63
  23   1  -4  112.13    6.50
  23   1  -4  112.70    6.60
  23   1  -5   32.12    4.59
  23   1  -5   26.38    4.49
  23   1  -6   22.94    4.49
  23   1  -6   15.87    4.40
  23   1  -7   14.34    4.68
  23   1  -7   13.77    4.30
  23   1  -8   13.86    4.01
  23   1  -8   18.45    4.21
  23   1  -9   25.62    4.21
  23   1  -9   39.00    4.88
  23   1 -10   66.91    5.26
  23   1 -10   69.59    5.26
  23   1 -11   -2.01    3.73
  23   1 -11    0.67    3.73
  23   1 -12  120.06    6.12
  23   1 -12  118.82    6.31
  23   1 -13   18.35    3.82
  23   1 -13   15.49    4.11
  23   1 -14   13.19    4.01
  23   1 -14   10.32    4.01
  23   1 -15  166.24    7.46
  23   1 -15  182.39    7.93
  23   1 -16  157.15    6.88
  23   1 -16  163.37    6.98
  23   1 -17    2.20    3.54
  23   1 -17    3.44    3.63
  23   1 -18   33.17    4.11
  23   1 -18   42.83    4.49
  22   2  -1   29.35    4.88
  22   2  -2    4.21    4.97
  22   2  -2    8.22    4.59
  22   2  -3  273.78   10.61
  22   2  -3  280.37   10.71
  22   2  -4   -4.88    4.68
  22   2  -4    0.57    4.40
  22   2  -5   36.90    5.07
  22   2  -5   40.34    4.68
  22   2  -6   33.17    4.40
  22   2  -6   42.63    4.97
  22   2  -7    3.73    4.21
  22   2  -7    4.78    4.30
  22   2  -8   -4.21    3.63
  22   2  -8    5.16    4.21
  22   2  -9  278.84   10.80
  22   2  -9  276.93   10.52
  22   2 -10   53.15    4.78
  22   2 -10   53.05    4.88
  22   2 -11  229.80    9.18
  22   2 -11  238.50    9.56
  22   2 -12   25.91    3.92
  22   2 -12   22.85    4.49
  22   2 -14    4.21    3.25
  22   2 -14    3.82    3.82
  22   2 -15   53.63    4.68
  22   2 -15   51.33    4.59
  22   2 -16   30.02    4.21
  22   2 -16   24.57    4.11
  22   2 -17  209.06    8.70
  22   2 -17  209.35    8.51
  22   2 -18    3.25    3.92
  22   2 -18    3.63    3.63
  22   2 -19   55.54    4.88
  22   2 -19   49.23    4.49
  21   3  -1  143.39    7.55
  21   3  -1  141.09    7.27
  21   3  -2  126.95    6.60
  21   3  -2  107.64    6.21
  21   3  -3   -2.68    4.59
  21   3  -3   -0.29    4.01
  21   3  -4    1.24    3.82
  21   3  -4    6.12    4.30
  21   3  -5   77.81    5.35
  21   3  -5   73.89    5.45
  21   3  -6    7.17    4.01
  21   3  -6    5.83    3.92
  21   3  -7  178.95    7.84
  21   3  -7  158.49    7.27
  21   3  -8   50.86    4.59
  21   3  -8   46.94    4.68
  21   3 -10   36.52    4.40
  21   3 -10   37.95    4.40
  21   3 -11   74.56    4.78
  21   3 -11   67.01    5.26
  21   3 -12   54.49    4.78
  21   3 -12   58.02    5.26
  21   3 -13  155.62    7.07
  21   3 -13  151.61    7.07
  21   3 -14   16.92    3.82
  21   3 -14   14.15    4.01
  21   3 -15   33.17    4.49
  21   3 -15   36.13    4.21
  21   3 -16   37.95    4.59
  21   3 -16   39.19    4.49
  21   3 -17    0.10    3.54
  21   3 -17    0.96    3.63
  21   3 -18   36.13    4.21
  21   3 -18   30.40    4.30
  21   3 -19  101.33    5.64
  21   3 -19  102.19    5.83
  21   3 -20    1.72    3.54
  21   3 -20    0.86    3.54
  20   4   1    2.29    4.97
  20   4   1   15.20    4.59
  20   4  -1   33.46    5.26
  20   4  -1   26.96    4.49
  20   4  -2   -5.83    4.30
  20   4  -2    1.53    4.21
  20   4  -3  335.43   12.14
  20   4  -3  341.27   12.33
  20   4  -4   26.48    4.40
  20   4  -4   14.34    4.21
  20   4  -5    7.07    3.73
  20   4  -5   10.80    3.73
  20   4  -6  500.24   16.82
  20   4  -6  460.28   15.77
  20   4  -7   44.93    4.40
  20   4  -7   40.34    4.59
  20   4  -8   77.72    5.35
  20   4  -8   69.59    5.16
  20   4  -9  258.96    9.75
  20   4  -9  262.21   10.23
  20   4 -10   26.29    4.21
  20   4 -10   30.02    4.11
  20   4 -11  103.53    5.35
  20   4 -11  108.69    6.21
  20   4 -12  298.25   11.09
  20   4 -12  289.36   10.90
  20   4 -13    0.10    3.35
  20   4 -13    4.11    3.73
  20   4 -14  106.97    6.02
  20   4 -14  113.47    6.21
  20   4 -16    5.74    3.44
  20   4 -16    7.46    3.73
  20   4 -17   73.13    5.07
  20   4 -17   79.15    5.35
  20   4 -18   22.85    4.11
  20   4 -18   24.85    3.92
  20   4 -19    7.55    3.54
  20   4 -19    9.08    3.63
  20   4 -20  158.21    7.07
  20   4 -20  153.14    6.98
  20   4 -21    0.10    3.73
  20   4 -21    3.15    3.92
  19   5   3   -0.86    4.97
  19   5   3    8.51    4.97
  19   5   2    3.15    5.07
  19   5   2    1.05    4.49
  19   5  -1   95.78    5.64
  19   5  -1   85.08    5.54
  19   5  -3   41.77    4.49
  19   5  -3   32.50    4.40
  19   5  -4  109.84    5.93
  19   5  -4   98.36    5.74
  19   5  -5   79.25    4.88
  19   5  -5   79.44    5.16
  19   5  -6  109.45    6.21
  19   5  -6  103.72    5.93
  19   5  -7   -0.38    3.63
  19   5  -7    8.99    3.92
  19   5  -8  656.24   21.22
  19   5  -8  661.98   21.51
  19   5 -10  203.80    8.79
  19   5 -10  230.28    9.18
  19   5 -11   13.57    3.73
  19   5 -11   11.95    3.92
  19   5 -12   12.62    3.63
  19   5 -12    8.32    3.73
  19   5 -13   21.51    3.63
  19   5 -13   19.50    3.92
  19   5 -14   42.06    4.30
  19   5 -14   39.77    4.68
  19   5 -15    1.34    3.73
  19   5 -15    1.34    3.54
  19   5 -16  367.27   12.81
  19   5 -16  349.20   12.43
  19   5 -17   -2.58    3.54
  19   5 -17    2.49    3.63
  19   5 -18  160.88    7.36
  19   5 -18  157.44    7.07
  19   5 -19    6.40    3.44
  19   5 -19    3.44    3.63
  19   5 -20   12.14    3.73
  19   5 -20   22.75    3.92
  19   5 -21    8.32    3.54
  19   5 -21   15.96    4.01
  18   6   0   -2.58    4.21
  18   6   0    6.40    3.63
  18   6  -1   97.12    5.93
  18   6  -1   91.10    5.35
  18   6  -2    6.98    3.82
  18   6  -2    3.54    3.82
  18   6  -3  351.02   12.52
  18   6  -3  341.55   12.14
  18   6  -4   26.29    4.01
  18   6  -4   22.56    4.21
  18   6  -5   13.77    3.73
  18   6  -5   14.63    3.63
  18   6  -6  190.99    8.03
  18   6  -6  202.18    8.41
  18   6  -7  182.39    8.03
  18   6  -7  169.39    7.74
  18   6  -8    6.50    3.44
  18   6  -8   12.24    3.82
  18   6  -9  474.71   16.35
  18   6  -9  519.45   17.49
  18   6 -10   93.11    5.74
  18   6 -10   85.75    5.64
  18   6 -11   43.02    4.30
  18   6 -11   32.41    4.11
  18   6 -12    9.27    3.82
  18   6 -12   11.09    3.73
  18   6 -13   58.60    4.49
  18   6 -13   58.41    4.68
  18   6 -15  270.15   10.42
  18   6 -15  270.05   10.23
  18   6 -16    7.84    3.54
  18   6 -16    4.11    3.54
  18   6 -17  106.68    5.74
  18   6 -17  113.95    6.12
  18   6 -18   -2.77    3.35
  18   6 -18    4.68    3.44
  18   6 -19   17.88    3.63
  18   6 -19   19.41    3.82
  18   6 -20   22.94    4.01
  18   6 -20   13.77    3.73
  18   6 -21   21.60    3.63
  18   6 -21   24.47    4.21
  17   7   4    1.63    4.49
  17   7   4    2.10    3.73
  17   7   2    5.83    4.01
  17   7   2   15.39    3.73
  17   7   0    9.65    3.44
  17   7   0   18.74    4.30
  17   7  -1  145.87    6.69
  17   7  -1  165.18    7.17
  17   7  -2  264.89    9.94
  17   7  -2  266.61   10.04
  17   7  -3  449.96   15.10
  17   7  -3  479.88   16.25
  17   7  -4    9.37    3.82
  17   7  -4    3.82    3.63
  17   7  -5  521.46   17.40
  17   7  -5  493.16   16.73
  17   7  -6   24.28    4.01
  17   7  -6   27.24    4.11
  17   7  -7  224.64    9.18
  17   7  -7  224.07    9.08
  17   7  -8  105.44    5.93
  17   7  -8  118.53    5.93
  17   7  -9   32.88    4.30
  17   7  -9   33.17    4.11
  17   7 -10   15.20    3.73
 -17  -7  10   26.67    3.44
  17   7 -11  204.47    8.41
 -17  -7  11  209.92    8.60
  17   7 -12    1.15    3.44
 -17  -7  12   -0.86    3.73
  17   7 -13  492.02   16.63
 -17  -7  13  475.96   15.96
  17   7 -14    7.46    3.63
 -17  -7  14   10.90    3.63
  17   7 -15   51.91    4.68
 -17  -7  15   65.67    4.68
  17   7 -16   -1.24    3.54
 -17  -7  16    3.73    3.06
  17   7 -17   27.53    4.01
 -17  -7  17   26.10    3.92
  17   7 -18   28.87    4.01
 -17  -7  18   23.99    3.92
  17   7 -19  248.16    9.56
  17   7 -20   19.02    3.82
  17   7 -20   15.39    3.63
  17   7 -21   82.78    4.88
  17   7 -21   82.40    5.35
  16   8   5    1.53    2.68
  16   8   5   -3.82    2.68
  16   8   1   47.89    4.49
  16   8   1   50.76    4.01
  16   8   0  108.88    5.64
  16   8   0  100.95    5.83
  16   8  -1  197.69    8.13
  16   8  -1  186.12    7.74
  16   8  -2  162.70    7.17
  16   8  -2  156.58    6.98
  16   8  -3  136.32    6.31
  16   8  -3  137.08    6.60
  16   8  -4  376.73   13.38
  16   8  -4  357.52   12.62
  16   8  -5  302.07   11.28
  16   8  -5  271.10   10.23
  16   8  -6  428.54   14.82
 -16  -8   6  431.51   14.91
  16   8  -7   56.69    4.78
 -16  -8   7   58.31    4.78
  16   8  -8    0.10    3.35
 -16  -8   8    0.19    3.54
  16   8  -9    4.30    3.73
 -16  -8   9    9.56    3.54
  16   8 -10  106.39    5.93
 -16  -8  10   99.23    5.74
  16   8 -11  174.65    7.74
 -16  -8  11  164.61    7.65
  16   8 -12  181.05    8.03
 -16  -8  12  167.10    7.55
  16   8 -13  203.90    8.60
 -16  -8  13  207.05    8.41
  16   8 -14  274.73   10.61
 -16  -8  14  253.42    9.75
  16   8 -15  192.52    8.32
 -16  -8  15  185.64    7.55
  16   8 -16    4.49    3.54
 -16  -8  16    3.82    3.25
  16   8 -17   84.31    5.45
 -16  -8  17   80.49    5.16
  16   8 -18  119.30    6.21
 -16  -8  18  125.42    6.21
  16   8 -19   18.54    3.73
 -16  -8  19   14.63    3.54
  16   8 -20   37.09    4.11
 -16  -8  20   52.96    4.21
  16   8 -21   76.38    5.26
 -16  -8  21   59.75    4.40
  15   9   3    0.00    3.63
  15   9   3    8.22    3.15
  15   9   2    7.93    3.82
  15   9   2   15.01    3.15
  15   9   1    2.29    3.54
  15   9   1    7.74    3.54
  15   9   0  166.52    7.17
  15   9   0  166.14    7.17
  15   9  -1   73.80    4.78
  15   9  -1   72.17    4.78
  15   9  -2  121.40    5.83
  15   9  -2  121.21    6.12
  15   9  -3   30.69    4.11
 -15  -9   3   19.88    3.54
  15   9  -4   -4.21    3.15
 -15  -9   4   -3.44    3.25
  15   9  -5  233.53    9.27
 -15  -9   5  253.13    9.94
  15   9  -6  214.80    8.70
 -15  -9   6  197.59    8.32
  15   9  -7    6.50    3.82
 -15  -9   7    1.24    3.35
  15   9  -8  248.92    9.94
 -15  -9   8  243.00    9.46
  15   9  -9   13.00    3.73
 -15  -9   9    8.79    3.54
  15   9 -10  141.86    6.88
 -15  -9  10  150.27    6.88
  15   9 -11    6.50    3.63
 -15  -9  11   10.13    3.54
  15   9 -12   52.58    4.78
 -15  -9  12   52.67    4.49
  15   9 -13   39.77    4.30
 -15  -9  13   32.41    4.11
  15   9 -14  413.25   14.53
 -15  -9  14  410.09   13.96
  15   9 -15    4.78    3.54
 -15  -9  15    4.49    2.96
  15   9 -16  249.02    9.75
 -15  -9  16  245.96    9.46
  15   9 -17    7.65    3.54
 -15  -9  17    1.43    3.15
  15   9 -18    3.54    3.35
 -15  -9  18    1.34    3.15
  15   9 -19   40.34    4.49
 -15  -9  19   43.78    4.21
  15   9 -20  110.31    5.93
 -15  -9  20   97.22    5.45
  15   9 -21   -0.86    3.92
 -15  -9  21    5.74    3.35
  14  10   5    2.20    2.87
  14  10   5    7.74    2.87
  14  10   3    1.15    2.77
  14  10   3   -2.10    3.25
  14  10   2   95.21    5.45
  14  10   2  106.78    5.26
  14  10   1   15.96    3.35
  14  10   1   15.96    3.44
  14  10   0    5.64    3.15
  14  10   0   10.71    3.25
  14  10  -1   76.95    5.07
 -14 -10   1   97.03    5.26
  14  10  -2   45.31    4.01
 -14 -10   2   46.84    4.21
  14  10  -3   51.33    4.49
 -14 -10   3   56.02    4.40
  14  10  -4   37.76    4.30
 -14 -10   4   52.10    4.59
  14  10  -5   33.17    4.11
 -14 -10   5   48.94    4.40
  14  10  -6   24.47    3.63
 -14 -10   6   25.71    4.01
  14  10  -7   74.66    5.35
 -14 -10   7   77.62    5.16
  14  10  -8    2.68    3.63
 -14 -10   8    1.15    3.25
  14  10  -9   21.89    3.82
 -14 -10   9   20.93    4.01
  14  10 -10   50.76    4.49
 -14 -10  10   42.44    4.30
  14  10 -11    5.07    3.54
 -14 -10  11    1.82    3.44
  14  10 -12   63.47    5.07
 -14 -10  12   66.34    4.78
  14  10 -13   28.87    4.11
 -14 -10  13   24.57    3.82
  14  10 -14   46.08    4.59
 -14 -10  14   38.43    3.82
  14  10 -15  125.90    6.31
 -14 -10  15  127.71    6.21
  14  10 -16  112.03    5.93
 -14 -10  16  107.45    5.74
  14  10 -17    0.67    3.63
 -14 -10  17    7.65    3.35
  14  10 -18  153.24    7.07
 -14 -10  18  144.92    6.50
  14  10 -19    0.96    3.44
 -14 -10  19   -1.53    3.15
  14  10 -20   62.90    4.68
 -14 -10  20   68.64    4.49
  13  11   4    0.38    3.15
  13  11   4   -0.29    3.15
  13  11   2   75.33    4.68
  13  11   2   66.05    4.30
  13  11   1   49.23    4.11
 -13 -11  -1   45.31    3.63
  13  11   0   76.57    4.88
 -13 -11   0   89.28    5.16
  13  11  -1   13.38    3.44
 -13 -11   1    3.63    3.15
  13  11  -2    1.63    3.15
 -13 -11   2    5.16    3.25
  13  11  -3  485.23   16.35
 -13 -11   3  506.35   16.82
  13  11  -4   21.80    3.92
 -13 -11   4   17.49    3.73
  13  11  -5  209.44    8.79
 -13 -11   5  219.86    8.89
  13  11  -6    3.82    3.44
 -13 -11   6   -1.34    3.35
  13  11  -7    4.01    3.63
 -13 -11   7    4.21    3.63
  13  11  -8   85.17    5.64
 -13 -11   8   67.11    4.97
  13  11  -9   51.52    4.49
 -13 -11   9   50.95    4.49
  13  11 -10   57.45    4.78
 -13 -11  10   55.16    4.97
  13  11 -11  290.79   10.99
 -13 -11  11  290.98   10.90
  13  11 -12    6.50    3.73
 -13 -11  12    5.64    3.73
  13  11 -13  482.46   16.44
 -13 -11  13  480.35   16.25
  13  11 -14   86.99    5.35
 -13 -11  14   87.66    4.97
  13  11 -15    2.87    3.54
 -13 -11  15    3.54    3.25
  13  11 -16   14.82    3.44
 -13 -11  16   10.32    3.54
  13  11 -17  105.73    5.64
 -13 -11  17  105.73    5.64
  13  11 -18   17.68    3.73
 -13 -11  18   16.06    3.73
  13  11 -19  330.27   11.66
 -13 -11  19  325.30   11.47
  13  11 -20   -4.21    3.92
 -13 -11  20    5.16    3.25
  12  12   2    1.72    3.25
 -12 -12  -2    1.34    2.96
  12  12   1  484.37   16.06
 -12 -12  -1  437.72   14.63
  12  12   0    2.58    3.15
 -12 -12   0   -3.54    3.15
  12  12  -1  350.25   12.33
 -12 -12   1  352.07   12.33
  12  12  -2  154.96    7.17
 -12 -12   2  151.90    6.88
  12  12  -3   30.40    3.92
 -12 -12   3   28.49    3.82
  12  12  -4   15.29    3.73
 -12 -12   4   16.73    3.92
  12  12  -5   16.44    3.73
 -12 -12   5   23.61    3.73
  12  12  -6    1.72    3.63
 -12 -12   6    6.98    3.44
  12  12  -7  606.82   19.98
 -12 -12   7  595.06   19.60
  12  12  -8   23.99    4.01
 -12 -12   8   25.05    4.01
  12  12  -9   10.04    3.44
 -12 -12   9    2.01    3.25
  12  12 -10  378.26   13.57
 -12 -12  10  380.36   13.77
  12  12 -11   -0.67    3.54
 -12 -12  11   10.80    3.44
  12  12 -12  119.68    6.31
 -12 -12  12  124.46    6.40
  12  12 -13   25.81    4.01
 -12 -12  13   27.05    3.82
  12  12 -14    6.98    3.25
 -12 -12  14    7.46    3.06
  12  12 -15   92.15    5.54
 -12 -12  15   80.58    5.07
  12  12 -16   48.37    4.30
 -12 -12  16   37.85    4.49
  12  12 -17   61.66    4.59
 -12 -12  17   65.58    4.59
  12  12 -18  331.80   11.85
 -12 -12  18  316.51   11.18
  12  12 -19  125.32    6.31
 -12 -12  19  118.63    5.93
  11  13   5   -0.10    2.77
  11  13   5    0.67    3.15
  11  13   4   29.35    3.44
 -11 -13  -4   29.44    3.44
  11  13   3   19.98    3.25
 -11 -13  -3   17.11    3.25
  11  13   2  223.97    8.51
 -11 -13  -2  234.87    8.89
  11  13   1   -3.25    3.35
 -11 -13  -1   -1.43    3.06
  11  13   0  242.90    9.27
 -11 -13   0  220.44    8.70
  11  13  -1   47.03    4.30
 -11 -13   1   46.84    4.11
  11  13  -2  101.62    5.74
 -11 -13   2  109.26    5.83
  11  13  -3  141.96    6.79
 -11 -13   3  132.01    6.50
  11  13  -4   14.91    3.63
 -11 -13   4   10.23    3.63
  11  13  -5  112.61    5.93
 -11 -13   5  131.25    6.60
  11  13  -6  495.17   16.82
 -11 -13   6  484.18   16.54
  11  13  -7   29.54    4.01
 -11 -13   7   24.85    3.92
  11  13  -8  149.41    7.07
 -11 -13   8  155.72    7.27
  11  13  -9    3.63    3.44
 -11 -13   9    6.50    3.63
  11  13 -10    9.85    3.63
 -11 -13  10    6.50    3.54
  11  13 -11  275.98   10.52
 -11 -13  11  261.35    9.94
  11  13 -12   63.76    5.07
 -11 -13  12   57.36    4.68
  11  13 -13    1.34    3.35
 -11 -13  13    6.40    3.35
  11  13 -14  386.39   13.38
 -11 -13  14  363.35   12.43
  11  13 -15   -1.24    3.25
 -11 -13  15   -2.87    3.25
  11  13 -16   90.91    5.45
 -11 -13  16   94.45    5.64
  11  13 -17   47.51    4.59
 -11 -13  17   49.52    4.21
  11  13 -18  126.28    6.12
 -11 -13  18  146.83    6.50
  11  13 -19   14.53    3.92
 -11 -13  19   21.99    3.82
  10  14   5   10.71    3.15
 -10 -14  -5    0.76    3.44
  10  14   4  270.15    9.75
 -10 -14  -4  259.82    9.37
  10  14   3    4.01    3.06
 -10 -14  -3    1.53    2.87
  10  14   2  194.15    7.93
 -10 -14  -2  190.33    7.74
  10  14   1    4.49    3.35
 -10 -14  -1    7.65    3.44
  10  14   0    8.13    3.35
 -10 -14   0    9.08    3.25
  10  14  -1  298.44   11.09
 -10 -14   1  310.96   11.28
  10  14  -2  292.13   10.90
 -10 -14   2  309.62   11.38
  10  14  -3   15.77    3.44
 -10 -14   3   20.55    3.63
  10  14  -4  670.68   21.80
 -10 -14   4  737.21   23.71
  10  14  -5    2.20    3.44
 -10 -14   5    9.27    3.44
  10  14  -6  135.93    6.69
 -10 -14   6  101.71    5.64
  10  14  -7   36.52    4.01
 -10 -14   7   40.72    4.01
  10  14  -8  307.33   11.38
 -10 -14   8  284.48   10.61
  10  14  -9    3.44    3.35
 -10 -14   9   -0.96    3.25
  10  14 -10  766.46   24.57
 -10 -14  10  870.47   27.53
  10  14 -11   -1.15    3.54
 -10 -14  11   -4.21    3.35
  10  14 -12   84.89    5.26
 -10 -14  12   92.44    5.35
  10  14 -13   -0.76    3.25
 -10 -14  13    7.36    3.35
  10  14 -14    8.51    3.63
 -10 -14  14    4.40    3.15
  10  14 -15   23.13    3.82
 -10 -14  15   20.74    3.82
  10  14 -16  271.77   10.13
 -10 -14  16  250.26    9.46
  10  14 -17   18.35    3.92
 -10 -14  17   18.74    3.54
  10  14 -18   33.65    4.01
 -10 -14  18   32.98    3.92
   9  15   6    2.10    3.54
  -9 -15  -6    7.55    3.44
   9  15   5  233.25    8.79
  -9 -15  -5  224.55    8.70
   9  15   4   38.52    3.92
  -9 -15  -4   30.97    3.82
   9  15   3    8.89    3.63
  -9 -15  -3   10.71    3.15
   9  15   2   38.91    4.11
  -9 -15  -2   49.80    4.30
   9  15   1   75.52    4.88
  -9 -15  -1   81.16    5.07
   9  15   0   36.71    4.11
  -9 -15   0   35.27    4.01
   9  15  -1  312.30   11.38
  -9 -15   1  303.41   11.09
   9  15  -2   25.71    4.11
  -9 -15   2   27.82    3.82
   9  15  -3  303.12   11.28
  -9 -15   3  281.23   10.52
   9  15  -4  101.71    5.83
  -9 -15   4   98.27    5.54
   9  15  -5   43.02    4.30
  -9 -15   5   39.19    4.30
   9  15  -6  214.80    8.89
  -9 -15   6  224.93    8.99
   9  15  -7  218.43    8.89
  -9 -15   7  216.71    8.89
   9  15  -8   75.81    5.26
  -9 -15   8   68.06    4.78
   9  15  -9  117.67    6.40
  -9 -15   9   96.74    5.64
   9  15 -10   36.99    4.21
  -9 -15  10   40.05    4.30
   9  15 -11  183.82    7.93
  -9 -15  11  192.81    7.84
   9  15 -12   96.45    5.54
  -9 -15  12   98.08    5.74
   9  15 -13   -1.82    3.44
  -9 -15  13    0.48    3.54
   9  15 -14  103.43    5.64
  -9 -15  14  109.55    5.83
   9  15 -15  209.44    8.51
  -9 -15  15  222.73    8.60
   9  15 -16    0.76    3.82
  -9 -15  16    2.87    3.06
   9  15 -17   18.54    3.63
  -9 -15  17   13.67    3.54
   8  16   8   -3.15    2.96
   8  16   8   -2.29    3.25
   8  16   7   79.06    5.16
  -8 -16  -7   71.89    5.07
   8  16   6   71.89    4.88
  -8 -16  -6   69.02    4.78
   8  16   5   12.81    3.63
  -8 -16  -5   14.34    3.73
   8  16   4    5.45    3.44
  -8 -16  -4   -0.10    3.35
   8  16   3   46.74    4.21
  -8 -16  -3   48.27    4.11
   8  16   2    7.36    3.63
  -8 -16  -2    9.27    3.06
   8  16   1  275.79   10.42
  -8 -16  -1  302.84   11.09
   8  16   0   29.06    3.73
  -8 -16   0   25.14    3.73
   8  16  -1  126.85    6.21
  -8 -16   1  123.31    6.31
   8  16  -2    9.37    3.35
  -8 -16   2    0.57    3.63
   8  16  -3   38.62    4.21
  -8 -16   3   51.33    4.68
   8  16  -4   27.82    4.11
  -8 -16   4   15.20    3.92
   8  16  -5  261.73   10.13
  -8 -16   5  256.57   10.04
   8  16  -6   64.53    4.78
  -8 -16   6   57.07    4.59
   8  16  -7  492.49   16.54
  -8 -16   7  508.36   17.21
   8  16  -8   37.47    4.40
  -8 -16   8   43.11    4.21
   8  16  -9   23.52    4.01
  -8 -16   9   21.99    3.92
   8  16 -10   14.53    3.63
  -8 -16  10   14.15    3.82
   8  16 -11  210.30    8.51
  -8 -16  11  203.99    8.22
   8  16 -12    7.55    3.54
  -8 -16  12   11.85    3.35
   8  16 -13  264.89   10.04
  -8 -16  13  244.34    9.56
   8  16 -14    1.91    3.44
  -8 -16  14   -1.72    3.54
   8  16 -15   10.23    3.54
  -8 -16  15   11.66    3.63
   8  16 -16    5.93    3.82
  -8 -16  16    9.27    3.54
   7  17   8    3.63    4.40
  -7 -17  -8   37.28    4.68
   7  17   7   -4.40    4.30
  -7 -17  -7    2.10    4.01
   7  17   6    4.21    4.11
  -7 -17  -6    7.46    3.92
   7  17   5   43.59    4.49
  -7 -17  -5   41.49    4.49
   7  17   4    9.37    3.82
  -7 -17  -4    7.74    3.44
   7  17   3    6.21    3.54
  -7 -17  -3   15.29    3.54
   7  17   2  363.54   12.91
  -7 -17  -2  355.89   12.52
   7  17   1    1.05    3.63
  -7 -17  -1    2.29    3.54
   7  17   0  107.83    5.83
  -7 -17   0   95.98    5.64
   7  17  -1  194.15    8.22
  -7 -17   1  209.73    8.70
   7  17  -2   14.34    3.92
  -7 -17   2   15.77    3.82
   7  17  -3   31.83    4.11
  -7 -17   3   24.95    4.11
   7  17  -4  117.39    6.02
  -7 -17   4  132.49    6.50
   7  17  -5   85.84    5.54
  -7 -17   5   87.85    5.45
   7  17  -6  362.58   12.91
  -7 -17   6  327.69   11.76
   7  17  -7   56.78    4.68
  -7 -17   7   55.06    4.88
   7  17  -8   55.83    4.49
  -7 -17   8   46.94    4.49
   7  17  -9  162.32    7.27
  -7 -17   9  152.57    6.79
   7  17 -10    2.87    3.73
  -7 -17  10    2.20    3.73
   7  17 -11  140.43    6.69
  -7 -17  11  147.69    6.98
   7  17 -12  102.86    5.74
  -7 -17  12   95.50    5.45
   7  17 -13    5.64    3.54
  -7 -17  13   10.99    3.35
   7  17 -14   26.29    3.92
  -7 -17  14   24.57    3.54
   7  17 -15   20.93    4.01
  -7 -17  15   11.47    3.73
   6  18   8   -3.06    5.45
   6  18   7    4.97    4.59
  -6 -18  -7    2.77    4.01
   6  18   6  146.07    7.07
  -6 -18  -6  175.13    7.46
   6  18   5   -1.15    3.73
  -6 -18  -5   -1.05    3.54
   6  18   4  220.72    8.79
  -6 -18  -4  218.72    8.89
   6  18   3   99.13    5.64
  -6 -18  -3   92.15    5.45
   6  18   2   18.35    3.92
  -6 -18  -2   20.93    4.01
   6  18   1    2.29    3.54
  -6 -18  -1    1.53    3.35
   6  18   0   13.48    3.82
  -6 -18   0    9.46    3.54
   6  18  -1   36.04    4.40
  -6 -18   1   41.68    4.59
   6  18  -2  181.44    7.93
  -6 -18   2  171.49    7.74
   6  18  -3    3.06    3.63
  -6 -18   3    1.34    3.73
   6  18  -4  128.48    6.50
  -6 -18   4  110.31    6.12
   6  18  -5   35.94    4.11
  -6 -18   5   35.46    4.30
   6  18  -6    1.91    3.44
  -6 -18   6    0.57    3.54
   6  18  -7    2.68    3.63
  -6 -18   7    6.79    3.44
   6  18  -8  525.86   17.30
  -6 -18   8  507.60   17.11
   6  18  -9    6.31    3.54
  -6 -18   9   -4.11    3.63
   6  18 -10   58.31    4.59
  -6 -18  10   66.53    4.68
   6  18 -11   -0.86    3.44
  -6 -18  11   -1.15    3.54
   6  18 -12    0.76    3.35
  -6 -18  12    4.11    3.63
   6  18 -13    1.43    3.25
  -6 -18  13   -0.96    3.54
   5  19   7   16.16    5.54
  -5 -19  -7   22.27    4.59
   5  19   6   36.61    5.07
  -5 -19  -6   36.90    4.59
   5  19   5  120.64    6.31
  -5 -19  -5  115.19    6.31
   5  19   4   96.36    5.83
  -5 -19  -4  102.57    6.02
   5  19   3    9.65    4.11
  -5 -19  -3    8.99    3.92
   5  19   2   76.00    5.35
  -5 -19  -2   81.73    5.35
   5  19   1   -0.38    3.44
  -5 -19  -1    4.78    3.82
   5  19   0   28.58    4.30
  -5 -19   0   30.30    4.11
   5  19  -1  115.67    6.21
  -5 -19   1  135.07    6.69
   5  19  -2   20.27    4.01
  -5 -19   2   20.65    3.92
   5  19  -3   38.91    4.40
  -5 -19   3   41.68    4.40
   5  19  -4  115.48    6.21
  -5 -19   4  129.62    6.60
   5  19  -5   30.88    4.21
  -5 -19   5   29.82    4.21
   5  19  -6   43.49    4.59
  -5 -19   6   38.05    4.21
   5  19  -7   60.61    4.97
  -5 -19   7   61.85    5.07
   5  19  -8   -1.34    3.44
  -5 -19   8    0.76    3.54
   5  19  -9   37.66    4.21
  -5 -19   9   40.91    4.21
   5  19 -10   31.55    4.01
  -5 -19  10   25.24    4.01
   5  19 -11    0.19    3.54
  -5 -19  11   -5.07    3.54
   5  19 -12   49.33    4.59
   4  20   6    4.97    4.78
  -4 -20  -6   -3.25    4.11
   4  20   5   41.30    5.07
  -4 -20  -5   43.02    4.97
   4  20   4   29.16    4.49
  -4 -20  -4   32.31    4.78
   4  20   3   87.75    5.74
  -4 -20  -3   69.97    5.26
   4  20   2    2.29    3.73
  -4 -20  -2    0.48    3.73
   4  20   1   88.33    5.35
  -4 -20  -1   93.87    5.64
   4  20   0   43.88    4.59
  -4 -20   0   36.61    4.88
   4  20  -1    0.38    3.54
  -4 -20   1    6.50    3.82
   4  20  -2   25.33    4.11
  -4 -20   2   22.08    4.11
   4  20  -3   89.76    5.35
  -4 -20   3   77.72    5.26
   4  20  -4    3.54    3.63
  -4 -20   4   -0.29    3.63
   4  20  -5  109.26    5.83
  -4 -20   5   95.78    5.83
   4  20  -6   32.41    4.01
  -4 -20   6   19.12    4.11
   4  20  -7    9.08    3.73
  -4 -20   7   10.13    3.73
   4  20  -8   10.32    3.54
  -4 -20   8   10.13    3.54
   4  20  -9    8.99    3.54
  -4 -20   9    7.55    3.82
   3  21   4   -1.05    4.01
  -3 -21  -4   -3.63    4.11
   3  21   3   12.14    4.30
  -3 -21  -3   15.77    4.59
   3  21   2    4.21    4.01
  -3 -21  -2    8.13    3.92
   3  21   1   45.41    4.68
  -3 -21  -1   44.45    4.49
   3  21   0   -1.72    3.73
  -3 -21   0    3.35    3.82
   3  21  -1  154.38    7.07
  -3 -21   1  162.60    7.36
   3  21  -2    1.53    3.35
  -3 -21   2   -0.10    3.82
   3  21  -3   36.23    4.11
  -3 -21   3   32.60    4.30
   3  21  -4   43.49    4.21
  -3 -21   4   42.16    4.21
   3  21  -5   13.29    3.63
  -3 -21   5   14.91    4.01
   3  21  -6   41.39    4.49
  -3 -21   6   40.34    4.21
   3  21  -7  108.59    5.93
  -3 -21   7   96.36    5.35
   2  22   0  107.64    6.31
   2  22  -1   10.80    4.11
  -2 -22   1    2.39    4.11
   2  22  -2   17.11    4.11
  24   2  -7   13.57    4.30
  24   2  -7   15.10    4.78
  24   2  -8    4.40    3.82
  24   2  -8    6.98    4.11
  24   2  -9  137.56    6.79
  24   2  -9  140.33    6.79
  24   2 -10    3.15    4.01
  24   2 -10    4.68    3.73
  24   2 -12    4.11    4.01
  24   2 -12    0.38    3.82
  24   2 -13   77.24    5.16
  24   2 -13   65.39    4.97
  24   2 -14    1.82    4.11
  24   2 -14    4.11    3.92
  24   2 -15    7.93    3.73
  24   2 -15    4.40    3.73
  24   2 -16    8.32    3.44
  24   2 -16    9.56    3.82
  23   3  -4    6.40    4.30
  23   3  -4   10.23    4.49
  23   3  -5  161.36    7.46
  23   3  -5  154.38    7.36
  23   3  -6    5.93    4.11
  23   3  -6    6.31    4.11
  23   3  -7   60.41    5.45
  23   3  -7   59.84    5.07
  23   3  -8   29.35    4.30
  23   3  -8   26.19    4.40
  23   3  -9   49.42    4.68
  23   3  -9   40.34    4.97
  23   3 -10   61.85    4.88
  23   3 -10   78.00    5.54
  23   3 -11    6.02    3.44
  23   3 -11    3.35    3.82
  23   3 -12    7.84    3.73
  23   3 -12    7.84    3.73
  23   3 -13   94.45    5.54
  23   3 -13   86.42    5.64
  23   3 -14    2.77    3.54
  23   3 -14    0.29    3.73
  23   3 -15   25.91    4.11
  23   3 -15   28.87    4.30
  23   3 -16   45.41    4.30
  23   3 -16   46.08    4.49
  23   3 -17   11.28    3.44
  23   3 -17   13.96    3.73
  23   3 -18   -0.10    3.73
  23   3 -18    6.40    3.82
  22   4  -2    9.46    5.07
  22   4  -2   -0.29    4.21
  22   4  -4   44.45    5.16
  22   4  -4   35.46    4.68
  22   4  -5    7.17    4.40
  22   4  -5    8.70    4.01
  22   4  -6  132.97    6.60
  22   4  -6  140.90    6.88
  22   4  -7    0.96    4.30
  22   4  -7    1.72    3.92
  22   4  -8  112.80    6.02
  22   4  -8  105.15    6.12
  22   4  -9   19.21    3.82
  22   4  -9   18.45    4.21
  22   4 -10   -4.01    3.54
  22   4 -10   -1.43    3.63
  22   4 -11   79.92    5.07
  22   4 -11   67.39    5.35
  22   4 -12   82.31    5.45
  22   4 -12   94.92    5.83
  22   4 -13    6.60    3.92
  22   4 -13    8.70    3.82
  22   4 -14  114.81    5.83
  22   4 -14  110.03    5.93
  22   4 -15   -1.24    3.63
  22   4 -15   -3.54    3.63
  22   4 -16   27.05    4.40
  22   4 -16   30.40    4.40
  22   4 -17   11.57    3.82
  22   4 -17   12.43    3.73
  22   4 -18    0.38    3.73
  22   4 -18    9.18    3.54
  22   4 -19   18.35    3.82
  22   4 -19   13.86    3.82
  21   5  -1    3.82    5.07
  21   5  -1    2.58    4.21
  21   5  -2   62.61    5.93
  21   5  -2   60.13    5.26
  21   5  -3   10.71    4.59
  21   5  -3    1.82    3.92
  21   5  -4  132.59    6.60
  21   5  -4  151.42    7.27
  21   5  -5   82.02    5.64
  21   5  -5   84.50    5.45
  21   5  -6    2.49    3.92
  21   5  -6    7.17    4.11
  21   5  -7   19.41    4.01
  21   5  -7   18.64    4.11
  21   5  -8  248.92    9.56
  21   5  -8  260.97   10.04
  21   5  -9   21.99    4.11
  21   5  -9   19.88    3.92
  21   5 -10  724.11   23.04
  21   5 -10  758.15   24.28
  21   5 -11    7.17    3.82
  21   5 -11    1.72    3.54
  21   5 -12   41.97    4.49
  21   5 -12   41.49    4.59
  21   5 -13   44.07    4.21
  21   5 -13   42.54    4.59
  21   5 -14   17.97    3.82
  21   5 -14    6.79    3.82
  21   5 -15    4.68    3.63
  21   5 -15    3.15    3.63
  21   5 -16   86.51    5.35
  21   5 -16   78.19    5.26
  21   5 -17    1.72    3.54
  21   5 -17   -1.72    3.63
  21   5 -18  167.29    7.36
  21   5 -18  172.74    7.46
  21   5 -19    4.30    3.63
  21   5 -19   -4.68    3.73
  20   6   1    5.07    5.45
  20   6   1    5.93    5.07
  20   6  -1    9.18    4.88
  20   6  -1   11.28    4.11
  20   6  -2    8.89    4.59
  20   6  -2   10.13    4.21
  20   6  -3  229.42    9.18
  20   6  -3  243.86    9.65
  20   6  -4   29.82    4.40
  20   6  -4   19.21    3.82
  20   6  -5   -7.07    3.82
  20   6  -5   -2.77    3.63
  20   6  -6  126.66    6.50
  20   6  -6  125.32    6.50
  20   6  -7   74.85    5.16
  20   6  -7   78.10    5.35
  20   6  -8   33.84    4.01
  20   6  -8   41.20    4.59
  20   6  -9  247.49    9.65
  20   6  -9  263.45   10.04
  20   6 -10  133.16    6.69
  20   6 -10  131.44    6.69
  20   6 -11   51.52    4.59
  20   6 -11   57.16    4.88
  20   6 -12   46.27    4.78
  20   6 -12   38.43    4.40
  20   6 -13    1.53    3.35
  20   6 -13   -1.34    3.54
  20   6 -14   22.46    4.01
  20   6 -14   25.43    4.11
  20   6 -15   71.50    5.07
  20   6 -15   63.19    4.78
  20   6 -16   14.53    3.82
  20   6 -16   10.99    3.63
  20   6 -17  211.83    8.41
  20   6 -17  212.60    8.70
  20   6 -18    2.10    3.35
  20   6 -18    3.35    3.73
  20   6 -19   60.22    4.49
  20   6 -19   57.16    4.59
  20   6 -20   50.38    4.40
  20   6 -20   50.09    4.49
  19   7   2   -0.29    5.26
  19   7   2   -2.20    4.59
  19   7  -1   32.50    4.78
  19   7  -1   28.68    4.11
  19   7  -2   28.58    4.59
  19   7  -2   26.29    4.01
  19   7  -3   10.04    4.01
  19   7  -3    7.74    4.11
  19   7  -4  111.27    6.12
  19   7  -4   94.25    5.74
  19   7  -5  182.68    7.93
  19   7  -5  202.56    8.51
  19   7  -6    7.36    3.44
  19   7  -6   17.40    3.73
  19   7  -7  170.92    7.55
  19   7  -7  156.58    7.36
  19   7  -8    0.38    3.54
  19   7  -8   -1.82    3.54
  19   7  -9   -0.48    3.25
  19   7  -9   -2.68    3.63
  19   7 -10  128.38    6.50
  19   7 -10  133.45    6.60
  19   7 -11  173.21    7.46
  19   7 -11  169.20    7.65
  19   7 -12    0.29    3.63
  19   7 -12    5.35    3.54
  19   7 -13  155.82    6.88
  19   7 -13  169.39    7.46
  19   7 -14    2.29    3.54
  19   7 -14    2.29    3.54
  19   7 -15   19.41    3.82
  19   7 -15   21.51    3.92
  19   7 -16   44.55    4.49
  19   7 -16   44.93    4.40
  19   7 -17    4.59    3.44
  19   7 -17   -2.87    3.44
  19   7 -18   14.05    3.82
  19   7 -18   10.61    3.54
  19   7 -19   92.15    5.45
  19   7 -19   89.00    5.26
  19   7 -20   -2.77    3.44
  19   7 -20    0.57    3.73
  18   8   0   33.74    4.97
  18   8   0   43.59    4.49
  18   8  -1   88.90    5.35
  18   8  -1   93.68    5.83
  18   8  -2   32.41    4.30
  18   8  -2   42.16    4.40
  18   8  -3  120.73    6.31
  18   8  -3  114.23    6.12
  18   8  -4   65.86    4.97
  18   8  -4   68.16    5.26
  18   8  -5   -1.91    3.25
  18   8  -5    5.16    3.54
  18   8  -6   52.00    4.78
  18   8  -6   49.42    4.78
  18   8  -7  138.61    6.40
  18   8  -7  144.25    6.98
  18   8  -8  193.38    8.22
  18   8  -8  184.30    8.03
  18   8  -9   19.69    3.73
  18   8  -9   15.20    3.92
  18   8 -10   63.95    4.88
  18   8 -10   52.10    4.59
  18   8 -11  197.11    8.13
 -18  -8  11  197.69    8.22
  18   8 -12  158.59    7.17
 -18  -8  12  155.34    7.07
  18   8 -13   12.71    3.63
 -18  -8  13    7.93    3.63
  18   8 -14   44.55    4.59
 -18  -8  14   45.60    4.40
  18   8 -15  131.54    6.40
 -18  -8  15  119.78    5.93
  18   8 -16   30.02    4.11
 -18  -8  16   31.16    3.63
  18   8 -17  177.90    7.65
 -18  -8  17  174.93    7.46
  18   8 -18   40.34    4.21
 -18  -8  18   22.37    3.82
  18   8 -19    6.31    3.63
 -18  -8  19    3.54    3.25
  18   8 -20  115.38    5.64
  18   8 -20  101.52    5.64
  17   9   3    1.91    4.30
  17   9   3   12.91    4.21
  17   9   2   -2.77    4.68
  17   9   2    0.86    3.73
  17   9  -1   13.38    4.21
  17   9  -1    5.83    3.63
  17   9  -2   27.15    4.30
  17   9  -2   30.02    4.30
  17   9  -3   64.43    4.68
  17   9  -3   57.55    4.49
  17   9  -4  131.73    6.60
  17   9  -4  136.79    6.79
  17   9  -5    1.91    3.25
  17   9  -5   -0.67    3.35
  17   9  -6   86.80    5.45
  17   9  -6   75.33    5.07
  17   9  -7  128.48    6.60
 -17  -9   7  133.07    6.60
  17   9  -8  190.99    8.13
 -17  -9   8  184.30    7.84
  17   9  -9   49.13    4.68
 -17  -9   9   52.77    4.78
  17   9 -10  150.94    7.17
 -17  -9  10  140.14    6.69
  17   9 -11   29.92    4.11
 -17  -9  11   38.24    4.21
  17   9 -12    3.63    3.54
 -17  -9  12   -1.91    3.15
  17   9 -13    8.70    3.63
 -17  -9  13    9.56    3.73
  17   9 -14  441.35   15.10
 -17  -9  14  444.79   15.20
  17   9 -15   23.52    3.82
 -17  -9  15   27.24    3.63
  17   9 -16  243.00    9.46
 -17  -9  16  254.95    9.56
  17   9 -17   21.89    4.01
 -17  -9  17   27.82    3.92
  17   9 -18   19.60    3.73
 -17  -9  18   21.32    3.82
  17   9 -19   -2.96    3.54
 -17  -9  19   -1.24    3.06
  17   9 -20   18.07    3.73
 -17  -9  20   15.49    3.44
  16  10   3    8.79    4.40
  16  10   3    6.02    3.82
  16  10   1   42.35    4.97
  16  10   1   42.54    4.11
  16  10   0    8.79    3.73
  16  10   0   16.16    4.01
  16  10  -1   88.61    5.54
  16  10  -1   78.86    5.07
  16  10  -2   70.36    5.16
  16  10  -2   58.50    4.59
  16  10  -3  135.84    6.60
  16  10  -3  123.79    6.21
  16  10  -4   24.38    3.73
 -16 -10   4   17.11    3.44
  16  10  -5    6.98    3.44
 -16 -10   5    6.60    3.44
  16  10  -6   75.04    5.26
 -16 -10   6   78.19    5.16
  16  10  -7  235.44    9.56
 -16 -10   7  243.76    9.46
  16  10  -8   35.18    4.11
 -16 -10   8   42.44    4.21
  16  10  -9   18.93    3.82
 -16 -10   9   17.21    3.63
  16  10 -10  148.26    6.88
 -16 -10  10  142.62    6.79
  16  10 -11    7.46    3.82
 -16 -10  11    3.44    3.25
  16  10 -12   75.04    5.26
 -16 -10  12   79.25    5.16
  16  10 -13   98.17    5.74
 -16 -10  13   88.33    5.45
  16  10 -14   91.10    5.35
 -16 -10  14   90.24    5.26
  16  10 -15   81.35    5.26
 -16 -10  15   70.26    4.59
  16  10 -16   55.16    4.59
 -16 -10  16   57.36    4.68
  16  10 -17   24.57    4.01
 -16 -10  17   39.77    4.30
  16  10 -18   70.83    4.88
 -16 -10  18   51.43    4.11
  16  10 -19    0.48    3.54
 -16 -10  19    3.15    3.44
  16  10 -20  112.03    5.93
 -16 -10  20  115.19    5.54
  15  11   4   -0.76    4.30
  15  11   4    6.31    3.82
  15  11   2    3.44    4.01
  15  11   2    2.39    3.54
  15  11   0   52.00    4.78
  15  11   0   50.09    4.30
  15  11  -1   41.49    4.40
  15  11  -1   37.09    4.11
  15  11  -2   91.48    5.64
 -15 -11   2   88.52    5.07
  15  11  -3  325.40   11.76
 -15 -11   3  349.01   12.43
  15  11  -4   10.80    3.44
 -15 -11   4    7.93    3.35
  15  11  -5  248.35    9.75
 -15 -11   5  246.92    9.56
  15  11  -6   14.43    3.54
 -15 -11   6    9.46    3.63
  15  11  -7   87.95    5.54
 -15 -11   7   85.84    5.16
  15  11  -8   60.41    4.78
 -15 -11   8   56.40    4.40
  15  11  -9   40.15    4.30
 -15 -11   9   32.41    3.82
  15  11 -10   -0.67    3.63
 -15 -11  10   -1.34    3.63
  15  11 -11   53.72    4.59
 -15 -11  11   59.27    4.59
  15  11 -12   -3.06    3.73
 -15 -11  12    1.34    3.35
  15  11 -13  437.91   15.01
 -15 -11  13  485.71   16.35
  15  11 -14  101.71    5.83
 -15 -11  14   81.92    4.97
  15  11 -15   19.98    4.01
 -15 -11  15   21.99    3.63
  15  11 -16    2.01    3.44
 -15 -11  16    4.40    3.63
  15  11 -17  135.07    6.40
 -15 -11  17  121.12    6.31
  15  11 -18   12.24    3.63
 -15 -11  18    5.54    3.25
  15  11 -19  274.54    9.94
 -15 -11  19  262.78    9.56
  14  12   4    2.10    3.73
  14  12   4   -2.49    3.54
  14  12   2   68.73    4.78
  14  12   2   63.19    4.88
  14  12   1  270.53    9.85
  14  12   1  283.72   10.52
  14  12   0    7.46    3.35
 -14 -12   0    1.05    3.06
  14  12  -1  324.73   11.66
 -14 -12   1  321.77   11.47
  14  12  -2   97.60    5.54
 -14 -12   2   93.39    5.35
  14  12  -3    8.89    3.44
 -14 -12   3    5.16    3.15
  14  12  -4  143.96    6.88
 -14 -12   4  128.67    6.40
  14  12  -5   15.77    4.01
 -14 -12   5   12.04    3.73
  14  12  -6    5.54    3.35
 -14 -12   6    4.49    3.15
  14  12  -7  360.19   13.00
 -14 -12   7  325.97   11.76
  14  12  -8   -4.11    3.35
 -14 -12   8    3.44    3.25
  14  12  -9  273.40   10.32
 -14 -12   9  285.44   10.71
  14  12 -10   92.25    5.74
 -14 -12  10  103.53    5.83
  14  12 -11    3.44    3.73
 -14 -12  11    1.63    3.25
  14  12 -12  305.32   11.38
 -14 -12  12  316.41   11.76
  14  12 -13   88.42    5.35
 -14 -12  13  102.00    5.64
  14  12 -14    9.94    3.25
 -14 -12  14   14.82    3.35
  14  12 -15  196.06    7.93
 -14 -12  15  204.19    8.51
  14  12 -16    2.87    3.15
 -14 -12  16    4.21    3.54
  14  12 -17   67.78    4.68
 -14 -12  17   62.61    4.49
  14  12 -18   64.05    4.78
 -14 -12  18   54.87    4.40
  14  12 -19   43.11    4.11
 -14 -12  19   42.63    4.01
  13  13   3   -3.44    3.82
  13  13   3    0.96    3.35
  13  13   2  136.79    6.40
 -13 -13  -2  147.98    6.50
  13  13   1    4.40    3.44
 -13 -13  -1    8.32    3.35
  13  13   0  258.67    9.56
 -13 -13   0  246.06    9.37
  13  13  -1    7.65    3.63
 -13 -13   1   -1.82    3.15
  13  13  -2  118.25    6.02
 -13 -13   2  115.38    6.12
  13  13  -3    4.21    3.44
 -13 -13   3    5.54    3.15
  13  13  -4    6.98    3.54
 -13 -13   4    3.82    3.15
  13  13  -5   46.27    4.40
 -13 -13   5   40.34    4.11
  13  13  -6   33.36    4.49
 -13 -13   6   34.80    4.01
  13  13  -7  112.03    5.93
 -13 -13   7  110.79    5.93
  13  13  -8  447.09   15.39
 -13 -13   8  423.95   14.72
  13  13  -9   16.16    3.73
 -13 -13   9   15.87    3.63
  13  13 -10    0.10    3.25
 -13 -13  10    1.63    3.25
  13  13 -11    0.96    3.44
 -13 -13  11    5.16    3.25
  13  13 -12   77.62    4.97
 -13 -13  12   96.64    5.64
  13  13 -13   -0.38    3.44
 -13 -13  13    6.50    3.35
  13  13 -14  320.90   11.57
 -13 -13  14  337.63   11.85
  13  13 -15    2.77    3.54
 -13 -13  15   -1.34    3.25
  13  13 -16   38.05    4.30
 -13 -13  16   44.26    4.30
  13  13 -17   65.10    4.68
 -13 -13  17   61.75    4.68
  13  13 -18   11.18    3.44
 -13 -13  18   11.66    3.35
  12  14   6    0.29    3.25
  12  14   6    4.11    3.25
  12  14   3    1.15    3.54
 -12 -14  -3   -0.76    3.35
  12  14   2  137.94    6.31
 -12 -14  -2  144.25    6.50
  12  14   1   11.66    3.73
 -12 -14  -1   10.04    3.35
  12  14   0   17.88    3.63
 -12 -14   0   23.99    3.63
  12  14  -1   43.02    4.40
 -12 -14   1   44.64    4.21
  12  14  -2  116.43    5.93
 -12 -14   2  101.90    5.45
  12  14  -3   -2.10    3.54
 -12 -14   3    4.78    3.54
  12  14  -4  420.23   14.43
 -12 -14   4  415.92   14.43
  12  14  -5    9.94    3.63
 -12 -14   5   10.13    3.54
  12  14  -6  146.64    6.98
 -12 -14   6  139.66    6.88
  12  14  -7   34.80    4.11
 -12 -14   7   24.18    3.92
  12  14  -8   21.51    3.63
 -12 -14   8   23.61    3.73
  12  14  -9   -1.05    3.44
 -12 -14   9    5.64    3.54
  12  14 -10  431.41   14.72
 -12 -14  10  409.04   14.05
  12  14 -11   -2.58    3.25
 -12 -14  11    1.53    3.15
  12  14 -12  180.86    7.74
 -12 -14  12  150.85    7.07
  12  14 -13    1.82    3.35
 -12 -14  13   11.57    3.35
  12  14 -14   10.04    3.44
 -12 -14  14   10.99    3.15
  12  14 -15   17.11    3.73
 -12 -14  15   17.78    3.63
  12  14 -16  110.22    5.93
 -12 -14  16  103.91    5.54
  12  14 -17   -0.29    3.25
 -12 -14  17    5.35    3.35
  12  14 -18   78.77    5.35
 -12 -14  18   63.28    5.07
  11  15   4   -0.10    3.63
 -11 -15  -4   -6.21    3.35
  11  15   3   67.58    4.78
 -11 -15  -3   65.10    4.59
  11  15   2   45.69    4.21
 -11 -15  -2   47.99    4.30
  11  15   1   80.01    4.88
 -11 -15  -1   70.83    4.68
  11  15   0   99.61    5.45
 -11 -15   0  107.06    5.74
  11  15  -1  111.27    5.74
 -11 -15   1  118.34    6.02
  11  15  -2   43.69    4.40
 -11 -15   2   54.30    4.40
  11  15  -3  234.87    9.08
 -11 -15   3  220.91    8.99
  11  15  -4   12.04    3.92
 -11 -15   4    8.41    3.82
  11  15  -5  229.33    9.18
 -11 -15   5  244.14    9.65
  11  15  -6  143.77    6.88
 -11 -15   6  145.40    6.79
  11  15  -7    1.24    3.73
 -11 -15   7    5.45    3.54
  11  15  -8  156.96    7.17
 -11 -15   8  168.43    7.27
  11  15  -9  372.62   13.10
 -11 -15   9  369.37   13.10
  11  15 -10    8.41    3.54
 -11 -15  10   -1.43    3.15
  11  15 -11  147.21    6.79
 -11 -15  11  161.74    7.17
  11  15 -12   29.25    3.92
 -11 -15  12   36.52    4.30
  11  15 -13   26.10    4.11
 -11 -15  13   18.74    3.73
  11  15 -14   29.44    4.11
 -11 -15  14   34.99    3.92
  11  15 -15   70.74    5.07
 -11 -15  15   73.99    4.49
  11  15 -16   -6.98    3.54
 -11 -15  16    2.96    3.06
  11  15 -17   93.20    5.45
 -11 -15  17  104.20    5.54
  10  16   6   16.44    4.88
 -10 -16  -6   12.71    3.82
  10  16   5    3.15    3.92
 -10 -16  -5   13.67    3.92
  10  16   4   10.13    3.82
 -10 -16  -4   13.96    3.63
  10  16   3   29.82    4.11
 -10 -16  -3   37.47    4.30
  10  16   2   18.54    3.92
 -10 -16  -2    8.22    3.63
  10  16   1  140.90    6.60
 -10 -16  -1  132.20    6.21
  10  16   0    8.89    3.73
 -10 -16   0   10.61    3.63
  10  16  -1  281.23   10.23
 -10 -16   1  286.59   10.52
  10  16  -2   -1.91    3.35
 -10 -16   2   -1.72    3.25
  10  16  -3    0.10    3.44
 -10 -16   3   -2.39    3.25
  10  16  -4   31.07    4.11
 -10 -16   4   20.46    3.63
  10  16  -5  211.26    8.60
 -10 -16   5  205.91    8.51
  10  16  -6    1.82    3.54
 -10 -16   6    0.76    3.15
  10  16  -7  484.94   16.25
 -10 -16   7  487.33   16.35
  10  16  -8   52.38    4.30
 -10 -16   8   67.78    4.59
  10  16  -9   57.07    4.49
 -10 -16   9   62.52    4.78
  10  16 -10    0.38    3.35
 -10 -16  10   -0.57    3.15
  10  16 -11   56.02    4.59
 -10 -16  11   53.34    4.30
  10  16 -12   -0.76    3.35
 -10 -16  12   -1.34    3.15
  10  16 -13  189.85    8.03
 -10 -16  13  191.19    8.13
  10  16 -14   41.30    4.21
 -10 -16  14   33.65    4.40
  10  16 -15   40.82    4.11
 -10 -16  15   41.58    3.82
  10  16 -16   10.04    3.44
 -10 -16  16   19.02    3.44
   9  17   6    8.79    4.97
  -9 -17  -6   13.00    4.78
   9  17   5   33.27    4.68
  -9 -17  -5   30.30    4.30
   9  17   4    4.78    3.92
  -9 -17  -4    4.11    3.63
   9  17   3   49.42    4.68
  -9 -17  -3   38.72    4.30
   9  17   2  108.02    5.83
  -9 -17  -2  103.24    5.74
   9  17   1   14.34    4.11
  -9 -17  -1   11.38    3.73
   9  17   0  183.35    7.93
  -9 -17   0  175.70    7.65
   9  17  -1  101.23    5.64
  -9 -17   1   94.64    5.35
   9  17  -2   19.41    4.30
  -9 -17   2   27.05    4.11
   9  17  -3  223.21    8.79
  -9 -17   3  215.08    8.70
   9  17  -4   23.42    3.92
  -9 -17   4   36.04    4.21
   9  17  -5    4.30    3.15
  -9 -17   5    4.88    3.44
   9  17  -6  241.85    9.37
  -9 -17   6  239.27    9.27
   9  17  -7    8.13    3.63
  -9 -17   7    0.57    3.54
   9  17  -8   65.48    4.97
  -9 -17   8   59.27    4.49
   9  17  -9  236.69    9.46
  -9 -17   9  237.55    9.27
   9  17 -10   -3.73    3.63
  -9 -17  10   -0.86    3.92
   9  17 -11  121.59    6.12
  -9 -17  11  112.23    6.02
   9  17 -12   51.72    4.49
  -9 -17  12   63.00    4.68
   9  17 -13    5.16    3.44
  -9 -17  13    1.72    3.15
   9  17 -14   11.28    3.63
  -9 -17  14    7.55    3.44
   9  17 -15   25.62    3.73
  -9 -17  15   19.60    3.35
   8  18   6   61.94    5.83
  -8 -18  -6   64.24    5.74
   8  18   5    4.40    4.78
  -8 -18  -5    3.92    3.92
   8  18   4  108.50    5.93
  -8 -18  -4  119.01    6.21
   8  18   3   -3.25    3.73
  -8 -18  -3    5.07    3.63
   8  18   2    7.55    3.82
  -8 -18  -2    5.07    3.63
   8  18   1   11.85    3.73
  -8 -18  -1   15.58    3.92
   8  18   0   19.02    4.11
  -8 -18   0   20.36    3.92
   8  18  -1   29.06    4.49
  -8 -18   1   30.11    4.01
   8  18  -2  301.88   11.09
  -8 -18   2  326.74   11.95
   8  18  -3  116.05    6.12
  -8 -18   3  123.51    6.21
   8  18  -4   10.32    3.54
  -8 -18   4    8.99    3.73
   8  18  -5    3.92    3.44
  -8 -18   5    4.40    3.73
   8  18  -6    3.15    3.63
  -8 -18   6    1.15    3.63
   8  18  -7    2.68    3.54
  -8 -18   7    9.94    3.63
   8  18  -8   46.94    4.68
  -8 -18   8   42.06    4.49
   8  18  -9   -1.53    3.63
  -8 -18   9    2.96    3.73
   8  18 -10  153.71    7.07
  -8 -18  10  150.85    6.69
   8  18 -11    6.40    3.44
  -8 -18  11    4.40    3.44
   8  18 -12   11.95    3.73
  -8 -18  12   18.45    3.73
   8  18 -13   19.41    3.63
  -8 -18  13   26.96    3.92
   7  19   5   73.03    6.21
  -7 -19  -5   71.89    5.35
   7  19   4   36.04    4.68
  -7 -19  -4   40.72    4.68
   7  19   3    3.25    3.82
  -7 -19  -3    9.18    4.01
   7  19   2  123.41    6.40
  -7 -19  -2  114.33    6.31
   7  19   1    5.45    4.11
  -7 -19  -1   12.62    3.63
   7  19   0    3.06    3.82
  -7 -19   0    6.69    3.82
   7  19  -1   12.24    4.21
  -7 -19   1   24.76    4.21
   7  19  -2   -1.63    3.54
  -7 -19   2   -0.10    3.73
   7  19  -3    8.13    4.01
  -7 -19   3    4.88    4.01
   7  19  -4  156.87    7.07
  -7 -19   4  174.65    7.74
   7  19  -5   17.49    4.01
  -7 -19   5   20.93    3.82
   7  19  -6   26.10    4.01
  -7 -19   6   27.15    4.01
   7  19  -7    1.34    3.44
  -7 -19   7    0.76    3.54
   7  19  -8   -0.38    3.44
  -7 -19   8   -0.96    3.44
   7  19  -9  146.83    6.79
  -7 -19   9  137.56    6.40
   7  19 -10   32.41    4.01
  -7 -19  10   22.56    3.82
   7  19 -11    4.01    3.35
  -7 -19  11    2.39    3.63
   7  19 -12   57.83    4.59
  -7 -19  12   51.52    4.11
   6  20   4   10.71    4.40
  -6 -20  -4   16.54    4.49
   6  20   3   87.56    5.64
  -6 -20  -3   91.67    5.83
   6  20   2    2.10    4.11
  -6 -20  -2    3.82    3.73
   6  20   1  125.32    6.50
  -6 -20  -1  119.40    6.50
   6  20   0   89.28    5.45
  -6 -20   0   80.20    5.45
   6  20  -1   39.96    4.59
  -6 -20   1   21.99    4.11
   6  20  -2   22.37    3.73
  -6 -20   2   20.55    3.92
   6  20  -3   99.61    5.74
  -6 -20   3   97.03    5.74
   6  20  -4    3.82    3.54
  -6 -20   4    4.40    3.63
   6  20  -5  125.51    6.31
  -6 -20   5  122.07    6.31
   6  20  -6   -6.40    3.35
  -6 -20   6    0.86    3.63
   6  20  -7   34.22    4.40
  -6 -20   7   36.04    4.01
   6  20  -8    5.45    3.35
  -6 -20   8    6.69    3.73
   6  20  -9   -2.49    3.54
  -6 -20   9   -4.01    3.63
   6  20 -10   -0.76    3.73
  -6 -20  10    1.63    3.92
   5  21   2   11.95    4.21
  -5 -21  -2    6.69    4.11
   5  21   1   18.35    4.40
  -5 -21  -1   21.51    4.21
   5  21   0    9.08    4.40
  -5 -21   0    0.19    3.73
   5  21  -1   85.27    5.45
  -5 -21   1   86.13    5.54
   5  21  -2   25.24    3.92
  -5 -21   2   23.04    4.11
   5  21  -3   97.31    5.54
  -5 -21   3   87.08    5.35
   5  21  -4   48.94    4.59
  -5 -21   4   40.63    4.30
   5  21  -5    1.72    3.63
  -5 -21   5    0.29    3.63
   5  21  -6   -6.40    3.54
  -5 -21   6    7.27    3.63
   5  21  -7  105.73    5.64
  -5 -21   7  104.87    6.12
  24   4  -8   21.22    4.49
  24   4  -8   32.21    5.07
  24   4  -9    1.15    4.01
  24   4  -9    5.26    3.92
  24   4 -10    7.07    3.92
  24   4 -10    7.27    4.01
  24   4 -11   27.53    3.92
  24   4 -11   17.02    4.21
  24   4 -12   34.03    4.11
  24   4 -12   25.24    4.11
  24   4 -13    1.15    3.63
  24   4 -13    8.79    3.63
  24   4 -14   55.44    4.49
  24   4 -14   52.86    4.78
  24   4 -15    3.73    3.25
  24   4 -15    4.40    3.73
  23   5  -5    8.70    4.40
  23   5  -5    7.17    4.59
  23   5  -6   38.24    4.88
  23   5  -6   42.63    5.07
  23   5  -7    7.55    4.01
  23   5  -7    8.60    4.11
  23   5  -8   25.81    4.11
  23   5  -8   35.18    4.49
  23   5  -9   13.57    3.92
  23   5  -9   28.20    4.49
  23   5 -10   79.44    5.16
  23   5 -10   80.87    5.26
  23   5 -11   -0.96    3.44
  23   5 -11   -4.01    3.44
  23   5 -12   45.02    4.49
  23   5 -12   45.41    4.49
  23   5 -13    6.98    3.73
  23   5 -13    4.49    3.63
  23   5 -14   26.77    3.63
  23   5 -14   23.99    4.11
  23   5 -15    3.06    3.35
  23   5 -15   -6.50    3.73
  23   5 -16   26.10    4.01
  23   5 -16   21.89    4.11
  23   5 -17    1.24    3.35
  23   5 -17    1.15    3.54
  22   6  -3  242.23   10.13
  22   6  -3  234.01    9.46
  22   6  -4   39.48    5.16
  22   6  -4   35.46    4.78
  22   6  -5   65.48    5.16
  22   6  -5   59.46    4.97
  22   6  -6   79.25    5.35
  22   6  -6   82.69    5.54
  22   6  -7   16.25    3.92
  22   6  -7    7.36    4.11
  22   6  -8   52.86    4.78
  22   6  -8   51.62    4.88
  22   6  -9  149.12    6.88
  22   6  -9  155.15    7.17
  22   6 -10    0.96    3.54
  22   6 -10    5.74    3.73
  22   6 -11  251.50    9.65
  22   6 -11  245.86    9.56
  22   6 -12    2.39    3.63
  22   6 -12   -1.15    3.44
  22   6 -13   13.19    3.63
  22   6 -13   15.49    3.54
  22   6 -14   84.70    4.88
  22   6 -14   74.47    5.07
  22   6 -15   13.29    3.73
  22   6 -15    6.60    3.54
  22   6 -16    2.39    3.73
  22   6 -16    3.06    3.54
  22   6 -17   39.86    4.30
  22   6 -17   45.69    4.30
  22   6 -18   -6.21    3.73
  22   6 -18    2.68    3.63
  21   7  -1   30.97    6.02
  21   7  -2    2.39    5.16
  21   7  -2   -1.82    3.92
  21   7  -3   53.05    5.07
  21   7  -3   65.48    5.16
  21   7  -4    3.35    4.21
  21   7  -4    7.27    4.01
  21   7  -5  194.72    8.22
  21   7  -5  200.46    8.41
  21   7  -6    4.49    3.63
  21   7  -6    0.96    3.73
  21   7  -7  130.48    6.69
  21   7  -7  138.61    6.98
  21   7  -8    2.39    4.11
  21   7  -8    6.79    3.82
  21   7  -9   15.68    3.82
  21   7  -9    6.79    3.82
  21   7 -11   73.70    4.88
  21   7 -11   74.08    5.16
  21   7 -12    5.07    3.63
  21   7 -12    6.50    3.63
  21   7 -13  210.88    8.41
  21   7 -13  207.63    8.51
  21   7 -14    3.15    3.25
  21   7 -14    4.68    3.82
  21   7 -15   88.61    5.35
  21   7 -15   87.18    5.35
  21   7 -16    2.39    3.44
  21   7 -16    1.72    3.35
  21   7 -17   13.67    3.63
  21   7 -17   12.14    3.82
  21   7 -18   16.63    3.82
  21   7 -18   14.63    4.21
  20   8  -2   18.54    4.78
  20   8  -2   31.26    4.59
  20   8  -3    7.74    3.73
  20   8  -3   10.23    4.11
  20   8  -4   45.31    4.78
  20   8  -4   37.85    4.49
  20   8  -5   -1.63    3.63
  20   8  -5    1.63    3.63
  20   8  -6  115.00    6.40
  20   8  -6  130.39    6.50
  20   8  -7   88.14    5.45
  20   8  -7   92.44    5.74
  20   8  -8   26.00    3.92
  20   8  -8   28.96    4.11
  20   8  -9  100.95    5.54
  20   8  -9  107.54    5.93
  20   8 -10    1.63    3.35
  20   8 -10    2.01    3.44
  20   8 -11  214.32    8.70
  20   8 -11  194.63    8.32
  20   8 -12   77.72    5.16
  20   8 -12   87.18    5.45
  20   8 -13   21.80    3.92
  20   8 -13   20.17    3.92
  20   8 -14   42.25    4.40
  20   8 -14   45.31    4.59
  20   8 -15   69.50    5.07
  20   8 -15   69.88    5.16
  20   8 -16    0.67    3.63
  20   8 -16    6.79    3.82
  20   8 -17  143.01    6.69
  20   8 -17  128.00    6.12
  20   8 -18    3.92    3.44
  20   8 -18   -5.16    3.35
  20   8 -19    0.86    3.63
  20   8 -19   -4.01    3.54
  19   9   1    1.91    5.26
  19   9   1    1.43    5.26
  19   9  -1    0.86    4.68
  19   9  -1    5.26    3.82
  19   9  -2   65.19    5.54
  19   9  -2   52.77    4.78
  19   9  -3   39.77    4.78
  19   9  -3   33.84    4.59
  19   9  -4  191.28    8.03
  19   9  -4  205.33    8.60
  19   9  -5   -5.93    3.54
  19   9  -5    1.53    3.54
  19   9  -6   27.72    4.01
  19   9  -6   20.07    4.11
  19   9  -7    8.41    3.54
  19   9  -7    3.82    3.82
  19   9  -8  195.10    7.93
  19   9  -8  204.66    8.41
  19   9  -9   30.02    4.11
  19   9  -9   38.43    4.40
  19   9 -10  191.38    7.84
  19   9 -10  193.48    8.13
  19   9 -11    4.78    3.15
  19   9 -11    2.87    3.54
  19   9 -12   62.61    4.88
 -19  -9  12   73.13    5.07
  19   9 -13   21.99    3.73
 -19  -9  13   17.49    3.44
  19   9 -14   54.39    4.49
 -19  -9  14   54.49    4.78
  19   9 -15    3.63    3.54
 -19  -9  15   -0.48    3.63
  19   9 -16  362.01   12.81
 -19  -9  16  367.17   12.71
  19   9 -17   10.90    3.92
 -19  -9  17    4.21    3.15
  19   9 -18   37.76    4.30
 -19  -9  18   53.72    3.92
  19   9 -19   17.21    3.63
  18  10   1   16.35    4.59
  18  10   1    5.64    5.16
  18  10  -1   95.21    5.64
  18  10  -1  105.15    6.12
  18  10  -2   36.52    4.21
  18  10  -2   34.80    4.88
  18  10  -3    4.21    3.63
  18  10  -3    6.12    3.73
  18  10  -4   99.51    5.64
  18  10  -4   87.95    5.45
  18  10  -5   -0.10    3.63
  18  10  -5   -2.01    3.82
  18  10  -6   67.78    5.16
  18  10  -6   66.05    4.97
  18  10  -7   66.05    4.68
  18  10  -7   62.42    4.88
  18  10  -8    1.05    3.54
 -18 -10   8   -0.10    3.35
  18  10  -9  210.30    8.60
 -18 -10   9  196.73    8.13
  18  10 -10   27.91    3.92
 -18 -10  10   21.80    4.01
  18  10 -11   50.28    4.59
 -18 -10  11   58.12    4.68
  18  10 -12  146.45    7.17
 -18 -10  12  152.09    6.88
  18  10 -13    0.57    4.01
 -18 -10  13    5.54    3.54
  18  10 -14  132.40    6.50
 -18 -10  14  138.13    6.69
  18  10 -15  228.85    8.99
 -18 -10  15  221.97    8.79
  18  10 -16   -1.05    3.35
 -18 -10  16   -9.37    3.15
  18  10 -17   62.23    4.49
 -18 -10  17   58.41    4.78
  18  10 -18   33.36    4.11
 -18 -10  18   28.87    3.82
  18  10 -19    5.26    3.44
 -18 -10  19   12.43    3.35
  17  11   2    4.68    5.07
  17  11   2   -4.68    4.11
  17  11   0   11.18    4.68
  17  11   0    8.70    3.73
  17  11  -1   -6.50    4.01
  17  11  -1    2.96    3.73
  17  11  -2   15.58    3.82
  17  11  -2   12.33    3.92
  17  11  -3  240.61    9.37
  17  11  -3  219.58    9.18
  17  11  -4    4.21    3.44
  17  11  -4    3.54    3.54
  17  11  -5  117.39    6.02
 -17 -11   5  112.13    5.83
  17  11  -6    3.25    3.44
 -17 -11   6    6.50    3.54
  17  11  -7  233.72    9.18
 -17 -11   7  236.78    9.37
  17  11  -8   20.55    3.92
 -17 -11   8   26.38    3.82
  17  11  -9   13.00    3.54
 -17 -11   9   10.13    3.44
  17  11 -10   91.39    5.45
 -17 -11  10   67.39    4.78
  17  11 -11  244.43    9.75
 -17 -11  11  260.20    9.85
  17  11 -12   18.35    4.21
 -17 -11  12   20.27    3.73
  17  11 -13  258.29   10.23
 -17 -11  13  273.40   10.32
  17  11 -14    2.68    3.44
 -17 -11  14   -1.24    3.15
  17  11 -15   40.72    4.30
 -17 -11  15   40.05    4.01
  17  11 -16   64.24    4.78
 -17 -11  16   63.76    4.40
  17  11 -17   68.73    4.68
 -17 -11  17   62.04    4.59
  17  11 -18   10.80    3.73
 -17 -11  18    2.01    3.25
  17  11 -19  157.63    7.07
  16  12   1   -2.01    4.01
  16  12   1    2.39    3.73
  16  12   0   13.86    3.82
  16  12   0    4.88    3.92
  16  12  -1  179.71    7.55
  16  12  -1  166.62    7.27
  16  12  -2   22.27    4.11
  16  12  -2   25.52    3.82
  16  12  -3  148.55    7.07
 -16 -12   3  163.18    7.36
  16  12  -4   53.72    4.49
 -16 -12   4   66.05    4.78
  16  12  -5   12.52    3.44
 -16 -12   5   11.47    3.54
  16  12  -6  201.41    8.51
 -16 -12   6  228.18    8.99
  16  12  -7  128.19    6.12
 -16 -12   7  146.64    6.79
  16  12  -8    8.22    3.92
 -16 -12   8    6.31    3.35
  16  12  -9  219.58    8.79
 -16 -12   9  235.25    9.18
  16  12 -10   17.11    3.54
 -16 -12  10   18.45    3.92
  16  12 -11   40.34    4.49
 -16 -12  11   39.86    4.01
  16  12 -12   29.63    4.01
 -16 -12  12   26.57    3.82
  16  12 -13   30.21    4.21
 -16 -12  13   31.45    3.92
  16  12 -14   19.02    3.73
 -16 -12  14   14.43    3.54
  16  12 -15  451.39   15.29
 -16 -12  15  416.69   14.05
  16  12 -16   -0.38    3.44
 -16 -12  16    6.79    3.63
  16  12 -17  107.54    5.74
 -16 -12  17  101.14    5.64
  16  12 -18   33.74    4.01
 -16 -12  18   18.35    3.54
  15  13   2    2.68    4.11
  15  13   2    6.69    4.01
  15  13   1    0.67    4.11
  15  13   1   -0.10    3.82
  15  13   0  139.28    6.60
  15  13   0  116.81    6.12
  15  13  -1   17.49    3.82
 -15 -13   1   23.32    3.54
  15  13  -2  293.37   10.71
 -15 -13   2  270.05   10.04
  15  13  -3    0.10    3.44
 -15 -13   3   -1.43    3.44
  15  13  -4    3.82    3.54
 -15 -13   4    5.64    3.63
  15  13  -5    3.92    3.63
 -15 -13   5    5.16    3.44
  15  13  -6  126.76    6.31
 -15 -13   6  120.45    6.12
  15  13  -7   77.62    4.97
 -15 -13   7   68.73    4.88
  15  13  -8  114.90    5.93
 -15 -13   8  117.10    5.93
  15  13  -9   56.78    4.78
 -15 -13   9   57.55    4.68
  15  13 -10   89.28    5.54
 -15 -13  10  103.24    5.74
  15  13 -11   11.66    3.73
 -15 -13  11   11.18    3.44
  15  13 -12   40.34    4.21
 -15 -13  12   35.27    4.21
  15  13 -13    8.03    3.63
 -15 -13  13    4.11    3.54
  15  13 -14  238.89    9.18
 -15 -13  14  253.99    9.65
  15  13 -15    7.65    3.63
 -15 -13  15    3.25    3.54
  15  13 -16   97.31    5.35
 -15 -13  16  107.06    5.83
  15  13 -17   39.00    4.21
 -15 -13  17   33.65    4.01
  15  13 -18   13.10    3.54
 -15 -13  18   15.10    3.35
  14  14   3   -1.24    4.49
  14  14   3    4.49    4.30
  14  14   2   80.39    5.35
  14  14   2   74.85    5.54
  14  14   1   14.82    3.92
 -14 -14  -1    0.10    3.35
  14  14   0   10.04    3.82
 -14 -14   0   15.01    3.44
  14  14  -1   14.72    3.82
 -14 -14   1   12.24    3.25
  14  14  -2   24.09    4.30
 -14 -14   2   18.74    3.73
  14  14  -3   -2.49    3.63
 -14 -14   3   -0.57    3.15
  14  14  -4  306.66   11.09
 -14 -14   4  294.23   10.90
  14  14  -5   92.15    5.45
 -14 -14   5   75.42    5.07
  14  14  -6   48.08    4.30
 -14 -14   6   37.47    4.21
  14  14  -7    4.59    3.54
 -14 -14   7   16.35    3.82
  14  14  -8   -0.86    3.25
 -14 -14   8    1.05    3.25
  14  14  -9   50.38    4.30
 -14 -14   9   57.93    4.68
  14  14 -10  160.60    7.17
 -14 -14  10  170.82    7.46
  14  14 -11    4.11    3.35
 -14 -14  11    8.22    3.25
  14  14 -12  162.89    7.27
 -14 -14  12  175.99    7.74
  14  14 -13    8.60    3.54
 -14 -14  13    3.15    3.92
  14  14 -14   52.58    4.40
 -14 -14  14   46.94    4.11
  14  14 -15  117.48    6.02
 -14 -14  15  124.84    6.12
  14  14 -16   52.48    4.30
 -14 -14  16   65.58    4.68
  14  14 -17   11.95    3.54
 -14 -14  17   12.33    3.54
  13  15   4    0.10    4.21
  13  15   4   -3.25    4.21
  13  15   3   25.24    4.49
  13  15   3   26.29    4.40
  13  15   2    4.97    3.82
 -13 -15  -2    0.57    3.73
  13  15   1  106.87    5.83
 -13 -15  -1   93.49    5.45
  13  15   0   87.85    5.45
 -13 -15   0   98.27    5.64
  13  15  -1    1.72    3.63
 -13 -15   1    3.06    3.63
  13  15  -2   90.34    5.35
 -13 -15   2   72.94    4.97
  13  15  -3  269.76   10.13
 -13 -15   3  257.43    9.75
  13  15  -4   22.66    4.30
 -13 -15   4    7.84    3.54
  13  15  -5   44.07    4.40
 -13 -15   5   44.16    4.21
  13  15  -6  131.73    6.50
 -13 -15   6  137.75    6.60
  13  15  -7   57.26    4.49
 -13 -15   7   59.27    4.68
  13  15  -8   73.99    5.07
 -13 -15   8   83.45    5.26
  13  15  -9  107.06    5.93
 -13 -15   9  121.88    6.12
  13  15 -10   21.99    3.92
 -13 -15  10   20.07    3.73
  13  15 -11  249.40    9.65
 -13 -15  11  221.97    8.70
  13  15 -12   57.74    4.49
 -13 -15  12   48.18    4.78
  13  15 -13   64.53    4.88
 -13 -15  13   80.78    5.26
  13  15 -14   36.04    4.11
 -13 -15  14   22.94    4.01
  13  15 -15    7.17    3.35
 -13 -15  15    6.60    3.25
  13  15 -16   30.88    4.01
 -13 -15  16   26.38    3.63
  12  16   4    5.54    4.59
 -12 -16  -4    6.12    4.30
  12  16   3    3.92    4.01
 -12 -16  -3    2.87    3.73
  12  16   2    2.29    3.82
 -12 -16  -2   -0.57    3.73
  12  16   1   91.29    5.45
 -12 -16  -1   95.88    5.93
  12  16   0    3.54    3.73
 -12 -16   0    1.43    3.35
  12  16  -1  220.05    8.89
 -12 -16   1  219.10    8.89
  12  16  -2   59.27    4.68
 -12 -16   2   54.68    4.68
  12  16  -3  121.69    6.31
 -12 -16   3  122.07    6.12
  12  16  -4   10.42    4.01
 -12 -16   4   13.48    3.73
  12  16  -5   46.27    4.40
 -12 -16   5   48.37    4.49
  12  16  -6    2.58    3.82
 -12 -16   6    2.39    3.44
  12  16  -7  302.93   11.18
 -12 -16   7  306.85   11.18
  12  16  -8   24.38    3.63
 -12 -16   8   30.49    3.82
  12  16  -9  226.65    8.99
 -12 -16   9  198.55    8.13
  12  16 -10   13.96    3.73
 -12 -16  10   15.29    3.73
  12  16 -11   35.85    4.11
 -12 -16  11   38.91    4.01
  12  16 -12   13.19    3.54
 -12 -16  12   15.20    3.63
  12  16 -13  142.91    6.69
 -12 -16  13  139.76    6.40
  12  16 -14   25.24    4.01
 -12 -16  14   31.16    3.82
  12  16 -15   69.40    4.68
 -12 -16  15   78.77    4.78
  11  17   4    3.35    4.59
 -11 -17  -4    2.20    4.40
  11  17   3   81.45    5.64
 -11 -17  -3   94.73    5.74
  11  17   2   58.98    4.68
 -11 -17  -2   65.67    4.88
  11  17   1    0.96    3.92
 -11 -17  -1    3.44    3.54
  11  17   0   54.58    4.88
 -11 -17   0   57.26    4.78
  11  17  -1   -5.26    3.63
 -11 -17   1    3.92    3.73
  11  17  -2   23.04    4.11
 -11 -17   2   19.60    3.73
  11  17  -3  322.34   11.66
 -11 -17   3  351.02   12.71
  11  17  -4    1.15    3.54
 -11 -17   4   -5.54    3.63
  11  17  -5  183.54    7.74
 -11 -17   5  168.24    7.46
  11  17  -6   62.23    4.88
 -11 -17   6   72.65    4.97
  11  17  -7   31.26    4.21
 -11 -17   7   35.18    4.01
  11  17  -8   76.47    5.07
 -11 -17   8   72.55    5.16
  11  17  -9  110.79    5.93
 -11 -17   9  101.62    5.45
  11  17 -10    3.54    3.44
 -11 -17  10   11.85    3.73
  11  17 -11   76.09    5.07
 -11 -17  11   62.52    4.78
  11  17 -12   76.67    4.78
 -11 -17  12   82.40    5.07
  11  17 -13    9.18    3.44
 -11 -17  13   12.71    3.25
  11  17 -14   66.05    4.68
 -11 -17  14   70.26    4.68
  10  18   3    3.06    4.49
 -10 -18  -3    4.97    3.92
  10  18   2    7.84    3.92
 -10 -18  -2   -0.57    3.82
  10  18   1   19.88    4.11
 -10 -18  -1   26.57    4.11
  10  18   0    3.82    3.92
 -10 -18   0    9.37    3.82
  10  18  -1    0.96    3.82
 -10 -18   1    7.84    3.82
  10  18  -2  188.22    8.22
 -10 -18   2  208.49    8.41
  10  18  -3   33.27    4.21
 -10 -18   3   37.28    4.49
  10  18  -4  193.86    8.13
 -10 -18   4  157.63    7.17
  10  18  -5   65.00    5.07
 -10 -18   5   54.58    4.68
  10  18  -6    4.30    3.73
 -10 -18   6    4.40    3.44
  10  18  -7   -2.01    3.25
 -10 -18   7    0.57    3.15
  10  18  -8   65.67    4.88
 -10 -18   8   57.16    4.40
  10  18  -9   22.08    4.11
 -10 -18   9   26.38    3.92
  10  18 -10   83.83    5.26
 -10 -18  10   77.62    4.88
  10  18 -11    0.76    3.44
 -10 -18  11    2.10    3.06
  10  18 -12   70.17    4.68
 -10 -18  12   80.68    4.88
  10  18 -13   22.27    3.82
 -10 -18  13   22.37    3.54
   9  19   3   17.30    4.78
  -9 -19  -3   13.29    4.49
   9  19   2   76.09    5.16
  -9 -19  -2   79.63    5.35
   9  19   1   -1.34    3.54
  -9 -19  -1   -5.26    3.92
   9  19   0   34.32    4.59
  -9 -19   0   35.85    4.30
   9  19  -1    2.01    3.63
  -9 -19   1    4.78    3.73
   9  19  -2   13.77    3.92
  -9 -19   2   13.19    3.63
   9  19  -3    8.70    3.63
  -9 -19   3    6.69    3.63
   9  19  -4   90.62    5.64
  -9 -19   4   95.98    5.64
   9  19  -5   32.69    4.21
  -9 -19   5   33.74    4.21
   9  19  -6  128.29    6.21
  -9 -19   6  114.33    6.02
   9  19  -7   -1.91    3.44
  -9 -19   7   -3.35    3.44
   9  19  -8   24.47    3.92
  -9 -19   8   24.09    3.82
   9  19  -9   15.10    3.63
  -9 -19   9    6.31    3.35
   9  19 -10   32.60    4.01
  -9 -19  10   24.66    3.92
   9  19 -11   23.52    3.63
  -9 -19  11   22.75    3.82
   8  20   2    0.00    4.49
   8  20   1  208.20    8.51
  -8 -20  -1  207.53    8.60
   8  20   0   31.93    4.40
  -8 -20   0   29.63    4.11
   8  20  -1   29.63    4.30
  -8 -20   1   37.19    4.21
   8  20  -2    0.48    3.63
  -8 -20   2    0.96    3.54
   8  20  -3   13.19    4.01
  -8 -20   3   24.76    4.01
   8  20  -4    1.91    3.82
  -8 -20   4    2.49    3.54
   8  20  -5  259.53    9.75
  -8 -20   5  262.12    9.94
   8  20  -6   -1.53    3.44
  -8 -20   6    4.49    3.63
   8  20  -7  104.00    5.54
  -8 -20   7  102.19    5.45
   8  20  -8   28.30    3.73
  -8 -20   8   30.40    4.11
   8  20  -9   -2.29    3.25
  -8 -20   9   -1.72    3.63
   7  21  -1   74.47    5.16
  -7 -21   1   80.58    5.35
   7  21  -2    8.22    3.82
  -7 -21   2    0.00    3.92
   7  21  -3   28.39    4.11
  -7 -21   3   31.55    4.11
   7  21  -4   85.84    5.07
  -7 -21   4   89.95    5.35
   7  21  -5   14.43    3.73
  -7 -21   5    8.51    3.44
   7  21  -6    5.45    3.54
  -7 -21   6   -0.96    3.82
  23   7  -7  153.24    7.07
  23   7  -7  148.84    7.27
  23   7  -8   16.35    4.11
  23   7  -8   14.15    4.59
  23   7  -9   43.49    4.21
  23   7  -9   36.33    4.59
  23   7 -10   20.27    3.92
  23   7 -10   18.35    4.01
  23   7 -11    5.74    3.44
  23   7 -11    4.49    3.44
  23   7 -12    0.76    3.73
  23   7 -12   -0.48    3.63
  23   7 -13   60.99    4.88
  23   7 -13   71.98    4.97
  23   7 -14   17.11    3.54
  23   7 -14   12.43    4.01
  23   7 -15   66.15    4.40
  23   7 -15   73.32    5.16
  22   8  -5    6.88    4.01
  22   8  -5    2.10    4.40
  22   8  -6  133.16    6.50
  22   8  -6  120.26    6.60
  22   8  -7    0.19    4.01
  22   8  -7   -2.01    3.63
  22   8  -8   16.63    4.21
  22   8  -8   12.52    3.92
  22   8  -9   47.89    4.40
  22   8  -9   52.10    4.49
  22   8 -10    5.83    3.44
  22   8 -10    2.29    3.63
  22   8 -11  100.18    5.45
  22   8 -11   97.98    5.64
  22   8 -12   54.77    4.59
  22   8 -12   64.43    4.68
  22   8 -13   36.33    4.21
  22   8 -13   36.99    4.01
  22   8 -14   21.41    3.44
  22   8 -14   20.55    4.01
  22   8 -15   24.47    3.82
  22   8 -15   26.38    3.82
  22   8 -16   18.83    3.63
  22   8 -16   31.64    4.21
  21   9  -3   30.11    5.26
  21   9  -3   26.57    4.78
  21   9  -4  130.20    6.69
  21   9  -4  123.98    6.50
  21   9  -5    1.34    4.11
  21   9  -5   10.42    4.21
  21   9  -6    6.40    3.63
  21   9  -6    7.74    4.01
  21   9  -7   11.95    4.11
  21   9  -7   20.84    4.30
  21   9  -8   47.80    4.59
  21   9  -8   46.55    4.68
  21   9  -9   -4.30    3.44
  21   9  -9    1.53    3.73
  21   9 -10  205.24    8.41
  21   9 -10  221.39    8.79
  21   9 -11    4.30    3.44
  21   9 -11   -0.57    3.44
  21   9 -12  115.28    5.83
  21   9 -12  106.49    5.93
  21   9 -13   53.82    4.49
  21   9 -13   51.62    4.49
  21   9 -14   -5.74    3.06
  21   9 -14    4.40    3.54
  21   9 -15    3.73    3.25
  21   9 -15   -0.38    3.35
  21   9 -16  120.73    6.02
  21   9 -16  130.29    6.50
  21   9 -17   11.76    3.63
  21   9 -17    7.17    3.73
  20  10  -2    1.53    4.68
  20  10  -2   -6.50    4.40
  20  10  -3   42.25    4.97
  20  10  -3   42.92    4.59
  20  10  -4   33.08    4.40
  20  10  -4   35.46    4.59
  20  10  -5    7.74    3.73
  20  10  -5    6.21    4.01
  20  10  -6  189.27    8.03
  20  10  -6  191.76    8.22
  20  10  -7    5.35    4.01
  20  10  -7   16.06    3.82
  20  10  -8   26.10    4.21
  20  10  -8   13.86    3.82
  20  10  -9  131.44    6.79
  20  10  -9  131.92    6.21
  20  10 -10    2.39    3.35
  20  10 -10    4.78    3.82
  20  10 -11   91.10    5.54
  20  10 -11  103.53    5.64
  20  10 -12  105.63    5.74
  20  10 -12  104.96    5.64
  20  10 -13   22.66    3.92
  20  10 -13   20.46    3.35
  20  10 -14  177.99    7.65
  20  10 -15   75.61    5.07
 -20 -10  15   86.51    4.68
  20  10 -16   17.88    3.82
 -20 -10  16   16.06    2.77
  20  10 -17  119.01    6.21
 -20 -10  17  120.06    5.74
  19  11  -1   32.98    4.88
  19  11  -1   37.76    5.16
  19  11  -2   11.66    3.82
  19  11  -2   13.96    4.78
  19  11  -3   73.32    5.54
  19  11  -3   91.00    5.54
  19  11  -4   12.04    3.73
  19  11  -4   13.86    4.01
  19  11  -5   87.18    5.35
  19  11  -5   94.35    5.45
  19  11  -6   -0.48    3.35
  19  11  -6    2.10    3.73
  19  11  -7  110.31    6.12
  19  11  -7  128.09    6.40
  19  11  -8    8.41    3.92
  19  11  -8    2.58    3.44
  19  11  -9    0.57    3.44
 -19 -11   9    7.46    3.54
  19  11 -10   11.47    3.63
 -19 -11  10    9.27    3.44
  19  11 -11   82.50    5.16
 -19 -11  11   89.86    5.16
  19  11 -12   -1.91    3.54
 -19 -11  12    2.49    3.82
  19  11 -13  292.51   10.80
 -19 -11  13  258.29    9.75
  19  11 -14   -7.36    3.35
 -19 -11  14   -3.54    3.35
  19  11 -15   38.72    4.11
 -19 -11  15   38.91    3.92
  19  11 -16   -6.12    3.44
 -19 -11  16    0.57    3.35
  19  11 -17   11.66    3.54
 -19 -11  17    7.93    3.35
  18  12   0   35.27    5.35
  18  12   0   16.54    5.26
  18  12  -1   15.20    4.97
  18  12  -1   18.16    4.40
  18  12  -2    2.20    3.92
  18  12  -2    4.11    4.30
  18  12  -3   54.58    5.07
  18  12  -3   62.71    4.88
  18  12  -4   35.08    4.30
  18  12  -4   36.80    4.11
  18  12  -5   24.76    3.92
  18  12  -5   29.73    4.49
  18  12  -6   41.39    4.97
 -18 -12   6   42.63    4.30
  18  12  -7   82.50    5.35
 -18 -12   7   80.97    5.16
  18  12  -8   24.95    4.30
 -18 -12   8   28.96    4.30
  18  12  -9  225.98    8.99
 -18 -12   9  208.68    8.51
  18  12 -10    9.37    3.63
 -18 -12  10    9.46    3.73
  18  12 -11   49.04    4.49
 -18 -12  11   49.71    4.30
  18  12 -12   54.77    4.88
 -18 -12  12   82.50    5.26
  18  12 -13   10.80    3.82
 -18 -12  13   13.67    3.54
  18  12 -14   21.13    4.11
 -18 -12  14   15.87    3.73
  18  12 -15  179.24    7.46
 -18 -12  15  165.18    7.17
  18  12 -16   15.77    3.63
 -18 -12  16   11.18    3.44
  18  12 -17  197.21    7.93
 -18 -12  17  198.83    7.46
  17  13   0   56.78    5.26
  17  13   0   54.30    5.35
  17  13  -1    1.15    4.01
  17  13  -1   -4.78    3.73
  17  13  -2   98.27    5.74
  17  13  -2   97.70    5.83
  17  13  -3    9.08    3.63
  17  13  -3    5.45    4.01
  17  13  -4   92.34    5.54
 -17 -13   4   85.65    5.16
  17  13  -5    8.03    4.01
 -17 -13   5    2.29    3.54
  17  13  -6   49.61    4.78
 -17 -13   6   49.42    4.78
  17  13  -7   -1.15    3.35
 -17 -13   7    2.29    3.35
  17  13  -8  164.13    7.46
 -17 -13   8  170.06    7.46
  17  13  -9   21.22    3.63
 -17 -13   9   23.23    3.82
  17  13 -10   57.36    4.49
 -17 -13  10   56.02    4.40
  17  13 -11   67.97    4.78
 -17 -13  11   66.72    4.68
  17  13 -12   18.26    3.73
 -17 -13  12   19.31    3.82
  17  13 -13    7.27    3.63
 -17 -13  13    2.87    3.25
  17  13 -14  106.97    5.64
 -17 -13  14  106.59    5.64
  17  13 -15   24.47    3.63
 -17 -13  15   19.88    3.63
  17  13 -16  152.66    6.69
 -17 -13  16  164.32    7.07
  16  14   1    8.41    4.49
  16  14   1   14.72    4.97
  16  14   0   20.55    4.30
  16  14   0   13.77    4.68
  16  14  -1   14.63    3.92
  16  14  -1   20.27    3.92
  16  14  -2   29.25    4.49
 -16 -14   2   32.31    4.21
  16  14  -3   28.39    4.49
 -16 -14   3   20.07    4.11
  16  14  -4  129.91    6.50
 -16 -14   4  129.81    6.40
  16  14  -5   27.44    4.21
 -16 -14   5   17.68    3.92
  16  14  -6  123.31    6.50
 -16 -14   6  125.70    6.21
  16  14  -7   79.25    5.16
 -16 -14   7   74.08    5.07
  16  14  -8    3.35    3.73
 -16 -14   8    4.40    3.54
  16  14  -9   -1.91    3.15
 -16 -14   9   -2.01    3.25
  16  14 -10  159.83    6.98
 -16 -14  10  176.46    7.55
  16  14 -11    7.46    3.35
 -16 -14  11    7.17    3.63
  16  14 -12   90.34    5.45
 -16 -14  12   90.53    5.45
  16  14 -13    9.56    3.54
 -16 -14  13    4.59    3.73
  16  14 -14    7.74    3.35
 -16 -14  14    1.53    3.44
  16  14 -15   34.99    3.92
 -16 -14  15   40.24    4.11
  16  14 -16   38.62    4.01
 -16 -14  16   40.24    4.11
  15  15   1   91.29    6.12
  15  15   1   93.78    6.02
  15  15   0   19.98    4.21
 -15 -15   0   32.88    4.21
  15  15  -1   10.23    4.11
 -15 -15   1    4.30    3.92
  15  15  -2   34.60    4.59
 -15 -15   2   42.83    4.59
  15  15  -3  140.52    6.88
 -15 -15   3  158.49    7.27
  15  15  -4   29.92    4.01
 -15 -15   4   23.71    4.11
  15  15  -5  318.71   11.76
 -15 -15   5  300.26   10.99
  15  15  -6   33.74    4.01
 -15 -15   6   34.80    4.01
  15  15  -7    6.12    3.54
 -15 -15   7    8.99    3.54
  15  15  -8  115.57    6.02
 -15 -15   8  127.90    6.31
  15  15  -9   38.33    4.21
 -15 -15   9   23.80    4.21
  15  15 -10    3.63    3.54
 -15 -15  10   -0.57    3.54
  15  15 -11  141.86    6.69
 -15 -15  11  161.55    7.27
  15  15 -12    7.84    3.82
 -15 -15  12    4.11    3.44
  15  15 -13   13.00    3.54
 -15 -15  13    5.45    3.35
  15  15 -14   20.07    3.82
 -15 -15  14   22.56    3.63
  15  15 -15   18.35    3.63
 -15 -15  15   12.52    3.54
  14  16   1   60.13    5.45
 -14 -16  -1   60.70    5.07
  14  16   0   12.14    3.92
 -14 -16   0   12.62    3.92
  14  16  -1  129.53    6.60
 -14 -16   1  125.70    6.50
  14  16  -2    1.24    4.11
 -14 -16   2    2.10    3.82
  14  16  -3   63.09    5.16
 -14 -16   3   61.47    4.78
  14  16  -4   22.37    4.01
 -14 -16   4   18.26    3.82
  14  16  -5  152.47    7.07
 -14 -16   5  156.20    7.07
  14  16  -6   63.47    4.88
 -14 -16   6   62.04    4.88
  14  16  -7  131.73    6.60
 -14 -16   7  137.08    6.79
  14  16  -8   18.64    3.92
 -14 -16   8   17.11    3.73
  14  16  -9   62.90    4.78
 -14 -16   9   67.30    4.78
  14  16 -10   25.62    3.63
 -14 -16  10   36.04    3.92
  14  16 -11    1.91    3.25
 -14 -16  11   -0.48    3.63
  14  16 -12    5.83    3.54
 -14 -16  12    2.58    3.44
  14  16 -13   70.45    4.97
 -14 -16  13   58.31    4.30
  14  16 -14    8.70    3.44
 -14 -16  14    2.58    3.15
  13  17   1   16.63    4.49
 -13 -17  -1   14.53    4.11
  13  17   0   11.28    4.21
 -13 -17   0    3.25    3.82
  13  17  -1    4.88    3.73
 -13 -17   1    9.85    4.01
  13  17  -2   48.66    4.88
 -13 -17   2   50.19    4.49
  13  17  -3   33.08    4.49
 -13 -17   3   40.44    4.59
  13  17  -4   10.13    3.92
 -13 -17   4   11.85    3.35
  13  17  -5   44.07    4.40
 -13 -17   5   50.57    4.49
  13  17  -6    3.73    3.73
 -13 -17   6    4.97    3.54
  13  17  -7    0.38    3.63
 -13 -17   7   -0.19    3.63
  13  17  -8  147.98    6.88
 -13 -17   8  136.89    6.50
  13  17  -9   28.20    4.01
 -13 -17   9   19.21    3.92
  13  17 -10   -3.15    3.44
 -13 -17  10   -5.93    3.35
  13  17 -11  117.29    5.93
 -13 -17  11  119.40    5.93
  13  17 -12    9.65    3.63
 -13 -17  12    6.02    3.44
  13  17 -13    8.79    3.25
 -13 -17  13    2.68    3.63
  12  18   1    0.96    4.40
  12  18   0    7.55    3.82
 -12 -18   0    4.01    4.11
  12  18  -1    2.39    4.11
 -12 -18   1    0.19    4.01
  12  18  -2   60.41    5.07
 -12 -18   2   45.69    4.59
  12  18  -3   -3.35    3.82
 -12 -18   3   -4.01    3.54
  12  18  -4   93.87    5.64
 -12 -18   4   98.36    5.45
  12  18  -5   46.17    4.40
 -12 -18   5   43.40    4.30
  12  18  -6   36.80    4.11
 -12 -18   6   41.68    4.49
  12  18  -7   47.32    4.40
 -12 -18   7   47.80    4.40
  12  18  -8   56.21    4.68
 -12 -18   8   57.45    4.68
  12  18  -9   45.31    4.40
 -12 -18   9   47.51    4.11
  12  18 -10  149.22    6.69
 -12 -18  10  136.22    6.40
  12  18 -11   -3.06    3.44
 -12 -18  11    1.34    3.15
  12  18 -12   29.63    3.92
 -12 -18  12   22.18    3.35
  11  19   0   91.10    5.74
  11  19  -1    6.88    4.11
 -11 -19   1    7.27    4.11
  11  19  -2   63.19    5.16
 -11 -19   2   65.77    4.97
  11  19  -3    2.87    4.11
 -11 -19   3    1.91    3.92
  11  19  -4   -0.38    3.63
 -11 -19   4    1.72    3.63
  11  19  -5   75.04    5.07
 -11 -19   5   80.01    5.16
  11  19  -6   39.10    4.11
 -11 -19   6   34.89    3.92
  11  19  -7   89.09    5.35
 -11 -19   7   98.84    5.35
  11  19  -8  137.18    6.50
 -11 -19   8  147.69    6.50
  11  19  -9   62.52    4.49
 -11 -19   9   62.42    4.40
  11  19 -10    7.36    3.54
 -11 -19  10    7.36    3.44
  10  20  -2    4.59    4.01
 -10 -20   2    2.68    4.68
  10  20  -3    2.96    4.11
 -10 -20   3    8.13    3.73
  10  20  -4   27.91    4.11
 -10 -20   4   28.68    4.21
  10  20  -5  122.36    6.12
 -10 -20   5   99.32    5.45
  10  20  -6   11.47    3.63
 -10 -20   6   12.24    3.82
  10  20  -7   59.27    4.59
 -10 -20   7   69.97    4.88
  22  10  -8  124.37    6.69
  22  10  -8  110.98    6.50
  22  10  -9   26.77    4.01
  22  10  -9   19.31    4.49
  22  10 -10   10.61    3.73
  22  10 -10   14.82    4.21
  22  10 -11   32.21    4.30
  22  10 -11   42.44    4.68
  22  10 -12    2.20    3.92
  22  10 -12   12.24    4.30
  22  10 -13    7.27    4.01
  21  11  -6   -0.48    3.73
  21  11  -6   -2.20    4.49
  21  11  -7  143.68    6.60
  21  11  -7  137.37    6.98
  21  11  -8    9.18    3.92
  21  11  -8   -0.38    3.92
  21  11  -9   21.60    3.73
  21  11  -9   15.29    3.92
  21  11 -10   23.99    3.92
  21  11 -10   14.53    3.73
  21  11 -11   12.81    3.54
  21  11 -11   12.62    3.82
  21  11 -12   38.72    4.11
  21  11 -12   41.30    4.30
  21  11 -13   72.27    4.88
  21  11 -13   60.80    4.78
  21  11 -14   10.90    3.54
  21  11 -14    8.89    3.92
  20  12  -5    3.63    4.40
  20  12  -5    1.82    3.92
  20  12  -6   -3.92    3.82
  20  12  -6   -2.20    4.49
  20  12  -7    5.26    3.73
  20  12  -7    4.49    3.92
  20  12  -8   20.55    4.01
  20  12  -8   16.35    3.92
  20  12  -9  109.36    5.64
  20  12  -9  112.80    6.12
  20  12 -10   11.47    3.82
 -20 -12  10   12.43    3.25
  20  12 -11  165.38    7.46
 -20 -12  11  145.11    6.60
  20  12 -12   16.63    4.01
 -20 -12  12   11.47    3.44
  20  12 -13   -0.76    3.73
 -20 -12  13   -1.53    3.44
  20  12 -14   39.58    4.21
 -20 -12  14   44.36    4.30
  19  13  -4    3.25    4.30
  19  13  -4    5.74    3.82
  19  13  -5   23.90    4.30
  19  13  -5   26.67    4.49
  19  13  -6    5.45    3.82
  19  13  -6   11.09    4.01
  19  13  -7    5.74    3.82
 -19 -13   7    6.79    3.44
  19  13  -8  116.53    6.50
 -19 -13   8  120.73    6.12
  19  13  -9    1.53    3.44
 -19 -13   9    0.67    3.25
  19  13 -10  154.48    6.88
 -19 -13  10  150.37    6.69
  19  13 -11  127.43    6.21
 -19 -13  11  131.92    6.12
  19  13 -12   57.83    4.49
 -19 -13  12   51.52    4.21
  19  13 -13   25.81    3.92
 -19 -13  13   25.14    3.54
  19  13 -14   42.92    4.30
 -19 -13  14   40.72    4.30
  18  14  -3    4.01    4.21
  18  14  -3    5.07    4.59
  18  14  -4   42.16    4.40
  18  14  -4   38.91    4.88
  18  14  -5    6.50    3.92
 -18 -14   5    1.53    3.44
  18  14  -6  158.68    7.27
 -18 -14   6  157.25    7.07
  18  14  -7   34.60    4.49
 -18 -14   7   22.94    4.01
  18  14  -8   41.97    4.49
 -18 -14   8   34.32    4.01
  18  14  -9   -1.05    3.63
 -18 -14   9    0.86    3.35
  18  14 -10  101.90    5.54
 -18 -14  10  111.65    5.83
  18  14 -11   25.81    4.11
 -18 -14  11   34.89    3.82
  18  14 -12  215.47    8.32
 -18 -14  12  216.14    8.32
  18  14 -13    6.40    3.25
 -18 -14  13    1.43    3.35
  18  14 -14    8.89    3.73
 -18 -14  14    6.60    3.63
  17  15  -3   29.63    4.11
 -17 -15   3   26.67    4.30
  17  15  -4   33.65    4.59
 -17 -15   4   28.20    4.21
  17  15  -5  224.55    8.99
 -17 -15   5  225.12    8.99
  17  15  -6    5.07    3.92
 -17 -15   6    5.07    3.63
  17  15  -7   14.91    3.92
 -17 -15   7    7.07    3.54
  17  15  -8  155.24    6.88
 -17 -15   8  146.07    6.69
  17  15  -9    2.20    3.82
 -17 -15   9    3.15    3.35
  17  15 -10   27.91    4.11
 -17 -15  10   25.14    3.82
  17  15 -11  209.83    8.32
 -17 -15  11  211.45    8.32
  17  15 -12    2.58    3.63
 -17 -15  12    5.26    3.44
  17  15 -13   56.40    4.49
 -17 -15  13   52.10    4.49
  16  16  -3   86.80    5.35
 -16 -16   3   76.47    5.35
  16  16  -4   -2.20    3.73
 -16 -16   4    7.17    3.63
  16  16  -5    5.74    4.11
 -16 -16   5   -0.86    3.54
  16  16  -6    5.26    4.01
 -16 -16   6    1.91    3.44
  16  16  -7  174.74    7.74
 -16 -16   7  180.19    7.65
  16  16  -8   53.82    4.49
 -16 -16   8   62.71    4.68
  16  16  -9   89.47    5.45
 -16 -16   9   77.72    4.88
  16  16 -10   22.75    3.92
 -16 -16  10   21.99    3.92
  16  16 -11    0.19    3.35
 -16 -16  11   -0.10    3.63
  16  16 -12    0.96    3.63
 -16 -16  12   -6.02    3.06
  15  17  -3  103.14    6.21
 -15 -17   3  105.25    6.21
  15  17  -4   -0.48    4.11
 -15 -17   4   -0.96    3.73
  15  17  -5   65.58    5.16
 -15 -17   5   70.83    4.97
  15  17  -6    1.91    3.82
 -15 -17   6    1.63    3.44
  15  17  -7   11.38    3.73
 -15 -17   7    9.27    3.44
  15  17  -8   60.03    4.78
 -15 -17   8   63.19    4.49
  15  17  -9   -0.96    3.35
 -15 -17   9    9.18    3.73
  15  17 -10    8.70    3.54
 -15 -17  10    7.46    3.54
  15  17 -11   57.36    4.59
 -15 -17  11   48.08    4.40
  14  18  -4  111.46    6.40
 -14 -18   4  101.14    6.02
  14  18  -5    8.13    3.82
 -14 -18   5    0.29    3.63
  14  18  -6  120.06    6.12
 -14 -18   6  117.01    5.93
  14  18  -7   13.19    3.82
 -14 -18   7   12.52    3.63
  14  18  -8    0.76    3.54
 -14 -18   8   -3.06    3.82
  14  18  -9   -4.59    3.15
 -14 -18   9   -0.38    3.44
   0   0   0    0.00    0.00
 
_computing_structure_solution     'SHELXT 2018/2 (Sheldrick, 2018)'
;
_shelx_hkl_checksum              98086
loop_
_space_group_symop_operation_xyz
'x, y, z'
'-x, y, -z+1/2'
'x+1/2, y+1/2, z'
'-x+1/2, y+1/2, -z+1/2'
'-x, -y, -z'
'x, -y, z-1/2'
'-x+1/2, -y+1/2, -z'
'x+1/2, -y+1/2, z-1/2'
loop_
_atom_site_label
_atom_site_type_symbol
_atom_site_fract_x
_atom_site_fract_y
_atom_site_fract_z
_atom_site_U_iso_or_equiv
_atom_site_adp_type
_atom_site_occupancy
_atom_site_site_symmetry_order
_atom_site_calc_flag
_atom_site_refinement_flags_posn
_atom_site_refinement_flags_adp
_atom_site_refinement_flags_occupancy
_atom_site_disorder_assembly
_atom_site_disorder_group
Zn1 Zn 0.77081(2) 0.88949(2) 0.57052(2) 0.02218(11) Uani 1 1 d . . . . .
Li1 Li 0.9278(2) 0.9110(2) 0.7487(3) 0.0263(8) Uani 1 1 d . . . . .
N1 N 0.67100(12) 0.87823(12) 0.45358(13) 0.0259(4) Uani 1 1 d . . . . .
C11 C 0.62525(14) 0.81366(14) 0.42523(15) 0.0269(5) Uani 1 1 d . . . . .
H11 H 0.640036 0.768945 0.460994 0.032 Uiso 1 1 calc R U . . .
C12 C 0.55739(14) 0.80967(14) 0.34593(15) 0.0275(5) Uani 1 1 d . . . . .
H12 H 0.525818 0.763288 0.328030 0.033 Uiso 1 1 calc R U . . .
C13 C 0.53604(15) 0.87456(14) 0.29277(15) 0.0283(5) Uani 1 1 d . . . . .
C14 C 0.58374(17) 0.94107(16) 0.32220(17) 0.0372(6) Uani 1 1 d . . . . .
H14 H 0.570838 0.986397 0.287507 0.045 Uiso 1 1 calc R U . . .
C15 C 0.65009(16) 0.94069(15) 0.40237(17) 0.0357(6) Uani 1 1 d . . . . .
H15 H 0.682277 0.986596 0.422072 0.043 Uiso 1 1 calc R U . . .
O11 O 0.76497(10) 0.79751(10) 0.62791(11) 0.0297(4) Uani 1 1 d . . . . .
O12 O 0.88308(11) 0.81262(10) 0.74742(12) 0.0322(4) Uani 1 1 d . . . . .
O13 O 0.75624(13) 0.49158(11) 0.90306(12) 0.0402(5) Uani 1 1 d . . . . .
O14 O 0.64957(13) 0.48589(13) 0.77528(13) 0.0465(5) Uani 1 1 d . . . . .
C101 C 0.81642(15) 0.78051(13) 0.70494(15) 0.0268(5) Uani 1 1 d . . . . .
C102 C 0.79139(15) 0.71550(14) 0.74203(16) 0.0283(5) Uani 1 1 d . . . . .
C103 C 0.74930(16) 0.65446(15) 0.69015(16) 0.0322(5) Uani 1 1 d . . . . .
H103 H 0.736817 0.654833 0.632746 0.039 Uiso 1 1 calc R U . . .
C104 C 0.72429(17) 0.59121(16) 0.72068(17) 0.0335(5) Uani 1 1 d . . . . .
H104 H 0.695671 0.549026 0.683817 0.040 Uiso 1 1 calc R U . . .
C105 C 0.74066(16) 0.58948(15) 0.80318(16) 0.0306(5) Uani 1 1 d . . . . .
C106 C 0.71222(16) 0.51784(14) 0.82884(16) 0.0316(5) Uani 1 1 d . . . . .
C107 C 0.78157(16) 0.65310(15) 0.85861(16) 0.0321(5) Uani 1 1 d . . . . .
C108 C 0.80822(16) 0.71731(15) 0.82807(16) 0.0316(5) Uani 1 1 d . . . . .
C109 C 0.8461(2) 0.78190(17) 0.88241(19) 0.0440(7) Uani 1 1 d . . . . .
H109 H 0.864294 0.824610 0.862983 0.053 Uiso 1 1 calc R U . . .
C110 C 0.8568(2) 0.7838(2) 0.9622(2) 0.0545(9) Uani 1 1 d . . . . .
H110 H 0.881454 0.828227 0.997185 0.065 Uiso 1 1 calc R U . . .
C111 C 0.8318(2) 0.7206(2) 0.9932(2) 0.0520(8) Uani 1 1 d . . . . .
H111 H 0.840768 0.721855 1.049387 0.062 Uiso 1 1 calc R U . . .
C112 C 0.7946(2) 0.65741(18) 0.94233(18) 0.0422(7) Uani 1 1 d . . . . .
H112 H 0.777118 0.615469 0.963450 0.051 Uiso 1 1 calc R U . . .
O21 O 0.85143(11) 0.90266(11) 0.53548(11) 0.0301(4) Uani 1 1 d . . . . .
O22 O 0.96031(10) 0.91777(10) 0.66230(10) 0.0272(3) Uani 1 1 d . . . . .
C201 C 0.92346(14) 0.92418(15) 0.58369(15) 0.0259(5) Uani 1 1 d . . . . .
C202 C 0.96461(15) 0.96194(19) 0.54132(15) 0.0356(6) Uani 1 1 d . . . . .
C203 C 0.99971(16) 1.0361(2) 0.56962(17) 0.0441(7) Uani 1 1 d . . . . .
C204 C 1.03568(17) 1.0750(2) 0.52765(18) 0.0472(8) Uani 1 1 d . . . . .
C205 C 1.0621(3) 1.1632(3) 0.5539(3) 0.0302(10) Uani 0.5 1 d . . P A 1
H205 H 1.080792 1.192110 0.522571 0.036 Uiso 0.5 1 calc R U P A 1
C206 C 1.0597(3) 1.1998(3) 0.6187(4) 0.0365(11) Uani 0.5 1 d . . P A 1
H206 H 1.080658 1.251281 0.634791 0.044 Uiso 0.5 1 calc R U P A 1
C207 C 1.0261(4) 1.1614(3) 0.6619(4) 0.0367(11) Uani 0.5 1 d . . P A 1
H207 H 1.024954 1.186905 0.707635 0.044 Uiso 0.5 1 calc R U P A 1
C208 C 0.9946(3) 1.0869(3) 0.6383(3) 0.0307(10) Uani 0.5 1 d . . P A 1
H208 H 0.968121 1.064860 0.665587 0.037 Uiso 0.5 1 calc R U P A 1
C11A C 0.6034(5) 0.9185(6) 0.6617(6) 0.029(2) Uani 0.25 1 d D U P B -1
H11A H 0.615732 0.944129 0.623361 0.035 Uiso 0.25 1 calc R U P B -1
C12A C 0.5247(6) 0.9060(6) 0.6401(7) 0.040(2) Uani 0.25 1 d D U P B -1
H12A H 0.482354 0.921288 0.585979 0.048 Uiso 0.25 1 calc R U P B -1
C13A C 0.5077(6) 0.8713(5) 0.6973(6) 0.0353(19) Uani 0.25 1 d D U P B -1
H13A H 0.453382 0.863224 0.682720 0.042 Uiso 0.25 1 calc R U P B -1
C14A C 0.5680(5) 0.8482(6) 0.7749(6) 0.0308(17) Uani 0.25 1 d D U P B -1
H14A H 0.555873 0.824230 0.814210 0.037 Uiso 0.25 1 calc R U P B -1
C15A C 0.6465(5) 0.8601(5) 0.7955(7) 0.0333(19) Uani 0.25 1 d D U P B -1
H15A H 0.688949 0.844745 0.849570 0.040 Uiso 0.25 1 calc R U P B -1
C16A C 0.6634(5) 0.8939(5) 0.7383(5) 0.0274(17) Uani 0.25 1 d D U P B -1
H16A H 0.717718 0.900360 0.752283 0.033 Uiso 0.25 1 calc R U P B -1
C21A C 0.3771(7) 1.0684(10) 0.3456(9) 0.034(4) Uani 0.125 1 d D U P C -2
H21A H 0.326499 1.073030 0.295218 0.040 Uiso 0.125 1 calc R U P C -2
C22A C 0.4166(8) 0.9985(9) 0.3664(9) 0.038(3) Uani 0.125 1 d D U P C -2
H22A H 0.393283 0.954260 0.330738 0.046 Uiso 0.125 1 calc R U P C -2
C23A C 0.4897(8) 0.9919(9) 0.4381(10) 0.044(3) Uani 0.125 1 d D U P C -2
H23A H 0.517056 0.943016 0.452640 0.052 Uiso 0.125 1 calc R U P C -2
C24A C 0.5232(8) 1.0556(10) 0.4888(9) 0.046(3) Uani 0.125 1 d D U P C -2
H24A H 0.574212 1.051314 0.538632 0.056 Uiso 0.125 1 calc R U P C -2
C25A C 0.4836(8) 1.1256(9) 0.4682(10) 0.044(3) Uani 0.125 1 d D U P C -2
H25A H 0.507178 1.170076 0.503339 0.053 Uiso 0.125 1 calc R U P C -2
C26A C 0.4100(8) 1.1317(8) 0.3970(10) 0.039(3) Uani 0.125 1 d D U P C -2
H26A H 0.381825 1.180111 0.383347 0.047 Uiso 0.125 1 calc R U P C -2
C31A C 0.5361(12) 0.6718(9) 0.7491(12) 0.027(3) Uani 0.125 1 d . U P D 3
H31A H 0.561575 0.623720 0.750217 0.032 Uiso 0.125 1 calc R U P D 3
C32A C 0.5706(14) 0.7439(11) 0.7457(13) 0.031(3) Uani 0.125 1 d . U P D 3
H32A H 0.617356 0.744484 0.740435 0.038 Uiso 0.125 1 calc R U P D 3
C33A C 0.5356(14) 0.8148(12) 0.7500(15) 0.033(3) Uani 0.125 1 d . U P D 3
H33A H 0.561490 0.863097 0.752950 0.039 Uiso 0.125 1 calc R U P D 3
C41A C 0.5093(10) 1.0787(13) 0.5120(11) 0.044(3) Uani 0.125 1 d D U P E 4
H41A H 0.515747 1.133834 0.520410 0.053 Uiso 0.125 1 calc R U P E 4
C42A C 0.4595(9) 1.0496(9) 0.4333(8) 0.049(3) Uani 0.125 1 d D U P E 4
H42A H 0.431348 1.084368 0.386852 0.059 Uiso 0.125 1 calc R U P E 4
C43A C 0.4501(12) 0.9706(10) 0.4210(14) 0.052(4) Uani 0.125 1 d D U P E 4
H43A H 0.415349 0.950047 0.366154 0.062 Uiso 0.125 1 calc R U P E 4
loop_
_atom_site_aniso_label
_atom_site_aniso_U_11
_atom_site_aniso_U_22
_atom_site_aniso_U_33
_atom_site_aniso_U_23
_atom_site_aniso_U_13
_atom_site_aniso_U_12
Zn1 0.02147(16) 0.02379(16) 0.01984(16) -0.00011(9) 0.00924(12) -0.00007(9)
Li1 0.0251(19) 0.0297(19) 0.023(2) -0.0006(16) 0.0114(17) -0.0005(16)
N1 0.0236(9) 0.0274(9) 0.0221(10) -0.0014(7) 0.0079(8) -0.0033(7)
C11 0.0271(11) 0.0250(11) 0.0261(12) 0.0004(9) 0.0116(10) -0.0006(9)
C12 0.0251(11) 0.0270(11) 0.0258(12) -0.0007(9) 0.0093(10) -0.0022(9)
C13 0.0255(11) 0.0287(11) 0.0235(12) 0.0001(9) 0.0068(11) 0.0015(9)
C14 0.0355(14) 0.0288(12) 0.0313(14) 0.0065(10) 0.0047(12) -0.0031(10)
C15 0.0322(13) 0.0294(12) 0.0311(14) 0.0044(10) 0.0049(11) -0.0051(10)
O11 0.0302(9) 0.0312(8) 0.0260(9) 0.0045(7) 0.0127(7) -0.0014(7)
O12 0.0307(9) 0.0306(9) 0.0352(10) 0.0030(7) 0.0164(8) -0.0046(7)
O13 0.0490(11) 0.0343(10) 0.0307(10) 0.0064(8) 0.0149(9) -0.0097(8)
O14 0.0435(11) 0.0441(11) 0.0387(11) 0.0070(9) 0.0106(10) -0.0190(9)
C101 0.0299(11) 0.0243(10) 0.0286(12) 0.0018(9) 0.0166(10) -0.0015(9)
C102 0.0296(12) 0.0275(11) 0.0266(12) 0.0041(9) 0.0132(10) -0.0024(9)
C103 0.0376(13) 0.0319(12) 0.0241(12) 0.0013(10) 0.0132(11) -0.0058(10)
C104 0.0377(14) 0.0308(12) 0.0285(13) -0.0018(10) 0.0139(11) -0.0114(10)
C105 0.0335(13) 0.0289(11) 0.0277(13) 0.0022(10) 0.0140(11) -0.0057(10)
C106 0.0375(13) 0.0278(12) 0.0298(13) 0.0013(10) 0.0170(11) -0.0055(10)
C107 0.0367(13) 0.0309(12) 0.0281(13) 0.0005(10) 0.0158(11) -0.0068(10)
C108 0.0379(13) 0.0303(12) 0.0272(12) -0.0004(10) 0.0168(11) -0.0061(10)
C109 0.0627(19) 0.0380(14) 0.0379(16) -0.0066(12) 0.0300(15) -0.0185(13)
C110 0.082(2) 0.0470(17) 0.0403(17) -0.0156(14) 0.0347(18) -0.0291(17)
C111 0.078(2) 0.0514(18) 0.0339(15) -0.0106(13) 0.0331(17) -0.0234(17)
C112 0.0570(18) 0.0414(15) 0.0339(15) -0.0021(12) 0.0270(14) -0.0146(13)
O21 0.0249(8) 0.0430(10) 0.0219(9) -0.0012(7) 0.0112(7) -0.0070(7)
O22 0.0231(8) 0.0366(9) 0.0206(8) 0.0040(7) 0.0098(7) -0.0016(7)
C201 0.0208(10) 0.0351(12) 0.0207(11) 0.0014(9) 0.0095(9) -0.0004(9)
C202 0.0227(11) 0.0615(17) 0.0194(12) 0.0042(11) 0.0080(10) -0.0097(11)
C203 0.0281(13) 0.078(2) 0.0206(12) 0.0063(13) 0.0082(11) -0.0153(13)
C204 0.0316(14) 0.084(2) 0.0238(13) 0.0055(14) 0.0120(12) -0.0172(14)
C205 0.032(2) 0.031(2) 0.029(2) 0.0018(19) 0.017(2) -0.0020(19)
C206 0.044(3) 0.028(2) 0.042(3) -0.004(2) 0.024(3) -0.003(2)
C207 0.049(3) 0.034(3) 0.035(3) -0.003(2) 0.027(3) 0.002(2)
C208 0.034(3) 0.033(2) 0.028(3) 0.004(2) 0.018(2) 0.003(2)
C11A 0.030(4) 0.026(4) 0.045(5) -0.007(4) 0.029(4) -0.004(3)
C12A 0.036(5) 0.033(4) 0.047(5) -0.015(4) 0.016(4) -0.002(4)
C13A 0.035(4) 0.023(4) 0.056(5) -0.020(4) 0.030(4) -0.008(3)
C14A 0.035(4) 0.020(4) 0.047(4) -0.006(3) 0.029(3) -0.007(3)
C15A 0.034(4) 0.020(4) 0.048(5) -0.004(4) 0.022(4) -0.003(3)
C16A 0.024(4) 0.016(3) 0.050(5) -0.009(3) 0.025(4) -0.004(3)
C21A 0.019(5) 0.053(6) 0.040(6) -0.005(5) 0.023(5) -0.006(5)
C22A 0.024(5) 0.064(7) 0.038(6) -0.011(5) 0.023(5) -0.007(5)
C23A 0.026(5) 0.065(7) 0.044(6) -0.009(5) 0.020(5) -0.011(5)
C24A 0.030(5) 0.065(7) 0.047(6) -0.011(6) 0.022(5) -0.008(5)
C25A 0.027(5) 0.063(7) 0.047(6) -0.017(6) 0.022(5) -0.008(5)
C26A 0.020(5) 0.058(7) 0.048(6) -0.006(6) 0.025(5) -0.005(5)
C31A 0.036(7) 0.010(6) 0.022(7) -0.008(5) 0.004(6) 0.005(6)
C32A 0.042(6) 0.019(5) 0.030(6) -0.009(5) 0.016(5) 0.001(5)
C33A 0.044(6) 0.019(5) 0.043(6) -0.005(5) 0.027(5) -0.005(5)
C41A 0.028(5) 0.065(7) 0.047(6) -0.017(6) 0.024(5) -0.007(5)
C42A 0.030(5) 0.067(6) 0.050(5) -0.008(5) 0.020(4) -0.010(4)
C43A 0.036(6) 0.069(7) 0.050(6) -0.009(6) 0.021(6) -0.011(6)
loop_
_atom_type_symbol
_atom_type_description
_atom_type_scat_dispersion_real
_atom_type_scat_dispersion_imag
_atom_type_scat_source
C C 0.0046 0.0022 'International Tables Vol C Tables 4.2.6.8 and 6.1.1.4'
H H 0.0000 0.0000 'International Tables Vol C Tables 4.2.6.8 and 6.1.1.4'
Li Li 0.0000 0.0001 'International Tables Vol C Tables 4.2.6.8 and 6.1.1.4'
N N 0.0087 0.0044 'International Tables Vol C Tables 4.2.6.8 and 6.1.1.4'
O O 0.0147 0.0080 'International Tables Vol C Tables 4.2.6.8 and 6.1.1.4'
Zn Zn 0.2084 1.7371 'International Tables Vol C Tables 4.2.6.8 and 6.1.1.4'
loop_
_geom_angle_atom_site_label_1
_geom_angle_atom_site_label_2
_geom_angle_atom_site_label_3
_geom_angle
_geom_angle_site_symmetry_1
_geom_angle_site_symmetry_3
_geom_angle_publ_flag
N1 Zn1 Li1 178.00(9) . . ?
O11 Zn1 Li1 79.64(9) . . ?
O11 Zn1 N1 102.24(8) . . ?
O11 Zn1 O13 120.03(9) . 4_656 ?
O11 Zn1 O21 122.82(8) . . ?
O13 Zn1 Li1 82.97(10) 4_656 . ?
O13 Zn1 N1 96.59(8) 4_656 . ?
O13 Zn1 O21 109.31(9) 4_656 . ?
O21 Zn1 Li1 79.52(9) . . ?
O21 Zn1 N1 98.82(8) . . ?
Li1 Li1 Zn1 117.0(2) 2_756 . ?
O12 Li1 Zn1 71.81(14) . . ?
O12 Li1 Li1 116.82(13) . 2_756 ?
O12 Li1 O22 111.6(2) . . ?
O12 Li1 O22 111.8(2) . 2_756 ?
O14 Li1 Zn1 65.98(14) 4_656 . ?
O14 Li1 Li1 133.83(16) 4_656 2_756 ?
O14 Li1 O12 107.8(2) 4_656 . ?
O14 Li1 O22 108.1(2) 4_656 . ?
O14 Li1 O22 125.6(2) 4_656 2_756 ?
O22 Li1 Zn1 72.87(13) . . ?
O22 Li1 Zn1 162.48(19) 2_756 . ?
O22 Li1 Li1 44.96(13) . 2_756 ?
O22 Li1 Li1 45.64(13) 2_756 2_756 ?
O22 Li1 O22 90.21(18) 2_756 . ?
C11 N1 Zn1 124.90(17) . . ?
C15 N1 Zn1 116.82(17) . . ?
C15 N1 C11 118.3(2) . . ?
N1 C11 H11 118.7 . . ?
N1 C11 C12 122.5(2) . . ?
C12 C11 H11 118.7 . . ?
C11 C12 H12 120.5 . . ?
C11 C12 C13 119.0(2) . . ?
C13 C12 H12 120.5 . . ?
C12 C13 C13 121.94(16) . 2_655 ?
C14 C13 C12 118.2(2) . . ?
C14 C13 C13 119.82(17) . 2_655 ?
C13 C14 H14 120.4 . . ?
C15 C14 C13 119.3(2) . . ?
C15 C14 H14 120.4 . . ?
N1 C15 C14 122.7(2) . . ?
N1 C15 H15 118.7 . . ?
C14 C15 H15 118.7 . . ?
C101 O11 Zn1 123.94(15) . . ?
C101 O12 Li1 136.3(2) . . ?
C106 O13 Zn1 117.56(17) . 4_646 ?
C106 O14 Li1 147.9(2) . 4_646 ?
O11 C101 C102 114.6(2) . . ?
O12 C101 O11 124.9(2) . . ?
O12 C101 C102 120.5(2) . . ?
C103 C102 C101 117.6(2) . . ?
C103 C102 C108 120.3(2) . . ?
C108 C102 C101 122.0(2) . . ?
C102 C103 H103 119.6 . . ?
C102 C103 C104 120.8(2) . . ?
C104 C103 H103 119.6 . . ?
C103 C104 H104 119.5 . . ?
C105 C104 C103 120.9(2) . . ?
C105 C104 H104 119.5 . . ?
C104 C105 C106 115.9(2) . . ?
C104 C105 C107 120.3(2) . . ?
C107 C105 C106 123.8(2) . . ?
O13 C106 C105 117.8(2) . . ?
O14 C106 O13 123.8(2) . . ?
O14 C106 C105 118.3(2) . . ?
C105 C107 C108 119.0(2) . . ?
C112 C107 C105 122.8(2) . . ?
C112 C107 C108 118.2(2) . . ?
C107 C108 C102 118.6(2) . . ?
C109 C108 C102 122.6(2) . . ?
C109 C108 C107 118.7(2) . . ?
C108 C109 H109 119.5 . . ?
C110 C109 C108 121.1(3) . . ?
C110 C109 H109 119.5 . . ?
C109 C110 H110 119.7 . . ?
C109 C110 C111 120.7(3) . . ?
C111 C110 H110 119.7 . . ?
C110 C111 H111 120.1 . . ?
C112 C111 C110 119.8(3) . . ?
C112 C111 H111 120.1 . . ?
C107 C112 H112 119.3 . . ?
C111 C112 C107 121.5(3) . . ?
C111 C112 H112 119.3 . . ?
C201 O21 Zn1 125.01(15) . . ?
Li1 O22 Li1 89.40(18) 2_756 . ?
C201 O22 Li1 134.50(19) . . ?
C201 O22 Li1 136.10(19) . 2_756 ?
O21 C201 C202 116.2(2) . . ?
O22 C201 O21 124.6(2) . . ?
O22 C201 C202 119.2(2) . . ?
C203 C202 C201 118.5(2) . . ?
C203 C202 C204 121.3(2) . 5_776 ?
C204 C202 C201 120.1(3) 5_776 . ?
C202 C203 C204 119.7(3) . . ?
C202 C203 C208 125.6(3) . . ?
C204 C203 C208 114.4(3) . . ?
C202 C204 C203 119.0(3) 5_776 . ?
C202 C204 C205 123.6(3) 5_776 . ?
C203 C204 C205 116.7(3) . . ?
C204 C205 H205 118.2 . . ?
C206 C205 C204 123.6(4) . . ?
C206 C205 H205 118.2 . . ?
C205 C206 H206 120.0 . . ?
C205 C206 C207 120.0(5) . . ?
C207 C206 H206 120.0 . . ?
C206 C207 H207 119.8 . . ?
C208 C207 C206 120.3(5) . . ?
C208 C207 H207 119.8 . . ?
C203 C208 H208 117.7 . . ?
C207 C208 C203 124.5(4) . . ?
C207 C208 H208 117.7 . . ?
C12A C11A H11A 120.2 . . ?
C16A C11A H11A 120.2 . . ?
C16A C11A C12A 119.5(9) . . ?
C11A C12A H12A 120.2 . . ?
C13A C12A C11A 119.6(10) . . ?
C13A C12A H12A 120.2 . . ?
C12A C13A H13A 119.6 . . ?
C14A C13A C12A 120.7(9) . . ?
C14A C13A H13A 119.6 . . ?
C13A C14A H14A 120.4 . . ?
C13A C14A C15A 119.2(9) . . ?
C15A C14A H14A 120.4 . . ?
C14A C15A H15A 120.0 . . ?
C16A C15A C14A 120.0(9) . . ?
C16A C15A H15A 120.0 . . ?
C11A C16A C15A 120.8(8) . . ?
C11A C16A H16A 119.6 . . ?
C15A C16A H16A 119.6 . . ?
C22A C21A H21A 120.0 . . ?
C26A C21A H21A 120.0 . . ?
C26A C21A C22A 119.9(6) . . ?
C21A C22A H22A 119.9 . . ?
C21A C22A C23A 120.3(6) . . ?
C23A C22A H22A 119.9 . . ?
C22A C23A H23A 120.1 . . ?
C24A C23A C22A 119.7(7) . . ?
C24A C23A H23A 120.1 . . ?
C23A C24A H24A 120.0 . . ?
C23A C24A C25A 120.1(6) . . ?
C25A C24A H24A 120.0 . . ?
C24A C25A H25A 120.0 . . ?
C24A C25A C26A 120.0(6) . . ?
C26A C25A H25A 120.0 . . ?
C21A C26A C25A 120.0(7) . . ?
C21A C26A H26A 120.0 . . ?
C25A C26A H26A 120.0 . . ?
C31A C31A H31A 120.3 2_656 . ?
C31A C31A C32A 119.5(11) 2_656 . ?
C32A C31A H31A 120.3 . . ?
C31A C32A H32A 120.1 . . ?
C33A C32A C31A 120(2) . . ?
C33A C32A H32A 120.1 . . ?
C32A C33A H33A 119.8 . . ?
C33A C33A C32A 120.5(13) 2_656 . ?
C33A C33A H33A 119.8 2_656 . ?
C42A C41A H41A 119.8 . . ?
C43A C41A H41A 119.8 5_676 . ?
C41A C42A H42A 120.0 . . ?
C41A C42A C43A 119.9(6) . . ?
C43A C42A H42A 120.0 . . ?
C41A C43A C42A 120(2) 5_676 . ?
C41A C43A H43A 120.2 5_676 . ?
C42A C43A H43A 120.2 . . ?
loop_
_geom_bond_atom_site_label_1
_geom_bond_atom_site_label_2
_geom_bond_distance
_geom_bond_site_symmetry_2
_geom_bond_publ_flag
Zn1 Li1 3.163(4) . ?
Zn1 N1 2.044(2) . ?
Zn1 O11 1.9200(17) . ?
Zn1 O13 1.9452(18) 4_656 ?
Zn1 O21 1.9621(17) . ?
Li1 Li1 2.752(8) 2_756 ?
Li1 O12 1.880(4) . ?
Li1 O14 1.840(5) 4_656 ?
Li1 O22 1.945(4) 2_756 ?
Li1 O22 1.968(4) . ?
N1 C11 1.341(3) . ?
N1 C15 1.339(3) . ?
C11 H11 0.9500 . ?
C11 C12 1.383(3) . ?
C12 H12 0.9500 . ?
C12 C13 1.391(3) . ?
C13 C13 1.481(5) 2_655 ?
C13 C14 1.387(4) . ?
C14 H14 0.9500 . ?
C14 C15 1.379(4) . ?
C15 H15 0.9500 . ?
O11 C101 1.283(3) . ?
O12 C101 1.245(3) . ?
O13 C106 1.267(3) . ?
O14 C106 1.235(3) . ?
C101 C102 1.498(3) . ?
C102 C103 1.367(3) . ?
C102 C108 1.436(3) . ?
C103 H103 0.9500 . ?
C103 C104 1.404(3) . ?
C104 H104 0.9500 . ?
C104 C105 1.375(4) . ?
C105 C106 1.505(3) . ?
C105 C107 1.422(4) . ?
C107 C108 1.434(3) . ?
C107 C112 1.420(4) . ?
C108 C109 1.416(4) . ?
C109 H109 0.9500 . ?
C109 C110 1.364(4) . ?
C110 H110 0.9500 . ?
C110 C111 1.410(4) . ?
C111 H111 0.9500 . ?
C111 C112 1.368(4) . ?
C112 H112 0.9500 . ?
O21 C201 1.268(3) . ?
O22 C201 1.247(3) . ?
C201 C202 1.499(3) . ?
C202 C203 1.405(4) . ?
C202 C204 1.405(4) 5_776 ?
C203 C204 1.426(4) . ?
C203 C208 1.565(6) . ?
C204 C205 1.582(6) . ?
C205 H205 0.9500 . ?
C205 C206 1.358(7) . ?
C206 H206 0.9500 . ?
C206 C207 1.406(7) . ?
C207 H207 0.9500 . ?
C207 C208 1.381(7) . ?
C208 H208 0.9500 . ?
C11A H11A 0.9500 . ?
C11A C12A 1.377(7) . ?
C11A C16A 1.359(7) . ?
C12A H12A 0.9500 . ?
C12A C13A 1.373(7) . ?
C13A H13A 0.9500 . ?
C13A C14A 1.364(7) . ?
C14A H14A 0.9500 . ?
C14A C15A 1.376(7) . ?
C15A H15A 0.9500 . ?
C15A C16A 1.365(7) . ?
C16A H16A 0.9500 . ?
C21A H21A 0.9500 . ?
C21A C22A 1.362(8) . ?
C21A C26A 1.360(8) . ?
C22A H22A 0.9500 . ?
C22A C23A 1.364(8) . ?
C23A H23A 0.9500 . ?
C23A C24A 1.363(8) . ?
C24A H24A 0.9500 . ?
C24A C25A 1.363(8) . ?
C25A H25A 0.9500 . ?
C25A C26A 1.364(8) . ?
C26A H26A 0.9500 . ?
C31A C31A 1.41(4) 2_656 ?
C31A H31A 0.9500 . ?
C31A C32A 1.41(3) . ?
C32A H32A 0.9500 . ?
C32A C33A 1.40(3) . ?
C33A C33A 1.37(4) 2_656 ?
C33A H33A 0.9500 . ?
C41A H41A 0.9500 . ?
C41A C42A 1.361(8) . ?
C41A C43A 1.362(8) 5_676 ?
C42A H42A 0.9500 . ?
C42A C43A 1.364(8) . ?
C43A H43A 0.9500 . ?
