#------------------------------------------------------------------------------
#$Date: 2021-04-04 12:56:42 +0300 (Sun, 04 Apr 2021) $
#$Revision: 263575 $
#$URL: file:///home/coder/svn-repositories/cod/cif/4/51/85/4518559.cif $
#------------------------------------------------------------------------------
#
# This file is available in the Crystallography Open Database (COD),
# http://www.crystallography.net/
#
# All data on this site have been placed in the public domain by the
# contributors.
#
data_4518559
loop_
_publ_author_name
'Sapianik, Aleksandr A.'
'Dudko, Evgeny R.'
'Kovalenko, Konstantin A.'
'Barsukova, Marina O.'
'Samsonenko, Denis G.'
'Dybtsev, Danil N.'
'Fedin, Vladimir P.'
_publ_section_title
;
 Metal-Organic Frameworks for Highly Selective Separation of Xylene
 Isomers and Single-Crystal X-ray Study of Aromatic Guest-Host Inclusion
 Compounds.
;
_journal_issue                   12
_journal_name_full               'ACS applied materials &amp; interfaces'
_journal_page_first              14768
_journal_page_last               14777
_journal_paper_doi               10.1021/acsami.1c02812
_journal_volume                  13
_journal_year                    2021
_chemical_formula_sum            'C50 H31 Li2 N2 O12 Zn2'
_chemical_formula_weight         996.39
_space_group_crystal_system      monoclinic
_space_group_IT_number           15
_space_group_name_Hall           '-C 2yc'
_space_group_name_H-M_alt        'C 1 2/c 1'
_atom_sites_solution_hydrogens   geom
_atom_sites_solution_primary     dual
_atom_sites_solution_secondary   difmap
_audit_creation_method           SHELXL-2018/3
_cell_angle_alpha                90
_cell_angle_beta                 119.705(2)
_cell_angle_gamma                90
_cell_formula_units_Z            4
_cell_length_a                   18.9053(3)
_cell_length_b                   17.21449(18)
_cell_length_c                   18.3643(3)
_cell_measurement_reflns_used    13211
_cell_measurement_temperature    150(2)
_cell_measurement_theta_max      28.25
_cell_measurement_theta_min      2.46
_cell_volume                     5191.18(17)
_computing_cell_refinement       'CrysAlisPro 1.171.40.82a (Rigaku OD, 2020)'
_computing_data_collection       'CrysAlisPro 1.171.40.82a (Rigaku OD, 2020)'
_computing_data_reduction        'CrysAlisPro 1.171.40.82a (Rigaku OD, 2020)'
_computing_molecular_graphics    'ShelXle (H\"ubschle, 2011)'
_computing_publication_material  'CIFTAB (Sheldrick, 2015)'
_computing_structure_refinement  'SHELXL-2018 (Sheldrick, 2015)'
_computing_structure_solution    'SHELXT-2018 (Sheldrick, 2015)'
_diffrn_ambient_temperature      150(2)
_diffrn_detector                 'CCD plate'
_diffrn_detector_area_resol_mean 10.6
_diffrn_detector_type            AtlasS2
_diffrn_measured_fraction_theta_full 0.995
_diffrn_measured_fraction_theta_max 0.894
_diffrn_measurement_device       'four-circle diffractometer'
_diffrn_measurement_device_type  'New Xcalibur, AtlasS2'
_diffrn_measurement_method       '\w scans'
_diffrn_radiation_monochromator  graphite
_diffrn_radiation_probe          x-ray
_diffrn_radiation_source         'fine-focus sealed tube'
_diffrn_radiation_type           MoK\a
_diffrn_radiation_wavelength     0.71073
_diffrn_reflns_av_R_equivalents  0.0160
_diffrn_reflns_av_unetI/netI     0.0153
_diffrn_reflns_Laue_measured_fraction_full 0.995
_diffrn_reflns_Laue_measured_fraction_max 0.894
_diffrn_reflns_limit_h_max       22
_diffrn_reflns_limit_h_min       -25
_diffrn_reflns_limit_k_max       22
_diffrn_reflns_limit_k_min       -22
_diffrn_reflns_limit_l_max       22
_diffrn_reflns_limit_l_min       -24
_diffrn_reflns_number            19873
_diffrn_reflns_point_group_measured_fraction_full 0.995
_diffrn_reflns_point_group_measured_fraction_max 0.894
_diffrn_reflns_theta_full        25.500
_diffrn_reflns_theta_max         28.446
_diffrn_reflns_theta_min         2.554
_diffrn_source                   'sealed X-ray tube'
_exptl_absorpt_coefficient_mu    0.982
_exptl_absorpt_correction_T_max  1.00000
_exptl_absorpt_correction_T_min  0.97781
_exptl_absorpt_correction_type   multi-scan
_exptl_absorpt_process_details
;
CrysAlisPro 1.171.40.82a (Rigaku Oxford Diffraction, 2020)
Empirical absorption correction using spherical harmonics,
implemented in SCALE3 ABSPACK scaling algorithm.
;
_exptl_crystal_colour            yellow
_exptl_crystal_density_diffrn    1.275
_exptl_crystal_description       block
_exptl_crystal_F_000             2028
_exptl_crystal_size_max          0.26
_exptl_crystal_size_mid          0.17
_exptl_crystal_size_min          0.12
_refine_diff_density_max         1.300
_refine_diff_density_min         -0.332
_refine_diff_density_rms         0.088
_refine_ls_extinction_method     none
_refine_ls_goodness_of_fit_ref   1.085
_refine_ls_hydrogen_treatment    constr
_refine_ls_matrix_type           full
_refine_ls_number_parameters     379
_refine_ls_number_reflns         5857
_refine_ls_number_restraints     107
_refine_ls_restrained_S_all      1.094
_refine_ls_R_factor_all          0.0449
_refine_ls_R_factor_gt           0.0417
_refine_ls_shift/su_max          0.000
_refine_ls_shift/su_mean         0.000
_refine_ls_structure_factor_coef Fsqd
_refine_ls_weighting_details
'w=1/[\s^2^(Fo^2^)+(0.0861P)^2^+9.9664P] where P=(Fo^2^+2Fc^2^)/3'
_refine_ls_weighting_scheme      calc
_refine_ls_wR_factor_gt          0.1382
_refine_ls_wR_factor_ref         0.1403
_reflns_Friedel_coverage         0.000
_reflns_number_gt                5368
_reflns_number_total             5857
_reflns_threshold_expression     'I > 2\s(I)'
_cod_data_source_file            mxylene.cif
_cod_data_source_block           Er070
_cod_depositor_comments
'Adding full bibliography for 4518556--4518560.cif.'
_cod_original_cell_volume        5191.19(16)
_cod_original_sg_symbol_H-M      'C 2/c'
_cod_database_code               4518559
_shelx_shelxl_version_number     2018/3
_shelx_space_group_comment
;
The symmetry employed for this shelxl refinement is uniquely defined
by the following loop, which should always be used as a source of
symmetry information in preference to the above space-group names.
They are only intended as comments.
;
_shelx_estimated_absorpt_t_min   0.784
_shelx_estimated_absorpt_t_max   0.891
_shelx_res_file
;
TITL Er070 in C2/c; 150K; Xcalibur
    Er070.res
    created by SHELXL-2018/3 at 14:38:49 on 13-Aug-2020
CELL 0.71073  18.9053  17.21449  18.3643  90.0000 119.7047  90.0000
ZERR    4.00   0.0003   0.00018   0.0003   0.0000   0.0022   0.0000
LATT  7
SYMM -X, Y, 1/2-Z
SFAC C   H  Li N  O  Zn
UNIT 200 124 8 8 48 8
 
LIST 4 ! automatically inserted. Change 6 to 4 for CHECKCIF!!
 
TEMP -123
 
L.S. 6
BOND $H
FMAP 2
PLAN 10
 
OMIT 0
 
OMIT 0 0 4
OMIT -4 0 4
OMIT 3 1 0
OMIT -5 1 2
OMIT -5 1 4
OMIT -4 2 3
OMIT 4 0 0
OMIT -1 1 2
OMIT -6 0 4
OMIT -7 1 4
OMIT -2 0 2
OMIT -3 1 2
OMIT 2 0 0
 
OMIT  1   1   1
OMIT  0   2   2
OMIT -1   3   2
OMIT -2   0   4
OMIT -6   2   4
OMIT -2   2   2
 
SIMU 0.01 0.01 C207 > C212
 
DFIX 1.39 0.01 C1 C2  C2 C3  C3 C4  C4 C5  C5 C6  C6 C1
DFIX 1.50 0.01 C4 C7  C6 C8
 
SADI 0.01 C3 C6  C1 C4  C2 C5
SADI 0.01 C1 C5  C2 C4
SADI 0.01 C7 C5  C7 C3  C8 C5  C8 C1
 
FLAT 0.02 C1 > C8
 
SIMU 0.01 0.01 C1 > C8
 
ACTA 51
 
SIZE 0.26 0.17 0.12
 
WGHT    0.086100    9.966399
FVAR       1.22170
LI1   3    0.073045    0.089077    0.251962    11.00000    0.01789    0.02675 =
         0.01729    0.00034    0.00568    0.00199
ZN1   6    0.232118    0.110653    0.428213    11.00000    0.01706    0.02534 =
         0.01586    0.00003    0.00419   -0.00126
N1    4    0.331290    0.122520    0.545460    11.00000    0.02017    0.03224 =
         0.01964    0.00206    0.00086   -0.00465
C11   1    0.377033    0.186320    0.574654    11.00000    0.02320    0.02977 =
         0.02306    0.00197    0.00401   -0.00218
AFIX  43
H11   2    0.363149    0.230492    0.539155    11.00000   -1.20000
AFIX   0
C12   1    0.444059    0.190804    0.654745    11.00000    0.02344    0.02962 =
         0.02494   -0.00161    0.00301   -0.00411
AFIX  43
H12   2    0.475407    0.237100    0.673381    11.00000   -1.20000
AFIX   0
C13   1    0.464567    0.126773    0.707106    11.00000    0.02323    0.03405 =
         0.02355    0.00010    0.00010   -0.00078
C14   1    0.416449    0.060373    0.676501    11.00000    0.04403    0.03815 =
         0.02868    0.01085   -0.00641   -0.01061
AFIX  43
H14   2    0.428645    0.015486    0.710772    11.00000   -1.20000
AFIX   0
C15   1    0.351389    0.060386    0.596548    11.00000    0.04129    0.03776 =
         0.03045    0.00804   -0.00550   -0.01545
AFIX  43
H15   2    0.319163    0.014732    0.576336    11.00000   -1.20000
AFIX   0
O11   5    0.149571    0.096077    0.461796    11.00000    0.02072    0.04477 =
         0.01664   -0.00116    0.00632   -0.00853
O12   5    0.038637    0.080983    0.337132    11.00000    0.01877    0.03763 =
         0.01460    0.00459    0.00563   -0.00206
C101  1    0.076838    0.074298    0.414915    11.00000    0.01970    0.02896 =
         0.01552    0.00120    0.00734   -0.00178
PART 1
C102  1    0.035380    0.036936    0.457839    11.00000    0.02480    0.05495 =
         0.01409    0.00331    0.00577   -0.01421
C103  1    0.034145    0.075063    0.525087    11.00000    0.03777    0.07522 =
         0.01899   -0.00019    0.01159   -0.02600
C104  1   -0.001170    0.037139    0.568226    11.00000    0.03582    0.07649 =
         0.01693    0.00252    0.00909   -0.02517
C105  1   -0.010504    0.088214    0.633624    10.50000    0.03753    0.02858 =
         0.02823    0.00297    0.02211    0.00290
AFIX  43
H105  2   -0.038476    0.066854    0.659969    10.50000   -1.20000
AFIX   0
C106  1    0.020016    0.162919    0.654870    10.50000    0.07100    0.03119 =
         0.03963   -0.00453    0.03883    0.00042
AFIX  43
H106  2    0.017727    0.189254    0.699116    10.50000   -1.20000
AFIX   0
C107  1    0.054108    0.199918    0.611933    10.50000    0.06372    0.02556 =
         0.05148   -0.00526    0.03912   -0.00810
AFIX  43
H107  2    0.074763    0.251265    0.626743    10.50000   -1.20000
AFIX   0
C108  1    0.057657    0.161810    0.548256    10.50000    0.04400    0.03091 =
         0.03387    0.00294    0.02492   -0.00344
AFIX  43
H108  2    0.075669    0.190261    0.516148    10.50000   -1.20000
AFIX   0
PART 0
O21   5    0.238968    0.202334    0.372498    11.00000    0.03219    0.03636 =
         0.03076    0.00894    0.01335   -0.00406
O22   5    0.119110    0.186194    0.255446    11.00000    0.03278    0.03572 =
         0.04020    0.00680    0.01498   -0.00959
O23   5    0.238094    0.510772    0.098712    11.00000    0.04613    0.04089 =
         0.03207    0.00973    0.01291   -0.01081
O24   5    0.348234    0.514417    0.222840    11.00000    0.04274    0.05674 =
         0.04662    0.01361    0.00710   -0.02822
C201  1    0.185874    0.219347    0.296771    11.00000    0.03230    0.02774 =
         0.03280    0.00465    0.01781   -0.00280
C202  1    0.209161    0.285004    0.259402    11.00000    0.03101    0.03225 =
         0.02802    0.00498    0.01285   -0.00724
C203  1    0.249897    0.346178    0.309828    11.00000    0.03657    0.04181 =
         0.02268    0.00398    0.00887   -0.01335
AFIX  43
H203  2    0.262979    0.345568    0.366890    11.00000   -1.20000
AFIX   0
C204  1    0.272865    0.410107    0.278863    11.00000    0.03814    0.03690 =
         0.02638   -0.00039    0.00815   -0.01729
AFIX  43
H204  2    0.300414    0.452507    0.315043    11.00000   -1.20000
AFIX   0
C205  1    0.256312    0.412391    0.197760    11.00000    0.03121    0.03283 =
         0.02748    0.00344    0.01007   -0.01180
C206  1    0.283745    0.483878    0.171319    11.00000    0.03528    0.03271 =
         0.03161    0.00351    0.01577   -0.00917
C207  1    0.217082    0.348182    0.143623    11.00000    0.05439    0.04020 =
         0.02896   -0.00277    0.01939   -0.02013
C208  1    0.192598    0.283373    0.174937    11.00000    0.05308    0.03782 =
         0.03436   -0.00541    0.02296   -0.01924
C209  1    0.158695    0.217514    0.122705    11.00000    0.10139    0.05226 =
         0.05482   -0.01762    0.04777   -0.04148
AFIX  43
H209  2    0.142574    0.174038    0.142897    11.00000   -1.20000
AFIX   0
C210  1    0.148780    0.215425    0.043841    11.00000    0.14306    0.06960 =
         0.06074   -0.03314    0.06036   -0.05838
AFIX  43
H210  2    0.126417    0.170480    0.010045    11.00000   -1.20000
AFIX   0
C211  1    0.171431    0.279281    0.012432    11.00000    0.14441    0.08122 =
         0.05026   -0.02510    0.05934   -0.05131
AFIX  43
H211  2    0.163274    0.277847   -0.042925    11.00000   -1.20000
AFIX   0
C212  1    0.205186    0.343511    0.061261    11.00000    0.10344    0.05996 =
         0.04402   -0.00936    0.04468   -0.03763
AFIX  43
H212  2    0.221033    0.385983    0.039508    11.00000   -1.20000
AFIX   0
PART -1  10.25
C1    1   -0.051405    0.344596   -0.291831    10.25000    0.08168    0.06643 =
         0.11028    0.02686    0.05389    0.01412
AFIX  43
H1    2   -0.051880    0.322091   -0.339305    10.25000   -1.20000
AFIX   0
C2    1   -0.124398    0.360237   -0.293868    10.25000    0.08068    0.06670 =
         0.12113    0.03146    0.04165    0.00317
AFIX  43
H2    2   -0.174624    0.348512   -0.342691    10.25000   -1.20000
AFIX   0
C3    1   -0.124062    0.392993   -0.224632    10.25000    0.08091    0.07557 =
         0.12782    0.04704    0.05418    0.01416
AFIX  43
H3    2   -0.173962    0.403543   -0.225852    10.25000   -1.20000
AFIX   0
C4    1   -0.051054    0.410128   -0.154164    10.25000    0.08534    0.08524 =
         0.11800    0.04384    0.07063    0.02129
C5    1    0.022088    0.392919   -0.152105    10.25000    0.07367    0.07097 =
         0.10819    0.03945    0.06402    0.02463
AFIX  43
H5    2    0.072518    0.402846   -0.102798    10.25000   -1.20000
AFIX   0
C6    1    0.021077    0.361374   -0.221973    10.25000    0.07536    0.07310 =
         0.10594    0.03833    0.06134    0.02084
C7    1   -0.048141    0.446197   -0.078707    10.25000    0.09637    0.11886 =
         0.13359    0.02750    0.09724    0.03163
AFIX  33
H7A   2    0.008729    0.453974   -0.035250    10.25000   -1.50000
H7B   2   -0.076225    0.496416   -0.094099    10.25000   -1.50000
H7C   2   -0.075016    0.411857   -0.057289    10.25000   -1.50000
AFIX   0
C8    1    0.100385    0.344320   -0.219078    10.25000    0.08099    0.07800 =
         0.11526    0.05166    0.06115    0.02033
AFIX  33
H8A   2    0.145688    0.360056   -0.164515    10.25000   -1.50000
H8B   2    0.104202    0.288529   -0.227180    10.25000   -1.50000
H8C   2    0.102988    0.373254   -0.263648    10.25000   -1.50000
PART 0
AFIX   0
HKLF 4
 
 
 
 
REM  Er070 in C2/c; 150K; Xcalibur
REM wR2 = 0.1403, GooF = S = 1.085, Restrained GooF = 1.094 for all data
REM R1 = 0.0417 for 5368 Fo > 4sig(Fo) and 0.0449 for all 5857 data
REM 379 parameters refined using 107 restraints
 
END
 
WGHT      0.0861      9.9664
 
REM Highest difference peak  1.300,  deepest hole -0.332,  1-sigma level  0.088
Q1    1   0.0000  0.5000  0.0000  10.50000  0.05    1.30
Q2    1   0.0000  0.3218 -0.2500  10.50000  0.05    0.74
Q3    1   0.1087  0.3183 -0.0074  11.00000  0.05    0.61
Q4    1   0.1029  0.2475  0.0999  11.00000  0.05    0.60
Q5    1   0.0051  0.0589  0.6124  11.00000  0.05    0.59
Q6    1   0.1535  0.3788  0.0486  11.00000  0.05    0.56
Q7    1   0.0805  0.2526  0.0215  11.00000  0.05    0.55
Q8    1  -0.0699  0.4773 -0.1479  11.00000  0.05    0.54
Q9    1   0.1122  0.3313 -0.2904  11.00000  0.05    0.52
Q10   1   0.0000  0.3841 -0.2500  10.50000  0.05    0.52
;
_shelx_res_checksum              18668
_shelx_hkl_file
;
   0   0   2 186.188 11.4544   1
   0   0  -2 151.518 10.1109   1
   0   0  -2 160.215 9.63877   2
   0   0   2 160.273 9.25028   2
   0   0  -2 143.606 9.19390   4
   0   0   2 163.401 9.25668   4
   0   0   3 38.9282 11.2046   1
   0   0  -3 70.7165 12.8506   1
   0   0  -3 35.3129 10.4332   2
   0   0   3 45.3928 9.45807   2
   0   0   3 95.6308 11.4630   4
   0   0  -3 58.3067 11.1056   4
   0   0   4 93.8818 15.1864   1
   0   0  -4 80.2292 14.0556   1
   0   0  -4 82.8064 13.1541   2
   0   0   4 73.9499 11.3534   2
   0   0  -4 54.3046 12.1522   4
   0   0   4 84.1628 12.6783   4
   0   0   5 20.7391 15.2931   1
   0   0  -5 20.4220 14.9945   1
   0   0  -5 35.9706 14.0425   2
   0   0   5 27.2143 11.5577   2
   0   0  -5 27.0784 13.6597   4
   0   0   5 49.9617 14.3104   4
   0   0  -6 53023.0 626.444   1
   0   0   6 54672.3 628.589   1
   0   0   6 53122.0 617.004   2
   0   0  -6 52684.8 616.933   2
   0   0  -6 52767.9 615.701   4
   0   0   6 53844.9 617.149   4
   0   0   7 35.2935 15.3435   1
   0   0  -7 2.11697 15.4777   1
   0   0  -7 8.37139 13.9009   2
   0   0   7 7.02745 11.4499   2
   0   0  -7-5.39128 14.4732   4
   0   0   7 14.8474 13.0139   4
   0   0   8 73677.1 847.232   1
   0   0  -8 72254.8 844.558   1
   0   0   8 71420.9 831.090   2
   0   0  -8 70129.7 829.796   2
   0   0   8 71827.8 829.919   4
   0   0  -9 26.4984 19.7530   1
   0   0   9 10.6056 11.5331   2
   0   0  -9 23.7102 15.5085   2
   0   0   9 33.4149 16.4639   4
   0   0 -10 17577.8 278.007   1
   0   0 -10 17657.9 265.418   2
   0   0  10 17345.5 261.863   4
   0   0 -11 43.4973 20.7537   2
   0   0 -11 15.7275 20.9987   1
   0   0 -12 6588.03 147.531   2
   0   0 -13 8.77474 18.6452   2
   0   0 -14 7052.60 165.105   2
   0   0 -15 54.5160 26.0622   2
   0   0 -16 1459.76 76.8639   2
   0   0 -17 2.43826 24.9068   2
   0   0  17 25.1142 32.8290   5
   0   0 -18 1451.56 85.9433   2
   0   0  18 1413.26 91.5628   5
   0   0 -19 35.8711 31.7655   2
   0   0  19 49.0232 36.8339   5
   0   0  20 3223.56 145.626   5
   0   2   1 1614.76 34.7400   1
   0  -2  -1 1550.67 34.1679   1
   0   2  -1 1628.50 32.7112   2
   0  -2   1 1520.91 32.1662   2
   0   2   1 1565.41 33.5460   3
   0  -2  -1 1526.80 32.7908   3
   0   2  -2 27114.4 312.406   2
   0  -2   2 26797.0 312.575   2
   0   2   2 27082.2 313.581   1
   0  -2  -2 27005.4 313.272   1
   0  -2   2 26579.8 297.432   4
   0   2   2 26495.0 310.748   5
   0  -2  -2 26452.3 310.528   5
   0   2  -2 26042.9 297.224   4
   0   2   2 27324.6 313.528   3
   0  -2  -2 27076.6 313.760   3
   0   2  -3 27581.5 324.053   2
   0  -2   3 27306.5 324.032   2
   0   2   3 27332.0 299.881   2
   0  -2  -3 27077.7 300.163   2
   0   2   3 27991.9 325.737   1
   0  -2  -3 26492.2 323.966   1
   0  -2   3 26303.0 305.361   4
   0   2  -3 26449.6 305.609   4
   0   2   3 27127.0 321.840   5
   0  -2  -3 27394.6 322.072   5
   0   2   3 26460.7 324.488   3
   0  -2  -4 2228.77 41.2920   2
   0   2  -4 2265.83 55.7087   2
   0  -2   4 2223.78 55.0505   2
   0   2   4 2212.58 41.2609   2
   0  -2  -4 2245.24 55.5993   1
   0   2   4 2239.73 55.8971   1
   0   2   4 2269.99 55.6494   5
   0  -2   4 2154.69 43.7321   4
   0   2  -4 2071.98 42.9601   4
   0   2   4 2315.78 55.8023   4
   0   2   4 2241.63 56.6929   3
   0   2  -5 41254.0 492.901   2
   0  -2   5 41909.0 492.880   2
   0  -2  -5 40769.3 467.822   2
   0   2   5 40627.3 467.526   2
   0   2   5 42567.5 495.431   1
   0  -2  -5 41766.8 494.287   1
   0  -2   5 41671.0 490.024   1
   0   2   5 41487.5 491.332   5
   0  -2   5 40326.3 470.672   4
   0   2   5 41328.4 495.975   3
   0   2  -5 40736.6 471.207   4
   0   2   5 42362.9 492.366   4
   0  -2   6 6197.12 115.436   2
   0   2   6 6108.16 98.2287   2
   0  -2  -6 5935.11 97.6005   2
   0   2  -6 6104.16 115.662   2
   0  -2  -6 5995.27 117.085   1
   0  -2   6 6275.31 114.567   1
   0   2   6 6363.77 118.331   1
   0  -2   6 5982.49 100.061   4
   0   2   6 6001.61 114.165   5
   0   2   6 6199.27 118.664   3
   0   2   6 6125.18 114.216   4
   0   2  -6 6035.26 100.462   4
   0  -2  -7 17791.9 235.575   2
   0   2   7 17522.5 234.736   2
   0  -2   7 18212.8 257.023   2
   0   2  -7 17944.8 257.370   2
   0  -2   7 18098.5 256.726   1
   0   2   7 18374.2 262.289   1
   0  -2  -7 17575.8 259.136   1
   0   2   7 17727.9 256.603   5
   0   2  -7 17730.0 236.878   4
   0   2   7 18525.7 263.737   3
   0  -2   7 17631.8 237.184   4
   0   2   7 18307.9 256.510   4
   0  -2  -8 24942.1 319.197   2
   0   2  -8 24684.9 340.158   2
   0   2   8 24462.0 317.533   2
   0  -2   8 24883.1 340.833   2
   0  -2   8 25560.3 343.319   1
   0  -2  -8 25155.6 346.137   1
   0   2   8 24530.5 341.026   5
   0   2  -8 24460.6 318.796   4
   0   2   8 25662.2 340.647   4
   0  -2   8 24566.0 319.944   4
   0  -2  -9 3843.48 87.8263   2
   0   2   9 3871.98 87.2777   2
   0   2  -9 3832.11 100.135   2
   0  -2  -9 3855.52 103.378   1
   0   2   9 3788.66 100.769   5
   0   2  -9 3923.63 88.4822   4
   0  -2   9 3889.28 88.5776   4
   0   2 -10 1687.54 67.7861   2
   0  -2 -10 1843.10 61.1070   2
   0   2  10 1805.42 59.9040   2
   0  -2 -10 1913.42 73.7896   1
   0  -2  10 1852.52 61.3537   4
   0   2  10 1800.85 71.6312   5
   0   2 -10 1790.22 60.3405   4
   0  -2 -11 33045.1 429.496   2
   0   2 -11 32999.0 452.733   2
   0   2  11 31512.8 425.414   2
   0  -2 -11 33486.4 461.296   1
   0   2  11 32702.3 455.720   5
   0  -2  11 32481.1 428.106   4
   0   2 -11 32817.4 427.524   4
   0   2 -12 1920.53 80.2712   2
   0  -2 -12 1997.60 71.8304   2
   0   2  12 1934.25 80.9189   5
   0  -2 -12 1897.81 82.2639   1
   0   2 -13 173.992 33.5126   2
   0  -2 -13 177.386 27.3041   2
   0   2  13 168.780 33.3646   5
   0  -2 -13 218.339 35.6386   1
   0  -2 -14 4.95962 19.3983   2
   0   2 -14 7.32628 23.4251   2
   0   2  14 3.57974 26.1141   5
   0  -2 -14 15.4159 24.7173   1
   0   2 -15 1319.36 74.0450   2
   0  -2 -15 1477.77 70.2070   2
   0   2  15 1326.58 78.0466   5
   0  -2 -15 1341.18 80.1773   1
   0  -2 -16 2610.70 98.1736   2
   0   2 -16 2654.30 108.988   2
   0   2  16 2716.56 115.992   5
   0  -2 -16 2708.18 116.730   1
   0  -2 -17 5607.71 154.809   2
   0   2 -17 5783.80 169.879   2
   0   2  17 5650.99 175.883   5
   0   2 -18 65.5489 31.0640   2
   0  -2 -18 66.1175 25.4016   2
   0   2  18 4.68061 56.5230   5
   0   2 -19 2720.13 123.072   2
   0   2  19 2434.81 124.864   5
   0   2 -20 467.100 62.2334   2
   0   2  20 476.263 67.4246   5
   0   2 -21 365.588 59.7830   2
   0   4   0 81443.5 878.536   2
   0  -4   0 79779.3 878.440   2
   0  -4  -1 1227.12 39.2830   1
   0   4  -1 1163.20 33.1011   2
   0   4   1 1134.58 23.7574   2
   0  -4   1 1082.96 32.2222   2
   0  -4  -1 1099.97 23.6786   2
   0  -4  -1 1116.06 35.1223   3
   0   4  -2 12134.5 167.859   2
   0  -4   2 12242.6 168.319   2
   0  -4  -2 12617.3 174.706   1
   0   4   2 12218.1 173.809   1
   0  -4  -2 11917.7 171.361   5
   0  -4  -2 12381.9 170.964   3
   0   4   2 12099.8 170.388   3
   0  -4   3 44144.0 517.218   2
   0   4  -3 44842.1 518.160   2
   0   4   3 43935.4 520.094   1
   0   4   3 44728.9 517.763   5
   0  -4  -3 44603.2 517.520   5
   0   4  -3 43188.3 492.283   4
   0   4   3 43992.7 519.037   3
   0   4  -4 525.986 30.4957   2
   0  -4   4 577.394 31.3742   2
   0  -4  -4 475.533 29.8336   1
   0   4   4 503.705 30.2730   1
   0   4   4 544.642 31.3881   5
   0  -4  -4 521.257 29.4608   5
   0  -4   4 433.042 18.7421   4
   0   4  -4 518.292 20.4113   4
   0   4   4 533.505 31.2642   3
   0  -4  -4 446.389 28.3745   3
   0  -4   5 2723.05 71.2049   2
   0  -4  -5 2494.00 41.7816   2
   0   4   5 2566.35 41.5747   2
   0   4  -5 2584.70 70.9410   2
   0  -4  -5 2553.48 70.4166   1
   0   4   5 2554.59 71.0736   1
   0   4   5 2525.30 68.5526   5
   0  -4  -5 2514.91 68.2480   5
   0  -4   5 2477.21 51.2903   4
   0   4  -5 2450.37 50.8845   4
   0   4   5 2555.46 70.9660   3
   0  -4  -6 13150.6 165.264   2
   0   4  -6 13149.6 206.832   2
   0   4   6 12956.2 164.193   2
   0  -4   6 13703.0 207.901   2
   0  -4  -6 13311.3 208.092   1
   0   4   6 13556.7 208.206   1
   0  -4  -6 13362.8 203.313   5
   0  -4   6 13189.9 176.112   4
   0   4   6 13040.9 203.124   5
   0   4  -6 12682.2 174.206   4
   0   4   6 13259.9 209.400   3
   0   4   6 13640.0 208.308   4
   0  -4  -7 6877.07 104.461   2
   0   4  -7 7152.17 141.125   2
   0   4   7 6947.56 104.253   2
   0  -4   7 6890.01 138.015   2
   0   4   7 7347.50 142.650   1
   0  -4  -7 6902.21 142.082   1
   0   4   7 6993.51 136.613   5
   0  -4   7 6855.00 111.781   4
   0   4   7 7266.24 140.517   4
   0   4  -7 6803.69 111.663   4
   0   4   8 50386.2 585.456   2
   0   4  -8 51455.4 637.210   2
   0  -4  -8 53971.1 589.052   2
   0  -4  -8 50885.2 637.310   1
   0  -4   8 50337.7 593.933   4
   0   4   8 51087.7 632.202   5
   0   4  -8 49837.0 594.116   4
   0   4  -9 1400.02 63.2923   2
   0   4   9 1401.59 45.0561   2
   0  -4  -9 1624.53 48.0006   2
   0  -4  -9 1543.46 66.3764   1
   0   4   9 1475.32 63.6991   5
   0  -4   9 1479.60 48.8680   4
   0   4  -9 1504.46 49.6881   4
   0  -4 -10 9569.22 152.069   2
   0   4 -10 9207.19 185.958   2
   0   4  10 9125.21 149.850   2
   0  -4 -10 9362.83 188.264   1
   0  -4  10 9344.67 156.123   4
   0   4  10 9269.51 184.807   5
   0   4 -10 9133.39 155.036   4
   0  -4 -11 23316.4 314.178   2
   0   4  11 22742.7 311.969   2
   0   4 -11 23502.4 359.528   2
   0  -4 -11 23451.9 363.156   1
   0   4  11 23422.0 357.403   5
   0  -4  11 22856.1 317.582   4
   0   4 -11 23748.1 319.811   4
   0   4 -12 1337.53 70.4501   2
   0  -4 -12 1573.05 58.4212   2
   0   4  12 1507.03 56.1592   2
   0  -4 -12 1492.32 75.6198   1
   0  -4  12 1519.99 58.3964   4
   0   4  12 1379.72 70.5676   5
   0   4 -12 1578.68 59.4149   4
   0  -4 -13 163.123 23.0905   2
   0   4 -13 180.287 33.8787   2
   0  -4 -13 165.339 32.8885   1
   0   4  13 175.224 33.7596   5
   0   4 -13 131.674 23.2499   4
   0   4 -14 17436.2 315.958   2
   0  -4 -14 17516.5 273.212   2
   0   4  14 17348.8 314.839   5
   0  -4 -14 17116.4 317.783   1
   0   4 -15 1381.58 79.6552   2
   0  -4 -15 1544.12 66.9364   2
   0   4  15 1293.34 79.2645   5
   0  -4 -15 1433.35 85.2755   1
   0  -4 -16 2318.66 85.5559   2
   0   4 -16 2412.85 108.808   2
   0   4  16 2305.51 107.386   5
   0  -4 -16 2313.14 110.399   1
   0   4 -17 18.3586 29.9231   2
   0   4  17-10.7927 38.3622   5
   0  -4 -17-31.5127 36.4513   1
   0   4 -18 1784.44 101.302   2
   0   4  18 1671.29 100.456   5
   0  -4 -18 1709.47 104.314   1
   0   4 -19 4.15944 35.6459   2
   0   4  19-19.0632 39.3382   5
   0  -4 -19 14.8885 36.2258   1
   0   4 -20 1115.33 90.1867   2
   0   4  20 1265.09 94.6066   5
   0   6   0 17582.0 220.547   2
   0  -6   0 17308.7 219.556   2
   0  -6  -1 1330.73 49.3700   1
   0  -6   1 1374.33 41.2412   2
   0   6  -1 1383.77 41.7294   2
   0  -6  -1 1345.33 33.0243   2
   0   6   1 1352.06 33.1331   2
   0  -6  -1 1434.46 45.8671   3
   0  -6  -2 20319.2 273.706   1
   0  -6  -2 19302.5 226.573   2
   0   6   2 19864.1 227.198   2
   0  -6   2 19653.0 260.165   2
   0   6  -2 20124.2 261.687   2
   0  -6  -2 19829.2 265.570   3
   0   6  -3 25099.2 328.616   2
   0  -6   3 25152.0 327.950   2
   0   6   3 25520.6 337.832   1
   0  -6  -3 25567.1 337.433   1
   0  -6  -3 25357.8 333.060   5
   0  -6  -3 25152.4 331.385   3
   0   6   3 25347.3 332.017   3
   0   6  -4 763.090 40.0339   2
   0  -6   4 744.207 39.2615   2
   0   6   4 728.056 41.1583   1
   0  -6  -4 703.833 40.1615   1
   0  -6  -4 663.085 36.8388   5
   0   6  -4 742.190 27.9304   4
   0   6   4 740.258 39.2516   3
   0  -6  -4 691.158 38.9404   3
   0  -6   5 7190.80 138.653   2
   0   6  -5 7195.37 139.868   2
   0   6   5 7368.27 143.484   1
   0  -6  -5 7615.95 145.008   1
   0  -6  -5 7197.39 137.681   5
   0   6  -5 7006.64 110.715   4
   0   6   5 7619.61 143.919   3
   0  -6  -5 7383.85 141.004   3
   0   6  -6 88.7447 22.1559   2
   0  -6  -6 79.9199 23.0601   1
   0  -6  -6 106.568 22.1125   5
   0   6   6 83.8690 24.5966   5
   0   6  -6 103.983 13.3959   4
   0   6  -7 951.933 50.7482   2
   0   6   7 881.202 20.6939   2
   0  -6  -7 913.031 50.6422   1
   0  -6   7 868.943 32.5363   4
   0   6  -7 833.183 32.2637   4
   0   6   7 904.108 49.3217   5
   0   6   8 8245.46 111.008   2
   0   6  -8 8269.14 169.527   2
   0  -6  -8 8477.66 171.548   1
   0   6   8 8252.63 165.089   5
   0  -6   8 8238.89 130.761   4
   0   6  -8 8033.72 130.061   4
   0   6  -9 24023.6 356.694   2
   0   6   9 22989.7 280.955   2
   0  -6  -9 23854.9 357.481   1
   0  -6   9 23289.8 301.981   4
   0   6   9 23315.7 349.183   5
   0   6  -9 23494.7 302.667   4
   0   6 -10 55.0391 23.2745   2
   0   6  10 14.2591 14.0997   2
   0  -6 -10 12.1591 22.4854   1
   0   6  10 18.6640 23.6992   5
   0  -6  10 12.8080 12.5184   4
   0   6 -10 13.6948 11.6262   4
   0   6  11 37490.7 454.934   2
   0   6 -11 38236.0 534.749   2
   0  -6 -11 38295.4 536.659   1
   0  -6  11 37945.1 471.578   4
   0   6  11 38522.9 531.125   5
   0   6 -11 38691.0 473.859   4
   0   6 -12 1171.48 69.0016   2
   0  -6 -12 1264.14 45.8175   2
   0   6  12 1098.69 42.3767   2
   0  -6 -12 1200.35 69.4582   1
   0  -6  12 1150.71 48.8008   4
   0   6  12 1171.30 68.5605   5
   0   6 -12 1100.64 47.9661   4
   0   6 -13 2543.92 105.993   2
   0  -6 -13 2631.72 72.0957   2
   0  -6 -13 2409.87 103.522   1
   0   6  13 2487.37 102.446   5
   0   6 -13 2571.21 77.2580   4
   0   6 -14 279.814 43.1160   2
   0  -6 -14 199.623 41.5095   1
   0   6  14 226.813 41.4177   5
   0   6 -14 212.938 25.6407   4
   0   6 -15 4695.66 155.565   2
   0   6  15 4606.40 151.114   5
   0  -6 -15 4673.57 155.214   1
   0   6 -16 41.4499 34.3984   2
   0   6  16 1.45275 32.5362   5
   0  -6 -16-18.7413 33.5431   1
   0   6 -17 7762.12 215.861   2
   0   6  17 7182.21 206.627   5
   0  -6 -17 7507.64 217.675   1
   0   6 -18 663.402 66.8761   2
   0   6  18 785.318 74.6778   5
   0  -6 -18 796.202 75.8586   1
   0   6 -19 6961.47 217.581   2
   0   6  19 6680.99 212.567   5
   0  -6 -19 6896.07 217.326   1
   0   8   0 550.355 27.3596   2
   0  -8   0 531.467 26.3591   2
   0  -8  -1 13991.0 221.128   1
   0  -8   1 13905.4 198.752   2
   0   8  -1 14123.3 200.203   2
   0  -8  -1 13377.9 182.085   2
   0   8   1 13936.5 184.283   2
   0  -8  -1 13876.2 209.251   3
   0  -8  -2 9514.12 170.565   1
   0   8   2 9276.45 126.169   2
   0  -8  -2 8980.22 124.806   2
   0  -8   2 9442.14 154.155   2
   0   8  -2 9469.06 155.512   2
   0  -8  -2 9297.91 160.879   3
   0  -8  -3 81183.5 943.156   1
   0  -8   3 81981.9 926.948   2
   0   8   3 78735.1 867.487   2
   0   8  -3 82145.2 927.815   2
   0  -8  -3 81324.1 934.098   3
   0  -8   4 1827.57 64.4345   2
   0   8  -4 1842.43 65.3789   2
   0  -8  -4 1666.67 66.0334   1
   0   8  -4 1685.26 49.6461   4
   0   8   4 1755.83 65.6800   3
   0  -8  -4 1715.78 64.7020   3
   0   8  -5 1107.39 53.1949   2
   0  -8  -5 1122.95 56.7126   1
   0   8  -5 1061.75 37.6007   4
   0  -8  -5 1087.68 53.9620   3
   0   8  -6 12098.3 213.371   2
   0  -8  -6 12439.9 219.975   1
   0   8  -6 11999.8 174.575   4
   0  -8  -6 12185.4 215.151   3
   0   8  -7 3440.22 102.871   2
   0   8  -7 3436.12 73.7436   4
   0  -8  -7 3538.71 107.046   1
   0   8  -8 20788.5 323.150   2
   0  -8  -8 20500.9 323.709   1
   0   8   8 20079.8 316.616   5
   0   8  -8 19693.0 264.301   4
   0   8  -9 5809.62 148.629   2
   0  -8  -9 5690.75 149.050   1
   0   8   9 5602.35 142.877   5
   0   8  -9 5692.38 105.690   4
   0   8 -10 264.447 35.8281   2
   0  -8 -10 264.563 38.4681   1
   0   8  10 352.883 42.1987   5
   0   8 -10 335.431 24.7618   4
   0   8 -11 19393.4 333.348   2
   0  -8 -11 18941.3 331.920   1
   0   8  11 19239.9 324.118   5
   0  -8  11 18492.4 261.312   4
   0   8 -11 18986.1 263.525   4
   0   8 -12 171.334 35.3981   2
   0  -8 -12 184.630 36.6241   1
   0   8  12 226.778 41.5554   5
   0   8 -12 166.044 19.9801   4
   0   8 -13 3241.94 124.625   2
   0  -8 -13 2871.23 116.939   1
   0   8  13 3021.94 117.130   5
   0   8 -13 3249.24 84.1323   4
   0   8 -14 6132.04 181.044   2
   0   8  14 5894.36 172.840   5
   0  -8 -14 5981.48 178.060   1
   0   8 -15 272.323 45.6025   2
   0   8  15 187.494 42.2415   5
   0  -8 -15 242.611 46.8556   1
   0   8 -16 732.963 71.5275   2
   0   8  16 677.888 67.5293   5
   0  -8 -16 798.364 70.9685   1
   0   8 -17 3952.71 156.030   2
   0   8  17 3470.75 145.138   5
   0  -8 -17 3705.66 152.699   1
   0   8 -18 29.8339 36.2612   2
   0  -8 -18 71.2702 43.7042   1
   0   8  18 55.7088 42.2878   5
   0   8  19 837.908 80.4565   5
   0  10   0 89024.8 998.184   2
   0 -10   0 87373.2 995.951   2
   0 -10   0 88422.1 1020.95   3
   0 -10  -1 2986.13 93.7270   1
   0 -10   1 2980.84 76.7304   2
   0  10  -1 3105.08 78.4301   2
   0 -10  -1 2924.39 66.7656   2
   0  10   1 3122.88 69.2371   2
   0 -10  -1 3021.84 85.7177   3
   0 -10  -2 555.341 44.8021   1
   0 -10  -2 512.250 24.5091   2
   0  10   2 558.337 25.8938   2
   0 -10   2 547.625 35.0868   2
   0  10  -2 520.557 35.4183   2
   0 -10  -2 556.009 39.7249   3
   0 -10  -3 21386.6 322.475   1
   0  10   3 20610.2 250.076   2
   0  10  -3 22105.0 306.123   2
   0 -10  -3 20843.2 310.554   3
   0 -10  -3 20645.1 249.616   2
   0 -10  -4 150.899 28.2888   1
   0  10  -4 189.565 26.9541   2
   0 -10  -4 142.151 24.9588   3
   0  10  -5 3090.72 94.5562   2
   0 -10  -5 2975.85 98.5617   1
   0  10  -5 2782.25 71.5728   4
   0 -10  -5 2874.25 93.6187   3
   0  10  -6 19336.9 304.834   2
   0 -10  -6 19077.9 311.086   1
   0  10  -6 18721.8 258.079   4
   0 -10  -6 18722.1 305.221   3
   0  10  -7 383.630 40.2438   2
   0 -10  -7 397.348 40.6717   1
   0  10  -7 364.628 25.6212   4
   0 -10  -7 382.927 39.3527   3
   0  10  -8 1156.02 65.6636   2
   0  10  -8 949.795 40.3838   4
   0 -10  -8 1037.76 63.8164   1
   0  10  -9 7082.87 174.664   2
   0 -10  -9 6911.33 175.619   1
   0  10  -9 7166.54 126.865   4
   0 -10 -10 1344.84 76.8922   1
   0  10 -10 1434.90 78.9088   2
   0  10 -10 1529.52 50.8314   4
   0 -10 -11 70.5320 30.7042   1
   0  10 -11 54.4563 27.4817   2
   0  10 -11 31.2229 13.8554   4
   0  10 -12 2448.81 108.931   2
   0 -10 -12 2446.74 108.889   1
   0  10 -13 4434.86 154.099   2
   0  10  13 4246.55 147.837   5
   0 -10 -13 4520.14 155.082   1
   0  10 -14 4811.73 166.171   2
   0  10  14 4463.08 156.440   5
   0 -10 -14 4536.77 161.276   1
   0  10 -15 1326.45 89.9522   2
   0  10  15 1318.84 89.3717   5
   0 -10 -15 1362.25 91.0978   1
   0  10 -16 756.711 73.6617   2
   0  10  16 690.423 72.1549   5
   0 -10 -16 745.688 72.9409   1
   0  10 -17 1751.20 111.112   2
   0 -10 -17 1554.69 102.508   1
   0  10  17 1681.62 105.132   5
   0  10  18 68.9199 44.2076   5
   0 -12   0 2098.48 84.5276   1
   0  12   0 2003.70 63.2832   2
   0 -12   0 1939.20 61.3326   2
   0 -12   0 2039.37 74.0091   3
   0 -12  -1 12539.9 236.373   1
   0  12   1 12857.5 190.981   2
   0  12  -1 12593.8 204.633   2
   0 -12   1 12663.1 203.319   2
   0 -12  -1 12013.8 186.327   2
   0 -12  -1 12586.1 220.784   3
   0 -12  -2 4700.64 131.105   1
   0 -12  -2 4399.60 87.1273   2
   0  12   2 4764.19 90.5073   2
   0  12  -2 4746.37 113.040   2
   0 -12  -2 4796.68 122.168   3
   0 -12  -3 11216.9 224.306   1
   0  12   3 11473.6 158.098   2
   0  12  -3 11250.1 203.148   2
   0 -12  -3 11180.2 211.637   3
   0 -12  -4 63.7597 27.5392   1
   0  12  -4 80.4798 23.7537   2
   0 -12  -4 86.4011 24.0049   3
   0  12  -5 16459.2 279.261   2
   0 -12  -5 16761.5 297.014   1
   0  12  -5 16874.3 248.924   4
   0 -12  -5 16381.3 285.421   3
   0  12  -6 4358.22 126.190   2
   0 -12  -6 4475.55 135.506   1
   0  12  -6 4460.54 100.673   4
   0 -12  -6 4286.83 128.641   3
   0  12  -7 213.743 35.1577   2
   0 -12  -7 167.476 35.2841   1
   0  12  -7 218.201 23.5531   4
   0 -12  -7 210.468 35.9639   3
   0  12  -8 1632.83 81.8767   2
   0  12  -8 1719.05 57.4091   4
   0 -12  -8 1712.05 86.9744   1
   0  12  -9 790.071 61.7944   2
   0  12  -9 696.330 36.6389   4
   0 -12  -9 777.636 63.6126   1
   0  12 -10 391.413 47.4098   2
   0  12 -10 423.688 29.4015   4
   0 -12 -10 327.048 46.6059   1
   0 -12 -11 6421.92 187.988   1
   0  12 -11 6788.13 190.695   2
   0 -12 -12 96.4007 37.6538   1
   0  12 -12 182.486 39.9032   2
   0 -12 -13 12.0819 31.5197   1
   0  12 -13-2.21998 32.2120   2
   0 -12 -14 1043.73 82.1402   1
   0  12 -14 1268.29 89.0306   2
   0 -12 -15 6.73317 35.1553   1
   0  12 -15-3.32433 37.1075   2
   0 -12 -16 2347.07 125.719   1
   0 -14   0 1172.15 71.8865   1
   0  14   0 1194.46 53.9898   2
   0 -14   0 1094.97 51.2293   2
   0 -14   0 1278.18 65.5024   3
   0 -14  -1-2.61221 28.1313   1
   0  14   1 49.9272 17.1386   2
   0  14  -1 13.3134 17.1399   2
   0 -14  -1-10.9501 15.1148   2
   0 -14   1 15.8696 22.5410   3
   0 -14  -1 16.4782 21.3239   3
   0 -14  -2 11486.3 239.106   1
   0  14   2 11412.8 175.254   2
   0  14  -2 11548.5 208.346   2
   0 -14  -2 11289.3 219.709   3
   0 -14  -2 10648.7 171.448   2
   0 -14  -3 45.7146 31.3257   1
   0  14  -3 34.1327 20.3800   2
   0  14   3 35.3823 12.6772   2
   0 -14  -3 78.1570 27.6300   3
   0 -14  -4 99.0587 31.9686   1
   0  14  -4 138.266 29.3318   2
   0 -14  -4 84.5445 29.9161   3
   0  14  -5 21.3704 23.4324   2
   0 -14  -5-22.8600 31.5859   1
   0  14  -5 17.3024 21.1409   4
   0 -14  -5-21.8778 25.0096   3
   0  14  -6 13739.4 263.039   2
   0 -14  -6 13470.3 276.523   1
   0  14  -6 13356.4 221.105   4
   0 -14  -6 13589.9 267.308   3
   0  14  -7 10.7784 25.5010   2
   0 -14  -7-20.1766 28.8684   1
   0  14  -7 56.0320 19.3029   4
   0 -14  -7 12.9609 26.1161   3
   0  14  -8 7805.88 196.453   2
   0 -14  -8 7754.79 204.771   1
   0  14  -8 7208.98 142.984   4
   0 -14  -8 7371.19 193.104   3
   0 -14  -9 20.0281 32.4545   1
   0  14  -9 77.3193 36.4073   2
   0 -14 -10 4234.42 153.934   1
   0  14 -10 4536.67 155.319   2
   0 -14 -11 650.154 66.4449   1
   0  14 -11 686.891 64.9294   2
   0 -14 -12 1935.42 110.255   1
   0  14 -12 2090.02 112.247   2
   0 -14 -13 1040.32 86.3669   1
   0  14 -13 1111.71 85.1604   2
   0 -14 -14 5898.65 203.079   1
   0  14 -14 6045.09 201.409   2
   0 -16   0 783.896 66.4718   1
   0  16   0 799.338 47.6108   2
   0 -16   0 752.569 56.0776   3
   0 -16   1 877.621 67.4182   1
   0 -16  -1 875.215 68.3467   1
   0  16   1 903.520 46.0324   2
   0  16  -1 962.989 54.2961   2
   0 -16  -1 940.830 61.5894   3
   0 -16   1 969.701 60.0847   3
   0 -16  -2 605.643 62.0541   1
   0  16   2 518.445 33.2208   2
   0  16  -2 527.707 42.4831   2
   0 -16  -2 561.313 51.1907   3
   0 -16   2 554.120 46.8244   3
   0 -16  -3 3914.17 140.571   1
   0  16  -3 4055.33 121.940   2
   0 -16  -3 4026.91 131.102   3
   0 -16  -4 722.037 65.9063   1
   0  16  -4 655.719 53.5050   2
   0 -16  -4 671.876 57.9108   3
   0  16  -5 4350.50 136.077   2
   0 -16  -5 4433.58 152.681   1
   0  16  -5 4225.76 116.831   4
   0 -16  -5 4458.95 143.307   3
   0  16  -6 1400.28 79.6461   2
   0 -16  -6 1359.01 85.5654   1
   0  16  -6 1432.83 63.8506   4
   0 -16  -6 1438.38 82.6353   3
   0 -16  -7 389.503 51.4996   1
   0  16  -7 393.823 49.8764   2
   0 -16  -7 372.999 49.6764   3
   0 -16  -8 114.775 42.4247   1
   0  16  -8 166.760 41.2690   2
   0 -16  -9 3046.65 135.663   1
   0  16  -9 3316.62 133.376   2
   0 -16 -10 260.353 54.2984   1
   0  16 -10 208.001 43.5286   2
   0 -16 -11 2992.73 141.587   1
   0  16 -11 3329.27 142.339   2
   0 -16 -12 1254.86 94.2935   1
   0  16 -12 1241.33 92.1084   2
   0 -18   0 4585.43 161.759   1
   0 -18   0 4398.11 140.092   3
   0 -18  -1 225.645 48.9799   1
   0 -18   1 184.090 43.4680   1
   0  18  -1 206.757 32.7498   2
   0 -18   1 167.433 34.0824   3
   0 -18  -1 147.332 35.9516   3
   0 -18  -2 4217.25 155.921   1
   0 -18   2 4496.07 157.759   1
   0  18  -2 4281.96 128.275   2
   0 -18   2 4088.36 131.874   3
   0 -18  -2 4146.50 139.150   3
   0 -18  -3 660.017 67.7402   1
   0  18  -3 662.459 53.9748   2
   0 -18   3 733.334 57.9899   3
   0 -18  -3 602.416 58.6371   3
   0 -18  -4 66.1799 37.0301   1
   0  18  -4 149.403 33.9672   2
   0 -18  -4 139.477 41.8666   3
   0 -18   4 77.2533 30.4954   3
   0 -18  -5 74.5134 40.1851   1
   0  18  -5 76.4957 33.0603   2
   0 -18  -5 59.7468 32.7580   3
   0 -18  -6 4209.73 161.221   1
   0  18  -6 4192.92 144.331   2
   0 -18  -6 4146.31 150.258   3
   0 -18  -7 1205.12 88.4097   1
   0  18  -7 1108.53 79.1399   2
   0 -18  -7 1037.59 78.0668   3
   0 -18  -8 6190.43 203.896   1
   0  18  -8 5700.68 182.536   2
   0 -18  -9 62.4626 39.6034   1
   0  18  -9 102.038 40.0558   2
   0 -18 -10 25.9667 39.5814   1
   0  18 -10 2.93887 34.0757   2
   0  18 -11 242.506 52.4093   2
   0 -20   0 158.427 48.6440   1
   0 -20   0 63.7961 33.1438   3
   0 -20  -1 462.505 65.4707   1
   0 -20   1 341.302 56.9698   1
   0 -20   1 433.798 51.8064   3
   0 -20  -1 410.996 51.6824   3
   0 -20   2 156.015 45.5132   1
   0 -20  -2 145.104 44.9023   1
   0 -20   2 166.826 38.3535   3
   0 -20  -2 138.365 40.2492   3
   0 -20  -3 5291.64 187.744   1
   0 -20   3 5188.55 185.481   1
   0 -20  -3 5145.70 167.708   3
   0 -20  -4 576.090 68.3939   1
   0 -20   4 672.033 74.7485   1
   0  20  -4 566.555 56.9008   2
   0 -20  -4 516.979 59.0799   3
   0 -20  -5 1629.62 107.006   1
   0  20  -5 1475.46 87.3515   2
   0 -20  -5 1404.76 91.8180   3
   0 -20  -6 109.565 49.5819   1
   0  20  -6 138.246 39.6143   2
   0 -20  -6 62.6933 38.2444   3
   0  20  -7 214.937 49.1519   2
   0 -20  -7 225.462 50.6595   3
   0  20  -8 6.18006 34.9617   2
   0  20  -9 3411.82 149.931   2
   0 -22  -3 5.52084 34.0169   3
   0 -22  -4 927.100 77.9047   3
   0 -22  -5 1602.93 103.416   3
   0 -22  -6 1023.82 84.4161   3
   1   1 -21 963.310 81.5476   2
   1   1 -20 1328.47 87.8283   2
  -1  -1  20 1300.79 93.9427   5
  -1   1  20 1389.09 96.2296   5
   1  -1 -19 3281.57 124.819   2
   1   1 -19 3273.78 130.127   2
  -1   1  19 3221.77 141.230   5
  -1  -1  19 3249.91 139.359   5
   1   1 -18 4596.92 150.142   2
   1  -1 -18 4658.98 143.507   2
  -1   1  18 4295.03 156.741   5
   1  -1 -17 73.5350 27.6447   2
   1   1 -17 119.468 32.8774   2
  -1   1  17 112.526 40.9334   5
   1   1 -16 5070.90 147.587   2
   1  -1 -16 5114.79 140.858   2
  -1   1  16 4875.18 154.339   5
   1  -1 -15 2686.01 95.7836   2
   1   1 -15 2700.10 102.121   2
  -1   1  15 2585.23 107.367   5
   1   1 -14 824.064 55.4070   2
   1  -1 -14 759.140 48.8008   2
  -1   1  14 870.623 60.5366   5
   1  -1 -14 720.828 57.1315   1
   1  -1 -13 8275.62 187.186   1
   1   1 -13 7903.15 173.217   2
   1  -1 -13 8393.21 169.125   2
   1  -1 -12 8831.90 188.934   1
   1   1 -12 8977.35 178.954   2
   1  -1 -12 8921.10 170.014   2
   1  -1 -11 4879.23 125.559   1
   1  -1 -11 4727.90 110.171   2
   1   1 -11 4647.67 115.950   2
  -1   1  11 4554.16 108.572   2
  -1  -1  11 4682.76 106.214   4
   1  -1 -10 1357.81 61.4687   1
  -1   1  10 1378.12 52.8255   2
   1   1 -10 1352.40 57.1840   2
   1  -1 -10 1367.95 53.3025   2
  -1  -1  10 1309.77 49.6545   4
  -1   1  10 1371.09 54.5901   4
   1  -1  -9 438.309 34.9539   1
  -1  -1   9 426.735 30.7353   2
  -1   1   9 438.107 28.6757   2
   1   1  -9 402.727 31.2338   2
   1  -1  -9 459.104 30.5588   2
  -1   1   9 447.958 30.6655   4
  -1  -1   9 457.166 27.6179   4
  -1  -1   8 3947.51 95.9415   1
   1  -1  -8 3894.24 96.0768   1
  -1   1   8 4014.57 97.2905   1
  -1  -1   8 3905.48 91.2584   2
  -1   1   8 3858.14 83.9332   2
   1   1  -8 3754.90 89.6486   2
   1  -1  -8 3814.96 83.5687   2
  -1  -1   8 3809.92 80.7753   4
  -1   1   8 3862.73 87.6088   4
   1  -1  -7 38414.7 473.676   1
  -1   1   7 38871.1 475.484   1
  -1  -1   7 39083.9 474.523   1
  -1   1   7 37716.8 453.300   2
  -1  -1   7 37479.9 464.570   2
   1   1  -7 37525.2 464.086   2
   1  -1  -7 37471.3 452.094   2
  -1   1   7 38255.9 461.083   4
  -1  -1   7 37966.7 448.778   4
   1  -1  -6 13133.9 193.750   1
  -1  -1   6 13250.0 192.834   1
  -1   1   6 13397.9 194.840   1
   1   1  -6 13091.6 188.007   2
   1  -1  -6 12851.1 176.715   2
  -1  -1   6 12900.4 187.149   2
  -1   1   6 12919.7 177.700   2
  -1  -1   6 13159.6 174.424   4
  -1   1   6 13028.9 184.504   4
   1  -1  -5 2199.61 56.9995   1
  -1  -1   5 2169.93 55.9305   1
  -1   1   5 2138.49 56.2607   1
  -1  -1   5 2132.57 53.3304   2
   1   1  -5 2206.69 54.1957   2
   1  -1  -5 2166.05 47.0488   2
  -1   1   5 2167.82 47.5132   2
   1   1  -5 2128.76 44.2690   4
  -1   1   5 2112.26 50.7608   4
  -1  -1   5 2167.87 44.8960   4
  -1   1   4 18741.5 238.362   1
  -1  -1   4 19220.1 238.462   1
   1  -1  -4 18682.1 237.881   1
   1   1  -4 18925.0 235.498   2
   1  -1  -4 18836.2 223.796   2
  -1  -1   4 18908.9 235.608   2
  -1   1   4 18713.1 223.898   2
  -1  -1   4 18743.7 219.605   4
   1   1  -4 18583.7 219.363   4
  -1   1   3 668.239 18.2767   2
   1   1  -3 656.938 23.5963   2
  -1  -1   3 641.066 23.6942   2
   1  -1  -3 669.779 18.5739   2
  -1   1   3 676.708 25.1398   5
   1  -1  -3 613.814 23.3795   1
  -1   1   3 674.967 24.7557   1
   1   1  -2 53809.7 588.192   2
  -1  -1   2 53259.8 588.143   2
   1  -1  -2 54070.4 588.135   1
  -1   1   2 52590.6 587.972   1
  -1   1   2 53345.9 588.569   5
   1  -1  -2 53886.2 588.578   5
  -1   1  -1 8729.44 111.448   2
   1  -1   1 8495.96 111.387   2
   1   1   1 8707.45 109.137   1
  -1  -1  -1 8545.69 108.302   1
   1  -1   1 8594.03 108.044   4
  -1   1  -1 8269.46 107.543   4
   1   1   1 8550.69 104.588   5
  -1  -1  -1 8533.91 104.804   5
   1   1   1 8596.29 111.364   3
   1   1   1 8674.27 111.687   4
  -1  -1  -1 8587.47 110.929   3
  -1  -1  -1 8822.26 111.678   4
  -1  -1  -2 159029. 1702.98   2
   1   1   2 157738. 1702.79   2
  -1   1  -2 158582. 1713.71   2
   1  -1   2 159704. 1713.50   2
   1   1   2 160372. 1711.31   1
  -1  -1  -2 159181. 1710.70   1
   1  -1   2 160402. 1706.91   1
  -1   1  -2 158355. 1707.89   4
   1  -1   2 158911. 1707.80   4
   1   1   2 159904. 1707.08   5
  -1  -1  -2 158395. 1714.20   4
  -1  -1  -2 159881. 1713.51   3
   1   1   2 156968. 1714.81   4
   1   1   2 158325. 1713.57   3
  -1   1  -3 14507.5 187.874   2
   1  -1   3 14226.1 187.102   2
   1   1   3 14067.8 176.753   2
  -1  -1  -3 14074.6 177.252   2
  -1  -1  -3 14305.3 186.063   1
   1   1   3 14646.7 186.596   1
   1  -1   3 14194.9 182.286   1
   1  -1   3 14321.9 181.707   4
   1   1   3 14460.2 188.485   4
  -1   1  -3 14203.8 181.030   4
   1   1   3 14218.3 188.066   3
  -1  -1  -3 14521.5 188.033   4
  -1  -1  -4 52942.0 608.231   1
   1  -1   4 53234.6 604.955   1
   1   1   4 53249.3 608.724   1
  -1  -1  -4 52937.8 596.960   2
  -1   1  -4 52746.5 608.724   2
   1   1   4 52382.4 596.534   2
   1  -1   4 52584.0 608.227   2
  -1  -1  -4 54102.1 610.302   4
   1  -1   4 53099.4 601.449   4
   1   1   4 52383.9 610.474   3
  -1   1  -4 53121.8 600.957   4
   1   1   4 53688.7 609.447   4
   1  -1   5 21291.8 272.903   1
   1   1   5 21456.4 276.868   1
  -1  -1  -5 21038.4 275.196   1
  -1  -1  -5 20808.9 263.583   2
  -1   1  -5 20840.2 274.508   2
   1   1   5 20874.3 263.334   2
   1  -1   5 20809.8 273.314   2
   1  -1   5 20716.5 266.815   4
   1   1   5 21192.6 274.820   4
   1   1   5 21013.9 276.994   3
  -1   1  -5 20707.4 267.043   4
  -1  -1  -5 20690.0 274.314   4
  -1  -1  -6 454.638 30.6742   1
   1   1   6 450.693 28.9868   1
   1  -1   6 478.737 28.7187   1
   1  -1   6 453.089 28.9234   2
  -1   1  -6 517.259 31.3568   2
  -1  -1  -6 414.027 25.8811   2
   1   1   6 454.653 26.1018   2
  -1   1  -6 381.525 25.7113   4
  -1  -1  -6 410.251 28.1234   4
   1   1   6 423.726 29.1282   3
   1  -1   6 418.015 26.3167   4
   1   1   6 493.507 29.2816   4
  -1  -1  -7 71663.6 852.152   1
   1  -1   7 73946.9 851.078   1
   1   1   7 75764.6 855.383   1
  -1   1  -7 72427.3 848.800   2
   1   1   7 73718.2 855.642   3
  -1   1  -7 71859.3 838.614   4
   1   1   7 74167.5 849.922   4
   1  -1   7 73044.3 840.050   4
  -1  -1  -7 71843.5 848.114   4
  -1  -1  -8 4973.83 115.276   1
   1  -1   8 5514.45 117.113   1
   1   1   8 5393.21 118.134   1
  -1   1  -8 5129.75 113.415   2
   1  -1   8 5156.73 112.595   2
  -1  -1  -8 5090.23 105.808   2
   1   1   8 5070.09 105.135   2
  -1  -1  -8 5047.21 112.366   4
  -1   1  -8 5016.51 106.309   4
   1   1   8 4950.28 111.118   4
   1  -1   8 5060.10 107.215   4
  -1  -1  -9 993.102 52.0833   1
  -1   1  -9 999.320 50.1086   2
  -1  -1  -9 1004.12 45.5894   2
   1   1   9 950.873 44.5116   2
   1  -1   9 1037.99 47.5188   4
  -1   1  -9 963.707 46.1272   4
  -1  -1 -10 41177.1 543.880   1
  -1  -1 -10 41432.7 525.738   2
  -1   1 -10 41394.4 537.100   2
  -1   1 -10 41501.5 527.226   4
  -1  -1 -11 1171.32 61.2998   1
  -1   1 -11 1140.27 57.6771   2
  -1  -1 -11 1187.06 55.3254   2
  -1   1 -11 1151.47 54.9514   4
  -1  -1 -12 5488.67 132.518   2
  -1   1 -12 5387.97 137.876   2
  -1  -1 -12 5575.47 145.198   1
  -1   1 -13 3006.54 103.848   2
  -1  -1 -13 3178.25 100.475   2
   1   1  13 2864.90 105.092   5
  -1  -1 -13 2907.36 106.742   1
  -1  -1 -14 28.3938 22.5265   2
  -1   1 -14 63.5253 30.4935   2
   1   1  14-10.5962 28.4592   5
  -1  -1 -14 55.5885 27.5855   1
  -1   1 -15 2260.23 97.4882   2
  -1  -1 -15 2427.76 95.6139   2
   1   1  15 2031.01 97.1106   5
  -1  -1 -16 2564.76 103.254   2
  -1   1 -16 2695.69 110.740   2
   1   1  16 2607.26 113.396   5
  -1  -1 -17 31.9446 25.7599   2
  -1   1 -17 21.0443 28.2748   2
   1   1  17 43.9628 34.0723   5
  -1   1 -18 1837.13 98.5110   2
  -1  -1 -18 1800.41 92.1020   2
   1  -1  18 1690.44 100.664   5
   1   1  18 1819.36 104.675   5
  -1   1 -19 1104.68 81.6714   2
   1   1  19 1005.22 83.5691   5
   1  -1  19 1030.14 82.7840   5
   1   1  20 13.4248 41.5227   5
  -1   1 -20 28.1817 39.5235   2
   1   3 -21 4619.25 172.454   2
   1   3 -20 277.766 50.3267   2
  -1   3  20 259.883 50.6089   5
   1   3 -19 3189.05 134.458   2
  -1   3  19 3224.07 141.476   5
   1   3 -18 3512.49 138.032   2
  -1   3  18 3871.83 149.108   5
   1  -3 -17 401.021 40.4480   2
   1   3 -17 417.347 50.3801   2
  -1   3  17 494.243 58.0432   5
   1  -3 -17 334.589 49.8437   1
   1   3 -16 2845.72 114.106   2
   1  -3 -16 2933.67 98.1699   2
  -1   3  16 2665.23 114.003   5
   1  -3 -16 2729.21 117.255   1
   1  -3 -15 339.321 34.6366   2
   1   3 -15 375.111 45.3540   2
  -1   3  15 258.184 42.1252   5
   1  -3 -15 329.505 44.9890   1
   1  -3 -14 395.245 35.3942   2
   1   3 -14 352.538 41.1538   2
  -1   3  14 431.263 47.4417   5
   1  -3 -14 469.207 48.6927   1
   1   3 -13 13622.9 251.611   2
   1  -3 -13 13893.1 224.360   2
  -1  -3  13 13211.4 217.982   4
  -1   3  13 13394.3 254.976   5
   1  -3 -13 13656.6 258.972   1
   1   3 -12 7936.90 172.427   2
   1  -3 -12 7875.62 148.263   2
  -1   3  12 7494.38 144.876   2
   1  -3 -12 7736.29 176.890   1
  -1   3  12 7809.27 174.779   5
  -1  -3  12 7733.90 144.276   4
  -1   3  11 24.2601 16.1883   2
   1  -3 -11 26.6374 15.4358   2
   1   3 -11 7.63636 20.0195   2
   1  -3 -11 48.8864 22.0545   1
  -1   3  11 49.6749 24.6989   5
  -1  -3  11 5.69645 13.2468   4
  -1   3  10 5122.34 102.336   2
   1  -3 -10 5232.84 103.590   2
   1   3 -10 5287.98 126.046   2
   1  -3 -10 5079.75 127.395   1
  -1  -3  10 5094.72 101.212   4
  -1   3  10 5131.35 126.328   5
   1   3 -10 5181.88 101.291   4
  -1   3   9 31816.7 393.421   2
   1  -3  -9 31748.4 393.681   2
   1   3  -9 32684.3 431.522   2
   1  -3  -9 32700.9 437.337   1
  -1  -3   9 31586.9 392.202   4
  -1   3   9 33233.9 434.794   5
   1   3  -9 32072.5 392.374   4
  -1   3   8 3159.98 67.1362   2
  -1  -3   8 3251.04 87.2665   2
   1  -3  -8 3164.87 67.2627   2
   1   3  -8 3169.09 86.5098   2
  -1  -3   8 3265.04 87.3647   1
   1  -3  -8 3278.18 89.4346   1
  -1   3   8 3139.12 87.8126   5
  -1  -3   8 3227.61 66.9865   4
  -1   3   8 3327.66 86.0418   4
   1   3  -8 3147.22 66.4773   4
  -1   3   7 30001.6 357.014   2
   1  -3  -7 30268.4 357.635   2
   1   3  -7 29927.9 392.142   2
  -1  -3   7 30766.5 393.494   2
   1  -3  -7 30102.9 394.754   1
  -1  -3   7 30396.3 392.994   1
  -1   3   7 31524.1 398.975   1
  -1  -3   7 29022.0 354.820   4
  -1   3   7 30582.3 395.174   5
   1   3  -7 29480.5 355.811   4
  -1   3   7 31811.6 392.392   4
  -1   3   7 31055.6 398.583   3
  -1   3   6 237.167 14.8139   2
  -1  -3   6 257.150 24.3597   2
   1  -3  -6 258.677 15.2491   2
   1   3  -6 295.789 26.5120   2
   1  -3  -6 269.056 26.0170   1
  -1   3   6 300.860 26.0933   1
  -1   3   6 253.638 24.7391   5
  -1  -3   6 258.733 15.3709   4
  -1   3   6 312.064 26.4283   3
   1   3  -6 265.616 15.3817   4
  -1   3   5 5460.08 76.5582   2
  -1  -3   5 5612.81 103.954   2
   1  -3  -5 5438.20 76.5214   2
   1   3  -5 5419.47 103.232   2
  -1   3   5 5614.64 105.158   1
   1  -3  -5 5546.79 104.637   1
  -1  -3   5 5375.92 76.9984   4
  -1   3   5 5493.97 104.177   5
   1  -3  -5 5616.55 103.794   5
   1   3  -5 5326.90 77.0352   4
  -1   3   5 5694.08 105.524   3
   1   3  -4 28482.3 340.980   2
  -1  -3   4 27668.3 339.451   2
   1  -3  -4 27560.8 303.966   2
   1  -3  -4 27394.0 341.204   1
  -1   3   4 28232.7 342.295   1
   1   3  -4 26595.6 305.964   4
  -1   3   4 27978.7 341.364   5
   1  -3  -4 28043.7 340.485   5
  -1  -3   4 27360.3 306.158   4
  -1   3   4 27706.6 340.129   3
  -1   3   4 27415.9 303.968   2
  -1  -3   3 34368.4 398.165   2
   1   3  -3 34305.0 398.224   2
  -1   3   3 33404.1 399.019   1
   1  -3  -3 32856.4 399.228   1
   1  -3  -3 33506.5 399.013   5
  -1   3   3 33420.2 399.222   5
  -1  -3   2 1297.44 35.5377   2
   1   3  -2 1317.97 35.3983   2
   1  -3  -2 1239.65 36.0013   1
  -1   3   2 1248.20 36.6029   1
   1  -3  -2 1305.51 37.7905   5
   1  -3  -2 1233.55 33.8415   3
  -1   3   2 1253.16 34.1609   3
   1  -3  -1 196107. 2099.16   1
  -1  -3   1 198574. 2093.34   2
   1   3  -1 201887. 2093.63   2
   1  -3  -1 190436. 2083.25   2
  -1   3   1 195632. 2083.76   2
   1  -3  -1 194662. 2090.80   3
  -1   3   1 192751. 2091.04   3
   1   3   0 16102.3 188.131   2
   1  -3   0 15971.9 193.939   2
  -1  -3   0 16219.8 188.458   2
   1   3   1 146349. 1574.35   1
  -1  -3  -1 148916. 1575.13   1
   1  -3   1 144071. 1569.41   2
  -1   3  -1 143722. 1569.83   2
  -1  -3  -1 142716. 1573.99   3
   1  -3   2 1247.70 38.6212   2
  -1   3  -2 1319.37 39.2027   2
  -1  -3  -2 1339.95 40.3207   1
   1   3   2 1334.61 40.8443   1
  -1   3  -2 1245.44 32.2257   4
  -1  -3  -2 1314.61 37.2190   5
   1   3   2 1292.40 38.5371   5
   1  -3   2 1376.64 33.8897   4
  -1  -3  -2 1266.60 40.3793   3
   1   3   2 1333.11 40.9776   3
   1   3   2 1352.26 39.8773   4
  -1   3  -3 12943.4 182.436   2
   1   3   3 12570.9 152.187   2
   1  -3   3 13110.7 182.117   2
  -1  -3  -3 12852.4 181.826   1
   1   3   3 12920.6 182.542   1
   1   3   3 12862.8 176.217   5
  -1  -3  -3 13023.9 175.884   5
  -1   3  -3 12812.1 166.570   4
   1  -3   3 12803.2 166.396   4
   1   3   3 12993.5 184.145   3
   1   3   3 13091.3 183.435   4
  -1  -3  -3 13069.3 184.147   3
   1  -3   4 4836.19 94.3995   2
   1   3   4 4536.87 70.1095   2
  -1   3  -4 4655.92 93.6902   2
   1   3   4 4704.07 93.2014   1
  -1  -3  -4 4766.19 93.6556   1
   1   3   4 4684.92 88.9351   5
   1  -3   4 4622.06 79.9614   4
  -1   3  -4 4617.99 79.8981   4
  -1  -3  -4 4584.78 88.2726   5
   1   3   4 4978.34 97.4174   3
  -1  -3  -4 4651.17 95.0128   3
   1   3   4 4838.45 95.2578   4
   1  -3   5 19147.4 262.156   2
  -1   3  -5 18905.4 261.625   2
   1   3   5 18467.8 229.261   2
  -1  -3  -5 18529.5 230.094   2
   1   3   5 19462.7 261.983   1
  -1  -3  -5 18399.3 259.180   1
   1   3   5 18911.8 254.940   5
   1  -3   5 18612.6 240.043   4
   1   3   5 19526.8 263.653   4
  -1   3  -5 18545.4 240.326   4
   1   3   5 19061.8 264.595   3
  -1   3  -6 2718.20 75.9233   2
   1   3   6 2646.29 57.0567   2
   1  -3   6 2860.14 77.3602   2
  -1  -3  -6 2658.27 57.5693   2
   1   3   6 2786.13 76.0154   1
  -1  -3  -6 2557.34 74.2145   1
   1  -3   6 2732.00 70.9732   1
   1   3   6 2708.52 72.6409   5
   1  -3   6 2656.29 62.9593   4
   1   3   6 2733.08 75.3063   4
   1   3   6 2801.08 78.1598   3
  -1   3  -6 2544.43 61.8347   4
  -1   3  -7 52368.5 636.023   2
   1  -3   7 52932.5 635.956   2
   1   3   7 50882.4 597.770   2
  -1  -3  -7 50810.0 598.897   2
  -1  -3  -7 52060.1 633.722   1
   1  -3   7 53082.0 628.088   1
   1   3   7 53983.4 638.080   1
   1   3   7 51262.9 627.592   5
   1  -3   7 51606.7 608.446   4
  -1   3  -7 51398.5 608.369   4
   1   3   7 51848.9 640.199   3
   1   3   7 53161.7 635.865   4
   1   3   8 6876.11 120.027   2
  -1  -3  -8 6969.90 121.462   2
  -1   3  -8 7001.03 145.373   2
   1  -3   8 7274.44 141.593   1
  -1  -3  -8 7067.25 144.528   1
   1   3   8 7003.84 141.581   5
   1  -3   8 6937.20 126.490   4
  -1   3  -8 6862.65 126.546   4
  -1   3  -9 6007.28 137.347   2
   1   3   9 5823.10 112.189   2
  -1  -3  -9 5861.81 113.790   2
  -1  -3  -9 5616.23 133.650   1
   1  -3   9 5742.85 116.892   4
   1   3   9 5882.83 132.045   5
  -1   3  -9 5892.69 118.718   4
   1   3  10 3864.59 92.2995   2
  -1  -3 -10 4160.19 96.0769   2
  -1   3 -10 3927.73 112.516   2
  -1  -3 -10 3991.89 113.680   1
   1   3  10 4020.96 111.369   5
   1  -3  10 4018.01 97.5915   4
  -1   3 -10 4033.92 97.9635   4
   1   3  11 3784.52 96.6777   2
  -1  -3 -11 4175.49 101.193   2
  -1   3 -11 4143.42 119.346   2
  -1  -3 -11 4316.87 122.574   1
   1   3  11 4090.73 116.843   5
  -1   3 -11 4125.46 103.601   4
  -1  -3 -12 3402.60 94.5012   2
  -1   3 -12 3201.29 108.442   2
  -1  -3 -12 3156.64 108.831   1
   1   3  12 3285.26 108.810   5
  -1   3 -12 3326.79 95.6658   4
  -1   3 -13 4794.96 139.666   2
  -1  -3 -13 4820.15 120.287   2
  -1  -3 -13 4694.49 140.697   1
   1   3  13 4670.75 138.099   5
  -1   3 -13 4775.30 121.684   4
  -1  -3 -14 2144.04 80.9845   2
  -1   3 -14 2053.50 93.4766   2
   1   3  14 2100.10 95.0804   5
  -1  -3 -14 2216.04 98.5198   1
  -1   3 -15 1405.95 80.3580   2
  -1  -3 -15 1416.19 68.6411   2
   1   3  15 1402.20 82.0391   5
  -1  -3 -15 1296.67 79.5721   1
  -1  -3 -16 6263.20 157.257   2
  -1   3 -16 6154.53 178.089   2
   1   3  16 6134.76 180.318   5
  -1  -3 -16 6410.10 185.033   1
  -1   3 -17 1589.19 92.4793   2
  -1  -3 -17 1760.08 82.9705   2
   1   3  17 1544.30 93.4842   5
  -1  -3 -17 1816.87 101.910   1
  -1   3 -18 1597.33 96.8789   2
   1   3  18 1678.70 101.026   5
  -1   3 -19 403.875 60.6881   2
   1   3  19 357.294 59.4862   5
  -1   3 -20 390.334 58.6104   2
   1   5 -20 796.481 76.3451   2
  -1   5  20 779.330 78.6542   5
   1   5 -19 103.857 38.9577   2
  -1   5  19 150.618 46.7128   5
   1  -5 -19 103.109 45.3136   1
   1   5 -18 8612.15 231.044   2
  -1   5  18 8794.75 234.043   5
   1  -5 -18 8712.00 234.873   1
   1   5 -17 2896.18 124.201   2
  -1   5  17 2875.61 124.728   5
   1  -5 -17 3009.55 130.077   1
   1   5 -16 12453.8 269.924   2
  -1   5  16 11824.6 264.234   5
   1  -5 -16 12651.2 275.036   1
   1  -5 -15 3254.59 92.4706   2
   1   5 -15 3208.66 122.504   2
  -1   5  15 3005.07 119.185   5
   1  -5 -15 3243.46 124.349   1
   1  -5 -14 759.371 41.9585   2
   1   5 -14 691.774 57.5601   2
  -1   5  14 655.384 57.8906   5
   1  -5 -14 734.462 59.6060   1
   1  -5 -13 1703.44 58.7992   2
  -1   5  13 1404.90 54.0196   2
   1   5 -13 1617.64 80.5706   2
   1  -5 -13 1573.62 81.1174   1
  -1  -5  13 1566.95 57.2040   4
  -1   5  13 1468.41 78.3386   5
   1  -5 -12 35283.0 425.304   2
   1   5 -12 33592.6 484.591   2
  -1   5  12 32377.4 419.154   2
   1  -5 -12 33819.8 489.531   1
  -1   5  12 33820.6 484.459   5
  -1  -5  12 33115.2 423.407   4
   1   5 -12 34016.2 424.602   4
   1  -5 -11 603.434 31.0991   2
  -1   5  11 547.034 29.9303   2
   1   5 -11 589.462 46.2646   2
   1  -5 -11 575.874 46.8403   1
  -1  -5  11 592.255 31.1649   4
  -1   5  11 560.929 46.3229   5
   1   5 -11 613.810 31.8464   4
   1  -5 -10 22314.3 282.594   2
  -1   5  10 21770.9 280.426   2
   1   5 -10 22865.2 342.469   2
   1  -5 -10 22872.5 344.434   1
  -1   5  10 22250.3 337.583   5
  -1  -5  10 21930.0 285.939   4
   1   5 -10 21987.2 285.604   4
  -1   5   9 5873.29 95.9936   2
   1   5  -9 6068.47 139.185   2
   1  -5  -9 6016.14 97.3896   2
   1  -5  -9 5994.73 139.254   1
  -1   5   9 5997.11 136.971   5
  -1  -5   9 5918.10 101.509   4
   1   5  -9 6033.19 101.856   4
   1   5  -8 45.3350 21.2698   2
   1  -5  -8 45.7301 9.50784   2
  -1   5   8 16.5148 9.47236   2
   1  -5  -8 45.4607 21.1663   1
  -1   5   8 24.6893 22.4773   5
  -1  -5   8 36.0180 10.5370   4
   1   5  -8 23.5805 9.27231   4
   1  -5  -7 5270.40 76.1000   2
   1   5  -7 5441.72 119.966   2
   1  -5  -7 5676.56 122.992   1
  -1   5   7 5348.41 119.270   5
  -1  -5   7 5239.50 83.6226   4
   1  -5  -7 5313.76 118.039   5
   1   5  -7 5129.73 83.3491   4
  -1   5   7 5230.44 75.8132   2
   1  -5  -6 2494.44 38.5008   2
  -1  -5   6 2678.26 75.6595   2
   1   5  -6 2614.56 75.5239   2
  -1   5   6 2736.50 78.1045   1
   1  -5  -6 2446.38 75.1358   1
   1  -5  -6 2622.27 75.5817   5
  -1  -5   6 2446.72 47.8486   4
  -1   5   6 2536.61 75.0720   5
   1   5  -6 2432.62 47.8899   4
  -1   5   6 2634.78 76.4531   3
  -1  -5   5 2277.32 65.5541   2
   1   5  -5 2212.15 65.5359   2
   1  -5  -5 2223.11 67.9713   1
  -1   5   5 2112.59 66.8288   1
   1   5  -5 2006.37 40.6976   4
  -1   5   5 2227.57 67.0415   5
   1  -5  -5 2138.31 64.7384   5
  -1   5   5 2147.18 64.7978   3
  -1  -5   4 146472. 1585.46   2
  -1   5   4 145686. 1591.20   1
   1  -5  -4 146154. 1588.71   1
   1  -5  -4 143596. 1588.17   5
   1   5  -4 140463. 1544.81   4
   1  -5  -4 143208. 1584.69   3
  -1   5   4 145208. 1585.50   3
   1   5  -3 7465.20 124.096   2
  -1  -5   3 7664.85 125.473   2
   1  -5  -3 7470.91 127.848   1
  -1   5   3 7524.63 129.565   1
   1  -5  -3 7602.94 129.821   5
   1  -5  -3 7433.16 124.022   3
  -1   5   3 7493.98 125.233   3
  -1   5   2 701.311 33.0905   1
   1  -5  -2 679.264 32.9231   1
  -1   5   2 664.958 19.0926   2
   1   5  -2 651.637 28.6073   2
   1  -5  -2 644.789 18.3755   2
  -1  -5   2 660.841 29.1096   2
   1  -5  -2 654.946 28.5727   3
  -1   5   2 643.540 28.9731   3
   1  -5  -1 5001.27 92.5221   1
  -1   5   1 4797.38 74.9329   2
   1   5  -1 4948.93 82.4112   2
   1  -5  -1 4701.24 74.3010   2
  -1  -5   1 4694.72 81.4045   2
   1  -5  -1 4950.55 84.1727   3
   1  -5   0 624.536 25.2399   2
  -1   5   0 660.703 26.0682   2
   1   5   0 630.700 22.5929   2
  -1  -5   0 623.625 22.9030   2
  -1  -5  -1 13235.3 191.210   1
   1   5   1 13238.4 159.736   2
   1  -5   1 13218.9 180.393   2
  -1   5  -1 13381.6 181.202   2
  -1  -5  -1 12872.7 159.571   2
  -1  -5  -1 13312.5 188.386   3
   1   5   2 34988.8 384.754   2
  -1   5  -2 35517.2 423.616   2
   1  -5   2 35179.1 423.330   2
  -1  -5  -2 34686.3 429.999   1
   1   5   2 35292.0 431.318   1
  -1   5  -2 34464.4 409.989   4
  -1  -5  -2 35234.0 424.211   5
  -1  -5  -2 34912.1 428.536   3
   1  -5   3 1749.97 53.8776   2
  -1   5  -3 1643.40 53.1687   2
  -1  -5  -3 1592.31 53.8386   1
   1   5   3 1760.57 56.7730   1
  -1  -5  -3 1598.47 50.5833   5
  -1   5  -3 1649.71 43.3659   4
  -1  -5  -3 1639.66 54.3984   3
   1   5   3 1768.71 55.9079   3
  -1   5  -4 54530.0 641.752   2
   1   5   4 54871.7 643.343   1
  -1   5  -4 52794.9 611.772   4
  -1  -5  -4 53182.8 633.856   5
   1  -5   4 52628.2 610.909   4
   1   5   4 52646.9 633.987   5
   1   5   4 55663.7 646.511   3
   1   5   4 55817.3 644.367   4
   1  -5   5 135.762 21.4420   2
   1   5   5 120.063 9.31376   2
  -1   5  -5 152.698 22.9814   2
  -1  -5  -5 140.642 22.9904   1
   1   5   5 162.575 21.9167   1
  -1  -5  -5 128.643 21.0837   5
   1   5   5 178.754 26.5277   5
  -1   5  -5 141.286 16.0984   4
   1  -5   5 144.205 14.9058   4
  -1  -5  -5 145.234 22.6613   3
   1   5   5 124.498 21.0781   3
   1   5   5 160.072 23.2228   4
  -1   5  -6 20526.7 296.159   2
   1   5   6 20114.4 240.204   2
  -1  -5  -6 20388.3 295.740   1
   1   5   6 21197.3 298.506   1
  -1   5  -6 19948.8 262.837   4
   1   5   6 20308.0 287.288   5
  -1  -5  -6 20426.6 287.286   5
   1  -5   6 19947.8 262.351   4
  -1   5  -7 125.998 26.3151   2
   1   5   7 135.905 13.0061   2
  -1  -5  -7 129.882 24.0341   1
   1   5   7 162.667 25.8967   5
   1  -5   7 143.068 17.5287   4
  -1   5  -7 136.284 17.1089   4
   1   5   8 1256.36 38.1790   2
  -1   5  -8 1323.63 61.6904   2
  -1  -5  -8 1303.04 61.1078   1
   1  -5   8 1203.20 44.4969   4
   1   5   8 1251.21 57.7061   5
  -1   5  -8 1231.81 45.2893   4
   1   5   9 3761.74 77.5368   2
  -1   5  -9 4001.34 113.779   2
  -1  -5  -9 3777.11 110.074   1
   1  -5   9 3866.68 89.1936   4
   1   5   9 3875.88 107.820   5
  -1   5  -9 3982.43 90.5203   4
  -1   5 -10 42246.2 558.969   2
   1   5  10 39676.8 488.306   2
  -1  -5 -10 40093.0 550.939   1
   1  -5  10 40822.9 507.710   4
   1   5  10 40383.1 542.413   5
  -1   5 -10 41241.4 508.514   4
  -1   5 -11 1329.25 70.5069   2
   1   5  11 1155.08 46.3803   2
  -1  -5 -11 1289.36 48.4687   2
  -1  -5 -11 1181.62 66.8132   1
   1  -5  11 1269.62 54.3548   4
   1   5  11 1259.57 66.0626   5
  -1   5 -11 1232.45 52.5730   4
   1   5  12 1664.52 59.2528   2
  -1   5 -12 1687.52 81.8809   2
  -1  -5 -12 1766.99 61.0030   2
  -1  -5 -12 1770.71 84.9733   1
   1   5  12 1685.17 80.2161   5
  -1   5 -12 1610.18 63.1351   4
  -1  -5 -13 1923.33 67.4456   2
  -1   5 -13 2018.77 91.8189   2
  -1  -5 -13 1842.42 90.0115   1
   1   5  13 1858.42 87.6320   5
  -1   5 -13 1861.30 70.7471   4
  -1   5 -14 27.8535 26.2106   2
  -1  -5 -14 5.48074 28.7955   1
   1   5  14-15.2208 28.9008   5
  -1   5 -14 36.6843 20.7505   4
  -1   5 -15 968.452 71.8055   2
   1   5  15 944.827 69.7156   5
  -1  -5 -15 869.177 68.6308   1
  -1   5 -16 4600.02 157.810   2
   1   5  16 4596.41 154.859   5
  -1  -5 -16 4571.11 158.106   1
  -1   5 -17 248.061 47.7012   2
   1   5  17 202.989 47.5888   5
  -1  -5 -17 225.616 44.0559   1
  -1   5 -18 2524.59 125.928   2
   1   5  18 2530.41 123.360   5
  -1  -5 -18 2815.02 132.140   1
  -1   5 -19 1033.62 85.8083   2
   1   5  19 998.972 82.7686   5
  -1  -5 -19 1130.46 91.1082   1
   1   7 -19 371.933 57.1986   2
  -1   7  19 371.491 56.1099   5
   1  -7 -19 426.332 64.5329   1
   1   7 -18 69.8491 36.2081   2
  -1   7  18 76.5407 42.7575   5
   1  -7 -18 68.7625 39.3855   1
   1   7 -17 436.983 56.8221   2
  -1   7  17 406.740 56.9524   5
   1  -7 -17 568.129 61.9217   1
   1   7 -16 802.272 69.0120   2
  -1   7  16 793.743 69.4836   5
   1  -7 -16 828.042 71.5883   1
   1   7 -15 6128.85 180.533   2
  -1   7  15 5955.02 175.826   5
   1  -7 -15 5990.06 178.980   1
   1   7 -14 2009.85 97.5762   2
   1  -7 -14 1753.82 91.5877   1
  -1   7  14 1860.12 93.3523   5
   1   7 -13 8523.76 202.996   2
   1  -7 -13 8268.39 202.209   1
  -1   7  13 8152.18 197.705   5
   1   7 -13 8603.36 146.233   4
   1   7 -12 7118.02 177.813   2
   1  -7 -12 7448.17 181.745   1
  -1   7  12 7023.67 174.212   5
  -1  -7  12 6867.88 123.974   4
   1   7 -12 7287.90 126.281   4
   1   7 -11-4.60051 24.4943   2
   1  -7 -11 34.5585 25.3068   1
  -1  -7  11 38.2087 13.5648   4
  -1   7  11 3.33373 27.6242   5
   1   7 -11 35.8773 12.2344   4
   1   7 -10 410.906 41.0039   2
   1  -7 -10 368.398 39.8851   1
  -1   7  10 374.337 40.6654   5
  -1  -7  10 492.018 25.6327   4
   1   7 -10 454.745 24.7889   4
   1   7  -9 33502.3 461.394   2
   1  -7  -9 32221.8 458.950   1
  -1   7   9 32315.7 454.698   5
   1   7  -9 32457.0 388.961   4
   1   7  -8 2581.72 88.1002   2
   1  -7  -8 2589.04 88.4585   1
  -1   7   8 2600.51 87.6788   5
   1   7  -8 2576.44 55.8481   4
   1   7  -7 17146.9 264.502   2
   1   7  -7 15809.4 206.439   4
  -1   7   7 16360.2 262.000   5
   1  -7  -7 16655.0 264.185   1
   1   7  -6 4140.89 103.893   2
   1  -7  -6 4252.48 107.193   1
   1   7  -6 3858.92 70.0312   4
  -1  -7   5 2828.78 79.4457   2
   1   7  -5 2840.09 80.3920   2
   1  -7  -5 2714.26 81.7641   1
  -1   7   5 2801.01 83.4369   1
   1  -7  -5 2688.05 80.7902   5
   1   7  -5 2583.99 54.4731   4
  -1   7   5 2701.38 79.6363   3
   1  -7  -5 2690.73 79.0257   3
   1   7  -4 14231.8 218.439   2
  -1  -7   4 14719.6 220.279   2
   1  -7  -4 14460.1 226.379   1
  -1   7   4 14577.8 227.663   1
   1  -7  -4 14491.7 226.510   5
  -1   7   4 14670.6 222.691   3
   1  -7  -4 14358.2 220.127   3
   1  -7  -3 33676.9 429.192   1
   1   7  -3 33766.8 417.177   2
   1  -7  -3 32395.0 370.106   2
  -1  -7   3 34008.5 417.662   2
  -1   7   3 33858.4 419.936   3
   1  -7  -3 33899.8 418.796   3
   1  -7  -2 2988.71 78.8184   1
  -1  -7   2 2999.94 70.3827   2
  -1   7   2 2976.55 54.5862   2
   1  -7  -2 2868.59 53.3277   2
   1   7  -2 2976.69 70.7136   2
   1  -7  -2 3037.46 72.3110   3
   1  -7  -1 24355.9 325.273   1
  -1  -7   1 24365.6 304.169   2
   1   7  -1 24907.6 305.842   2
   1  -7  -1 23742.4 293.986   2
  -1   7   1 24121.6 295.374   2
   1  -7  -1 24465.5 311.435   3
   1   7   0 19295.0 237.865   2
  -1   7   0 18872.2 244.401   2
   1  -7   0 18371.5 242.201   2
  -1  -7   0 18245.6 235.622   2
  -1  -7  -1 36530.3 460.638   1
   1  -7   1 36364.9 439.913   2
   1   7   1 36322.4 415.738   2
  -1   7  -1 36830.1 440.992   2
  -1  -7  -1 36348.3 452.748   3
  -1  -7  -1 35641.3 415.562   2
  -1  -7  -2 1821.58 63.7623   1
   1   7   2 1809.22 36.3857   2
  -1   7  -2 1782.03 56.1420   2
   1  -7   2 1882.50 56.9849   2
  -1  -7  -2 1906.13 62.0002   3
   1  -7   3 2837.29 75.9576   2
   1   7   3 2825.67 42.0730   2
  -1   7  -3 2806.82 76.7966   2
  -1  -7  -3 2865.66 82.7271   1
   1   7   3 3039.53 84.6385   1
  -1   7  -3 2771.58 65.6914   4
  -1  -7  -3 2840.05 79.0183   5
  -1  -7  -3 2927.86 80.9434   3
  -1   7  -4 6435.17 130.794   2
   1  -7   4 6509.80 131.022   2
  -1  -7  -4 6555.40 136.418   1
   1   7   4 6715.16 138.226   1
  -1   7  -4 6407.14 111.094   4
  -1  -7  -4 6484.08 131.068   5
   1   7   4 6653.67 136.115   3
  -1  -7  -4 6356.81 133.604   3
  -1   7  -5 12656.2 209.786   2
  -1  -7  -5 12049.2 209.460   1
  -1   7  -5 12381.8 180.046   4
  -1  -7  -5 12413.9 204.354   5
  -1  -7  -5 12356.6 211.739   3
  -1   7  -6 484.471 38.2672   2
  -1  -7  -6 542.598 41.4715   1
  -1   7  -6 472.441 27.4296   4
  -1  -7  -6 509.868 39.3342   3
  -1   7  -7 42976.0 552.099   2
  -1  -7  -7 41943.4 550.452   1
   1   7   7 41675.4 539.622   5
  -1   7  -7 40794.7 499.612   4
  -1   7  -8 3811.64 112.314   2
   1   7   8 3739.82 58.1490   2
  -1  -7  -8 3721.59 111.001   1
   1  -7   8 3486.49 81.6663   4
   1   7   8 3572.92 104.903   5
  -1   7  -8 3687.76 83.7348   4
   1   7   9 11167.1 146.954   2
  -1   7  -9 11631.1 223.655   2
  -1  -7  -9 11074.4 219.062   1
   1  -7   9 10899.4 176.211   4
   1   7   9 11085.7 211.716   5
  -1   7  -9 11008.6 177.093   4
   1   7  10 59.2305 12.1320   2
  -1   7 -10 95.5708 29.6723   2
  -1  -7 -10 68.9419 27.5785   1
   1  -7  10 19.0655 13.6387   4
   1   7  10 104.872 28.7951   5
  -1   7 -10 66.1048 16.5664   4
   1   7  11 41.9538 13.2874   2
  -1   7 -11 108.718 31.3033   2
  -1  -7 -11 148.194 33.1332   1
   1   7  11 69.9669 29.5006   5
   1  -7  11 51.6736 18.1551   4
  -1   7 -11 55.1337 18.6382   4
  -1   7 -12 440.490 48.7360   2
  -1  -7 -12 354.751 44.8521   1
   1   7  12 285.576 41.3425   5
  -1   7 -12 381.719 32.4378   4
  -1   7 -13 12574.6 265.779   2
  -1  -7 -13 12366.2 262.227   1
   1   7  13 12160.2 254.089   5
  -1   7 -13 12605.4 212.399   4
  -1   7 -14 2345.52 109.758   2
  -1  -7 -14 2280.75 108.215   1
   1   7  14 2273.40 103.994   5
  -1   7 -14 2505.85 82.4311   4
  -1   7 -15 5743.66 179.967   2
   1   7  15 5700.16 172.250   5
  -1  -7 -15 5651.07 177.396   1
  -1   7 -16-31.1946 33.5766   2
   1   7  16 16.3890 35.3916   5
  -1  -7 -16-1.67276 30.9082   1
   1   7  17 27.8996 40.5494   5
  -1  -7 -17-37.8730 40.9827   1
  -1   7 -18 650.736 71.0472   2
   1   7  18 538.804 64.0926   5
  -1  -7 -18 595.203 68.1107   1
   1   7  19 1461.08 102.141   5
   1   9 -18 4668.17 177.446   2
  -1   9  18 4499.91 173.649   5
   1  -9 -18 4835.51 180.675   1
   1   9 -17 19.6457 35.1195   2
  -1   9  17 17.3808 41.3523   5
   1  -9 -17 29.3598 36.8932   1
   1   9 -16 4273.60 160.531   2
  -1   9  16 4268.47 156.946   5
   1  -9 -16 4222.31 158.151   1
   1   9 -15 46.7110 34.1076   2
  -1   9  15 58.2672 37.9647   5
   1  -9 -15 60.7966 35.6918   1
   1   9 -14 18.8183 29.2151   2
  -1   9  14 30.4475 36.7948   5
   1  -9 -14 9.32901 31.1402   1
   1   9 -13 5654.79 167.465   2
   1  -9 -13 5508.02 165.864   1
  -1   9  13 5232.81 160.309   5
   1   9 -12 367.139 45.3099   2
   1  -9 -12 469.666 51.0637   1
  -1   9  12 404.390 48.1423   5
   1   9 -12 489.631 28.0903   4
   1   9 -11 15076.5 283.076   2
   1  -9 -11 14688.1 283.807   1
  -1   9  11 14897.4 279.444   5
   1   9 -11 14697.8 204.797   4
   1   9 -10 31078.8 463.690   2
   1  -9 -10 30858.4 465.648   1
  -1   9  10 30833.9 459.306   5
   1   9 -10 31173.5 377.770   4
   1  -9  -9 453.886 45.4380   1
   1   9  -9 422.935 41.6630   2
   1   9  -9 420.137 23.5599   4
   1   9  -8 6134.22 148.407   2
   1   9  -8 5695.44 98.6406   4
   1  -9  -8 5935.95 149.357   1
   1   9  -7 333.300 34.6108   2
   1  -9  -7 313.769 36.7203   1
   1   9  -7 323.852 20.3192   4
   1   9  -6 13034.1 223.805   2
   1  -9  -6 12739.5 228.447   1
   1   9  -6 12262.4 176.001   4
   1  -9  -6 12999.7 223.605   3
   1   9  -5 1818.32 69.1530   2
   1  -9  -5 1931.13 74.4114   1
   1   9  -5 1787.07 50.1896   4
   1  -9  -5 1809.34 68.8435   3
   1  -9  -4 21544.9 317.711   1
   1   9  -4 21567.7 304.344   2
   1  -9  -4 20618.7 237.596   2
   1  -9  -4 22062.4 308.405   3
   1  -9  -3 543.345 40.3615   1
   1   9  -3 612.095 36.2647   2
  -1  -9   3 513.661 33.5303   2
  -1   9   3 590.614 22.1492   2
   1  -9  -3 514.422 20.2915   2
   1  -9  -3 542.144 36.0539   3
   1  -9  -2 53299.0 607.985   2
   1   9  -2 54714.0 638.864   2
  -1   9   2 52389.6 608.793   2
  -1  -9   2 54407.5 637.819   2
   1  -9  -2 54321.6 645.899   3
   1  -9  -1 18887.0 282.114   1
   1  -9  -1 18235.3 243.651   2
  -1  -9   1 18650.1 254.358   2
   1   9  -1 19015.6 255.088   2
  -1   9   1 18457.7 245.851   2
   1  -9  -1 18802.6 265.925   3
   1   9   0 66.4346 15.4126   2
  -1   9   0 79.8663 16.8486   2
  -1  -9   0 48.6743 13.2823   2
   1  -9   0 48.3311 13.1674   2
   1  -9   0 80.9393 17.1835   3
  -1  -9  -1 353.888 33.9751   1
  -1  -9  -1 380.487 21.5687   2
  -1   9  -1 379.941 28.1553   2
   1  -9   1 391.470 27.5691   2
   1   9   1 422.120 22.2856   2
  -1  -9  -1 409.036 32.4452   3
  -1  -9  -2 45099.6 583.334   1
  -1   9  -2 46286.8 562.143   2
   1   9   2 45720.1 517.434   2
   1  -9   2 45560.9 559.933   2
  -1  -9  -2 45377.6 573.790   3
  -1  -9  -3 1227.40 59.3260   1
  -1   9  -3 1219.54 52.9026   2
   1   9   3 1212.10 28.1651   2
   1  -9   3 1262.79 53.1507   2
  -1  -9  -3 1183.71 55.4063   3
  -1   9  -4 4313.72 109.132   2
  -1  -9  -4 4253.66 114.904   1
  -1   9  -4 4359.77 93.2707   4
  -1  -9  -4 4301.31 113.000   3
  -1   9  -5 238.071 30.5082   2
  -1  -9  -5 256.376 34.5273   1
  -1   9  -5 264.043 23.4155   4
  -1  -9  -5 253.201 32.4487   3
  -1   9  -6 3824.80 110.047   2
  -1  -9  -6 3809.90 112.021   1
  -1   9  -6 3680.51 84.9008   4
  -1  -9  -6 3564.72 108.704   3
  -1   9  -7 1445.11 69.9263   2
  -1  -9  -7 1335.15 67.7789   1
  -1   9  -7 1260.77 47.4259   4
  -1  -9  -7 1390.37 68.6039   3
  -1   9  -8 10502.3 212.946   2
  -1  -9  -8 9866.41 208.479   1
  -1   9  -8 10133.8 166.083   4
  -1  -9  -9 35.7814 27.7467   1
  -1   9  -9 30.0214 25.6680   2
  -1   9  -9-12.2241 14.6774   4
  -1   9 -10 17061.2 308.951   2
  -1  -9 -10 16538.6 303.621   1
   1   9  10 16406.8 293.647   5
  -1   9 -10 16579.4 244.309   4
  -1   9 -11 3346.23 123.616   2
  -1  -9 -11 3459.24 125.013   1
   1   9  11 3407.38 120.985   5
  -1   9 -11 3326.58 87.2980   4
  -1   9 -12 487.521 53.7516   2
  -1  -9 -12 558.224 56.0190   1
   1   9  12 576.782 54.9051   5
  -1   9 -12 551.482 36.2325   4
  -1   9 -13 26.3760 33.2208   2
   1   9  13-8.25097 32.7313   5
  -1  -9 -13 26.2913 31.9240   1
  -1   9 -14 445.123 57.1521   2
   1   9  14 496.403 56.5773   5
  -1  -9 -14 515.402 57.8743   1
  -1   9 -15 321.006 54.9295   2
   1   9  15 383.084 55.0005   5
  -1  -9 -15 228.100 44.7755   1
  -1   9 -16 6563.61 204.457   2
   1   9  16 5863.61 187.675   5
  -1  -9 -16 5715.97 191.299   1
  -1   9 -17 27.8091 37.6946   2
   1   9  17 12.1861 39.1283   5
  -1  -9 -17 57.6744 36.8064   1
   1   9  18 3942.65 164.147   5
   1 -11 -17 9.37431 35.5128   1
   1  11 -17 5.61147 36.4354   2
   1 -11 -16 55.0895 38.9676   1
   1  11 -16 18.4902 36.5801   2
   1 -11 -15 7310.93 215.922   1
   1  11 -15 7406.08 217.084   2
   1 -11 -14 197.992 43.3622   1
   1  11 -14 202.534 43.6595   2
   1 -11 -13 2836.79 124.315   1
   1  11 -13 2790.65 122.409   2
   1 -11 -12 85.2681 37.2846   1
   1  11 -12 41.0580 32.7115   2
   1 -11 -11 874.257 65.9716   1
   1  11 -11 916.046 67.0066   2
   1 -11 -10 66.5624 31.6191   1
   1  11 -10 83.8292 33.5703   2
   1  11 -10 62.5325 14.6984   4
   1 -11  -9 60.7267 30.9727   1
   1  11  -9 53.4256 27.9473   2
   1  11  -9 54.2981 12.9608   4
   1  11  -8 1481.31 74.6555   2
   1 -11  -8 1426.25 76.5648   1
   1  11  -8 1360.82 45.7987   4
   1  11  -7 16861.0 285.343   2
   1 -11  -7 16200.8 290.565   1
   1  11  -7 16346.8 227.966   4
   1 -11  -7 16330.3 283.416   3
   1  11  -6 1016.78 57.6436   2
   1 -11  -6 973.169 60.0328   1
   1  11  -6 996.690 40.4506   4
   1 -11  -6 960.898 56.0763   3
   1  11  -5 3287.38 99.2303   2
   1 -11  -5 3159.94 105.988   1
   1  11  -5 3288.93 79.0753   4
   1 -11  -5 3390.33 102.451   3
   1 -11  -4 85.7114 27.5888   1
   1  11  -4 81.9015 22.1964   2
   1 -11  -4 55.6405 9.31782   2
   1 -11  -4 81.2231 23.5174   3
   1 -11  -3 963.240 56.5941   1
   1 -11  -3 1042.25 33.2873   2
  -1  11   3 1069.40 34.5680   2
   1  11  -3 1127.94 53.0038   2
   1 -11  -3 971.982 52.1769   3
   1 -11  -2 18208.1 293.846   1
  -1  11   2 18499.3 242.852   2
  -1 -11   2 18504.1 267.157   2
   1  11  -2 18217.9 267.493   2
   1 -11  -2 17290.5 237.613   2
   1 -11  -2 17990.4 275.145   3
   1 -11  -1 38733.4 516.885   1
  -1  11   1 39258.3 469.888   2
  -1 -11   1 37437.0 475.349   2
   1 -11  -1 37067.8 464.899   2
   1  11  -1 38881.4 479.745   2
   1 -11  -1 38819.7 494.021   3
  -1 -11   0 8400.43 177.239   1
   1 -11   0 8060.49 144.311   2
  -1 -11   0 8106.28 139.616   2
  -1  11   0 8295.96 147.244   2
   1  11   0 8413.95 142.403   2
   1 -11   0 8583.78 156.929   3
  -1 -11   0 8568.92 167.561   3
  -1 -11  -1 21500.5 332.952   1
   1  11   1 21787.4 278.537   2
   1 -11   1 21043.3 299.064   2
  -1  11  -1 21562.8 302.448   2
  -1 -11  -1 20619.8 275.616   2
  -1 -11  -1 21152.4 319.623   3
  -1 -11  -2 271.072 37.4518   1
   1  11   2 323.593 21.2580   2
  -1  11  -2 286.339 31.3264   2
  -1 -11  -2 275.303 33.6047   3
  -1 -11  -3 2258.09 88.2077   1
  -1  11  -3 2307.81 79.4759   2
   1  11   3 2306.89 47.8418   2
  -1 -11  -3 2175.14 82.0949   3
  -1  11  -4 7300.39 157.036   2
  -1 -11  -4 6843.23 165.026   1
  -1  11  -4 6961.21 136.461   4
  -1 -11  -4 6976.24 160.178   3
  -1  11  -5 28684.8 415.458   2
  -1 -11  -5 28140.0 426.177   1
  -1  11  -5 28803.8 379.728   4
  -1 -11  -5 28588.8 420.976   3
  -1  11  -6 772.914 54.0971   2
  -1 -11  -6 731.705 55.2913   1
  -1  11  -6 778.467 39.6070   4
  -1 -11  -6 773.265 54.5542   3
  -1  11  -7 29952.1 445.142   2
  -1 -11  -7 29911.6 454.060   1
  -1  11  -7 29741.5 388.334   4
  -1 -11  -7 29070.7 443.752   3
  -1  11  -8 114.700 34.0412   2
  -1 -11  -8 79.0788 29.9829   1
  -1  11  -8 83.5678 18.7058   4
  -1 -11  -8 76.0964 30.2919   3
  -1  11  -9 4127.12 135.119   2
  -1 -11  -9 4064.94 135.680   1
  -1  11  -9 4137.55 97.4244   4
  -1 -11 -10 512.893 53.4441   1
  -1  11 -10 624.227 58.6188   2
  -1  11 -10 571.949 36.1497   4
  -1 -11 -11 2755.55 117.698   1
  -1  11 -11 2657.02 115.063   2
  -1  11 -11 2529.65 75.6556   4
  -1  11 -12 223.313 44.4839   2
  -1 -11 -12 205.617 40.9715   1
  -1  11 -13 14869.4 316.532   2
  -1 -11 -13 14828.0 316.020   1
  -1  11 -14 472.380 59.9889   2
  -1 -11 -14 417.649 56.5935   1
  -1  11 -15 5843.48 194.684   2
  -1 -11 -15 5867.96 194.567   1
  -1  11 -16 319.864 56.0379   2
  -1 -11 -16 328.899 58.0002   1
   1  13 -15 215.220 46.0884   2
   1 -13 -15 228.674 47.7361   1
   1  13 -14 57.3371 37.9588   2
   1 -13 -14 19.6421 38.1878   1
   1  13 -13 2281.83 114.516   2
   1 -13 -13 2076.01 111.450   1
   1  13 -12 2068.85 106.539   2
   1 -13 -12 2043.45 109.213   1
   1  13 -11 794.749 67.6286   2
   1 -13 -11 809.110 70.6606   1
   1  13 -10 4545.41 148.703   2
   1 -13 -10 4471.37 152.049   1
   1  13  -9 66.3994 32.0545   2
   1  13  -9 38.5817 15.0914   4
   1 -13  -9 8.20043 29.5118   1
   1  13  -8 2340.84 99.0311   2
   1 -13  -8 2188.24 101.478   1
   1  13  -8 2440.67 68.2861   4
   1  13  -7 4720.85 137.949   2
   1 -13  -7 4412.52 142.454   1
   1  13  -7 4602.82 100.822   4
   1 -13  -7 4678.38 138.514   3
   1  13  -6 5008.69 138.228   2
   1 -13  -6 4911.21 145.853   1
   1  13  -6 4861.32 106.907   4
   1 -13  -6 4830.95 138.130   3
   1 -13  -5 17.8810 26.1705   1
   1  13  -5 61.8244 24.7261   2
   1 -13  -5 35.5522 23.1257   3
   1 -13  -4 5614.14 153.523   1
   1  13  -4 5741.43 138.352   2
   1 -13  -4 5766.34 143.397   3
   1 -13  -4 5465.49 88.2940   2
   1 -13  -3 615.498 53.0757   1
  -1  13   3 663.645 30.8453   2
   1  13  -3 750.398 47.1743   2
   1 -13  -3 686.733 30.5577   2
   1 -13  -3 698.562 48.8643   3
   1 -13  -2 1754.38 81.1343   1
  -1  13   2 1866.31 56.9885   2
   1  13  -2 1748.08 67.0322   2
   1 -13  -2 1754.02 53.9208   2
   1 -13  -2 1896.10 74.9479   3
   1 -13  -1 1704.16 79.9816   1
   1  13  -1 1614.23 62.1618   2
  -1  13   1 1789.24 60.5164   2
  -1 -13   1 1653.95 61.9303   2
   1 -13  -1 1584.82 56.1762   2
   1 -13  -1 1815.99 72.2984   3
  -1 -13   1 1847.86 76.2300   3
  -1 -13   0 1362.96 74.2130   1
   1 -13   0 1227.19 67.9098   1
  -1 -13   0 1312.94 51.2096   2
   1  13   0 1325.73 52.3178   2
   1 -13   0 1292.04 53.6514   2
  -1  13   0 1327.52 55.2389   2
   1 -13   0 1436.54 62.9920   3
  -1 -13   0 1270.74 63.8591   3
  -1 -13  -1 6097.70 159.171   1
   1  13   1 6167.15 116.566   2
  -1  13  -1 6147.62 133.795   2
  -1 -13  -1 6135.19 148.842   3
   1 -13   1 6032.58 135.351   3
  -1 -13  -1 5686.32 112.677   2
  -1 -13  -2 4624.98 137.627   1
   1  13   2 4792.84 92.4700   2
  -1  13  -2 4847.51 121.032   2
  -1 -13  -2 4565.68 127.921   3
  -1 -13  -3 2723.90 104.703   1
   1  13   3 2736.53 58.3959   2
  -1  13  -3 2601.01 90.5793   2
  -1 -13  -3 2557.14 95.2964   3
  -1  13  -4 13589.0 246.332   2
  -1 -13  -4 13454.3 265.313   1
  -1  13  -4 13843.0 227.451   4
  -1 -13  -4 13377.3 255.050   3
  -1  13  -5 4185.27 124.764   2
  -1 -13  -5 3954.03 131.897   1
  -1  13  -5 4150.32 105.025   4
  -1 -13  -5 3866.84 125.680   3
  -1  13  -6 80.2326 28.2630   2
  -1 -13  -6 38.4707 30.3193   1
  -1  13  -6 43.2220 17.4817   4
  -1 -13  -6 35.2052 24.6021   3
  -1  13  -7 914.098 64.6094   2
  -1 -13  -7 989.316 70.5438   1
  -1  13  -7 916.914 47.9731   4
  -1 -13  -7 825.885 62.6593   3
  -1  13  -8 2071.89 96.4999   2
  -1 -13  -8 1796.33 93.9037   1
  -1  13  -8 1906.38 67.5138   4
  -1 -13  -8 2003.41 95.3929   3
  -1  13  -9 1039.96 73.8629   2
  -1  13  -9 1078.99 50.8675   4
  -1 -13  -9 960.812 73.4782   1
  -1 -13 -10 3120.27 128.629   1
  -1  13 -10 3127.70 126.689   2
  -1 -13 -11 7.44608 31.5017   1
  -1  13 -11-53.7617 37.5158   2
  -1 -13 -12 4077.96 155.718   1
  -1  13 -12 4351.52 159.801   2
  -1 -13 -13 808.013 73.9028   1
  -1  13 -13 865.433 78.6945   2
  -1 -13 -14 151.210 44.3400   1
  -1  13 -14 171.819 46.9426   2
   1 -15 -14 34.3164 42.3197   1
   1  15 -14-3.86963 40.4857   2
   1 -15 -13 1972.70 114.014   1
   1  15 -13 2097.35 116.512   2
   1 -15 -12 275.394 51.5684   1
   1  15 -12 240.280 47.0558   2
   1 -15 -11 298.223 52.0996   1
   1  15 -11 285.019 49.9226   2
   1 -15 -10 770.508 71.2102   1
   1  15 -10 841.661 70.0702   2
   1 -15  -9 8880.50 229.876   1
   1  15  -9 9147.37 223.507   2
   1 -15  -8 462.694 56.7753   1
   1  15  -8 506.357 53.3661   2
   1  15  -7 3075.92 116.548   2
   1 -15  -7 3000.39 122.023   1
   1  15  -7 3194.82 87.8905   4
   1 -15  -7 3065.09 117.111   3
   1  15  -6 2573.79 101.727   2
   1 -15  -6 2385.27 107.825   1
   1  15  -6 2431.89 78.9897   4
   1 -15  -6 2307.68 99.8071   3
   1 -15  -5 1865.11 94.3307   1
   1  15  -5 2114.25 89.1174   2
   1 -15  -5 2197.87 94.1094   3
   1 -15  -4 4061.19 137.696   1
   1  15  -4 4003.41 120.428   2
   1 -15  -4 3931.59 124.997   3
   1 -15  -3 1198.00 75.5880   1
   1  15  -3 1271.24 64.5125   2
   1 -15  -3 1357.19 70.4200   3
   1 -15  -2 1894.96 93.2516   1
  -1  15   2 1991.92 63.8790   2
   1  15  -2 1882.22 74.5177   2
   1 -15  -2 1834.21 81.4536   3
  -1 -15   2 1804.15 81.1959   3
   1 -15  -1 13439.8 270.364   1
  -1 -15   1 13690.2 275.294   1
   1  15  -1 13541.0 228.837   2
  -1  15   1 13894.3 221.884   2
  -1 -15   1 13396.7 251.312   3
   1 -15  -1 13240.7 244.473   3
   1 -15   0 2404.96 102.159   1
  -1 -15   0 2346.20 102.368   1
   1  15   0 2308.72 75.1967   2
  -1  15   0 2271.87 77.1460   2
   1 -15   0 2277.66 85.2535   3
  -1 -15   0 2226.43 91.4342   3
   1 -15   1 10942.3 236.690   1
  -1 -15  -1 11254.0 244.352   1
   1  15   1 11233.6 184.072   2
  -1  15  -1 11115.6 206.416   2
   1 -15   1 11118.7 211.129   3
  -1 -15  -1 10735.8 223.436   3
  -1 -15  -2 2805.92 115.745   1
   1  15   2 2905.55 73.2286   2
  -1  15  -2 2809.97 96.3487   2
   1 -15   2 2818.96 95.0385   3
  -1 -15  -2 3012.15 108.961   3
  -1 -15  -3 68.3286 32.8032   1
   1  15   3 22.7436 12.1444   2
  -1  15  -3 39.3088 24.1171   2
  -1 -15  -3 28.8518 27.5163   3
  -1  15  -4 5393.41 146.936   2
  -1 -15  -4 5218.39 162.252   1
  -1  15  -4 5590.16 136.082   4
  -1 -15  -4 5254.32 153.373   3
  -1  15  -5 4598.77 137.987   2
  -1 -15  -5 4458.84 150.531   1
  -1  15  -5 4443.67 117.615   4
  -1 -15  -5 4517.44 143.830   3
  -1  15  -6 2785.65 110.661   2
  -1 -15  -6 2614.79 115.648   1
  -1  15  -6 2648.78 87.2676   4
  -1 -15  -6 2606.25 111.778   3
  -1  15  -7 3719.60 132.034   2
  -1 -15  -7 3744.07 141.512   1
  -1  15  -7 3520.95 100.541   4
  -1 -15  -7 3630.36 133.709   3
  -1 -15  -8 569.398 61.3570   1
  -1  15  -8 561.788 59.6166   2
  -1 -15  -8 718.091 64.2848   3
  -1 -15  -9 6442.28 195.258   1
  -1  15  -9 6323.60 187.685   2
  -1 -15 -10 4749.83 171.645   1
  -1  15 -10 4866.85 167.072   2
  -1 -15 -11 402.288 57.1285   1
  -1  15 -11 456.855 59.5261   2
  -1 -15 -12 1417.06 99.4328   1
  -1  15 -12 1345.84 96.9464   2
  -1 -15 -13 3063.68 145.474   1
  -1  15 -13 3443.60 151.790   2
   1  17 -12 1805.18 109.790   2
   1 -17 -11 1454.43 102.416   1
   1  17 -11 1458.78 96.5218   2
   1 -17 -10 3056.70 141.227   1
   1  17 -10 3187.08 136.228   2
   1 -17  -9 786.061 74.2218   1
   1  17  -9 897.639 74.1726   2
   1 -17  -8 2396.65 121.136   1
   1  17  -8 2529.80 115.752   2
   1 -17  -7 2807.36 127.388   1
   1  17  -7 3054.88 122.598   2
   1 -17  -7 2726.53 118.079   3
   1 -17  -6 1134.46 82.0627   1
   1  17  -6 1254.20 77.0307   2
   1 -17  -6 1210.19 78.0355   3
   1 -17  -5 3.89558 33.4964   1
   1  17  -5 29.0309 27.1281   2
   1 -17  -5 11.8516 28.4282   3
   1 -17  -4 2226.87 109.800   1
   1  17  -4 2317.64 96.0189   2
   1 -17  -4 2376.82 101.594   3
   1 -17  -3 610.867 64.6269   1
   1  17  -3 629.493 50.5039   2
   1 -17  -3 537.063 52.6798   3
  -1 -17   3 521.557 51.3742   3
   1 -17  -2 443.896 55.6808   1
  -1 -17   2 479.822 57.4047   1
   1  17  -2 413.477 39.6491   2
   1 -17  -2 431.562 46.4875   3
  -1 -17   2 485.569 47.9088   3
   1 -17  -1 80.1073 37.2973   1
  -1 -17   1 184.719 43.6555   1
  -1  17   1 79.9668 23.5873   2
   1  17  -1 100.742 24.4898   2
   1 -17  -1 142.564 32.3820   3
  -1 -17   1 93.3022 31.3023   3
   1 -17   0 1752.78 98.0536   1
  -1 -17   0 1715.00 97.6963   1
  -1  17   0 1865.33 76.0774   2
   1  17   0 1748.14 69.4587   2
   1 -17   0 1687.55 81.5605   3
  -1 -17   0 1730.92 86.6093   3
   1 -17   1 2848.61 122.060   1
  -1 -17  -1 2702.02 121.518   1
  -1  17  -1 2911.06 99.5685   2
  -1 -17  -1 2718.69 110.072   3
   1 -17   1 2817.82 102.391   3
  -1 -17  -2 442.876 54.9841   1
   1 -17   2 361.221 52.1038   1
  -1  17  -2 443.363 44.3932   2
  -1 -17  -2 398.144 47.3440   3
   1 -17   2 441.706 44.3678   3
  -1 -17  -3 77.5748 41.2915   1
  -1  17  -3 50.7750 26.7975   2
   1 -17   3 38.1344 25.4282   3
  -1 -17  -3 99.4606 35.7855   3
  -1  17  -4 3841.66 128.195   2
  -1 -17  -4 3738.12 144.823   1
  -1  17  -4 3879.61 119.009   4
  -1 -17  -4 3823.30 136.832   3
   1 -17   4 3949.41 119.122   3
  -1  17  -5 222.907 40.6115   2
  -1 -17  -5 174.451 42.9722   1
  -1  17  -5 159.053 29.2030   4
  -1 -17  -5 131.508 34.7448   3
  -1 -17  -6 361.900 54.1298   1
  -1  17  -6 366.458 46.8406   2
  -1 -17  -6 510.442 56.4959   3
  -1 -17  -7 3654.50 148.184   1
  -1  17  -7 3576.32 136.601   2
  -1 -17  -7 3498.85 139.802   3
  -1 -17  -8 1935.63 111.563   1
  -1  17  -8 1735.11 98.5509   2
  -1 -17  -8 1754.05 101.735   3
  -1 -17  -9 1988.14 114.364   1
  -1  17  -9 2020.83 109.618   2
  -1 -17 -10 1541.15 104.917   1
  -1  17 -10 1739.97 103.265   2
  -1  17 -11 141.819 45.7231   2
   1  19 -10 2148.23 117.958   2
   1  19  -9 1453.97 95.3551   2
   1 -19  -8 78.5741 39.5511   1
   1  19  -8-23.5308 38.3829   2
   1 -19  -7 4648.15 174.915   1
   1  19  -7 4375.58 155.572   2
   1 -19  -6 696.033 71.2979   1
   1  19  -6 619.732 58.1113   2
   1 -19  -6 601.496 60.6562   3
   1 -19  -5 809.914 75.3108   1
   1  19  -5 721.607 61.1928   2
   1 -19  -5 829.368 68.2161   3
  -1 -19   5 687.308 57.7825   3
   1 -19  -4 4544.08 169.203   1
   1  19  -4 4459.72 142.691   2
   1 -19  -4 4897.33 158.211   3
  -1 -19   4 4799.63 149.833   3
   1 -19  -3 270.270 50.2438   1
  -1 -19   3 356.756 61.5443   1
   1  19  -3 283.032 38.3056   2
  -1 -19   3 297.003 43.9142   3
   1 -19  -3 269.833 41.4854   3
  -1 -19   2 1348.72 91.3678   1
   1 -19  -2 1326.21 90.8335   1
  -1 -19   2 1238.78 77.8594   3
   1 -19  -2 1289.86 77.7652   3
   1 -19  -1 2920.00 132.753   1
  -1 -19   1 2749.72 129.521   1
  -1 -19   1 2717.05 112.802   3
   1 -19  -1 2628.65 108.312   3
   1 -19   0-29.2299 42.3640   1
  -1 -19   0-65.4252 43.6208   1
  -1 -19   0-5.66975 29.9507   3
   1 -19   0 14.0066 25.6261   3
   1 -19   1 777.093 71.4271   1
  -1 -19  -1 721.938 72.0580   1
  -1 -19  -1 697.373 63.5409   3
   1 -19   1 862.688 60.4902   3
   1 -19   2 4242.70 158.350   1
  -1 -19  -2 3946.66 156.682   1
  -1  19  -2 4247.52 133.048   2
   1 -19   2 4317.75 135.522   3
  -1 -19  -2 4237.32 148.297   3
   1 -19   3 44.3326 39.3734   1
  -1 -19  -3 12.9586 38.6650   1
  -1  19  -3 30.8366 27.7532   2
  -1 -19  -3 20.9903 30.3070   3
  -1 -19  -4 3579.04 152.405   1
  -1  19  -4 3712.39 134.351   2
  -1 -19  -4 3585.76 140.958   3
  -1 -19  -5 1234.77 92.0387   1
  -1  19  -5 1157.59 77.7687   2
  -1 -19  -5 1157.17 83.3106   3
  -1 -19  -6 229.220 53.1568   1
  -1  19  -6 300.905 50.5013   2
  -1 -19  -6 315.029 52.1043   3
  -1 -19  -7 2712.58 134.868   1
  -1  19  -7 2512.03 120.448   2
  -1 -19  -7 2785.83 129.889   3
  -1  19  -8 999.610 82.3200   2
  -1  19  -9 138.918 47.7432   2
   1  21  -8 37.2065 34.2794   2
   1  21  -7 2194.23 115.211   2
   1 -21  -6-26.6944 36.1388   3
  -1 -21   5 1628.89 112.481   1
   1 -21  -5 1524.38 95.1627   3
  -1 -21   4 982.068 89.2242   1
   1 -21  -4 1041.88 90.1405   1
   1 -21  -4 902.773 74.4109   3
   1 -21  -3 112.419 45.2592   1
  -1 -21   3 112.519 52.2781   1
   1 -21  -3 66.2189 35.0270   3
  -1 -21   2 121.118 44.1918   1
   1 -21  -2 246.209 52.9956   1
   1 -21  -2 205.090 41.3010   3
  -1 -21   2 208.640 43.9326   3
  -1 -21   1 1709.65 112.480   1
   1 -21  -1 1695.02 108.979   1
  -1 -21   1 1601.93 93.2679   3
   1 -21   0 110.941 48.6502   1
  -1 -21   0 134.035 47.7130   1
  -1 -21   0 156.455 42.8349   3
   1 -21   1 3942.97 162.563   1
  -1 -21  -1 3839.90 163.554   1
  -1 -21  -1 3762.97 146.391   3
   1 -21   2 1088.24 90.1252   1
  -1 -21  -2 1170.07 98.4647   1
  -1 -21  -2 854.352 73.4859   3
   1 -21   3 14.9744 40.0899   1
  -1 -21  -3 6.27515 33.9010   3
   1 -21   4 101.705 46.3757   1
  -1 -21  -4 121.452 39.3917   3
   1 -21   5 1078.89 92.4179   1
  -1 -21  -5 1007.66 83.7364   3
  -1  21  -6 75.5098 36.1266   2
  -1 -21  -6 94.1059 38.4890   3
  -1  21  -7 1546.60 100.936   2
   2   0 -20 6948.51 193.738   2
  -2   0  20 6604.06 208.101   5
   2   0 -19 63.7544 29.1948   2
  -2   0  19-1.02471 35.2993   5
   2   0 -18 1338.15 76.6616   2
  -2   0  18 1152.55 81.5241   5
   2   0 -17 0.98280 24.2636   2
  -2   0  17 20.9643 31.7970   5
   2   0 -16 11356.7 229.426   2
   2   0 -15 18.8702 23.8293   2
   2   0 -14 21032.4 329.194   2
   2   0 -13 47.9937 20.7246   2
   2   0 -12 1022.49 51.9901   2
  -2   0  12 967.355 47.8603   4
   2   0 -11-10.6398 15.9809   2
  -2   0  11-0.09989 12.9249   4
   2   0 -10 182.886 27.7045   1
   2   0 -10 199.414 23.4992   2
  -2   0  10 248.435 25.4123   2
  -2   0  10 237.187 23.3616   4
   2   0  -9 25.4832 19.6250   1
  -2   0   9 21.1819 15.3297   2
   2   0  -9-0.28417 15.6530   2
  -2   0   9 17.9370 13.2119   4
   2   0  -8 69190.0 814.185   1
  -2   0   8 71456.3 816.177   1
   2   0  -8 68064.2 797.375   2
  -2   0   8 68881.3 797.388   2
  -2   0   8 69186.0 788.928   4
   2   0  -7 12.3350 14.5698   1
  -2   0   7 24.4056 15.3369   1
  -2   0   7 14.1808 13.2682   2
   2   0  -7-0.40039 13.8212   2
  -2   0   7 5.56722 10.6165   4
   2   0  -6 2637.92 66.3750   1
  -2   0   6 2742.07 68.1576   1
   2   0  -6 2606.78 60.3831   2
  -2   0   6 2692.23 61.2382   2
  -2   0   6 2565.90 55.2760   4
   2   0  -5 6.15854 11.5466   2
  -2   0   5-14.5091 13.1546   2
  -2   0   5-1.30611 13.4194   1
   2   0  -5 19.8102 14.9163   1
  -2   0   4 11718.1 154.581   2
   2   0  -4 11798.1 154.655   2
   2   0  -4 11944.0 160.397   1
  -2   0   4 11787.5 160.041   1
  -2   0   3 32.1644 10.7105   2
   2   0  -3 39.6435 11.0712   2
   2   0  -3 32.3700 9.62550   1
  -2   0   3 18.7223 9.48349   1
  -2   0   2 46281.8 507.865   1
   2   0  -1-0.05880 5.51948   4
  -2   0   1 71.9713 6.69647   4
  -2   0   0 103061. 1108.96   4
   2   0   0 102267. 1108.84   4
   2   0   1 15.0774 9.25963   2
   2   0   1 16.2463 6.28476   1
  -2   0  -1 15.5163 6.29380   1
   2   0   1 28.1442 10.8023   4
  -2   0  -1 13.9731 7.43698   3
   2   0   1 28.6352 7.59369   3
  -2   0  -1 31.3528 10.1107   4
   2   0   2 28646.9 327.527   1
  -2   0  -2 28522.2 326.952   1
  -2   0  -2 28016.6 334.728   2
   2   0   2 28597.5 334.962   2
   2   0   2 28875.9 337.865   4
  -2   0  -2 28809.8 337.442   4
   2   0   2 28264.7 330.374   3
  -2   0  -2 28353.9 329.908   3
   2   0   3 55.0574 13.4791   1
  -2   0  -3 49.8110 13.8456   1
  -2   0  -3 73.6581 16.1924   2
   2   0   3 79.9432 15.0399   2
   2   0   3 72.3048 14.2753   3
  -2   0  -3 125.556 19.8743   4
   2   0   3 92.8996 17.1148   4
   2   0   4 8928.35 134.428   1
  -2   0  -4 8954.50 134.694   1
  -2   0  -4 8959.06 137.871   2
   2   0   4 8812.39 135.860   2
   2   0   4 8916.85 136.702   3
  -2   0  -4 8877.04 139.645   4
   2   0   4 9132.90 139.785   4
  -2   0  -5 1.38974 12.9257   1
   2   0   5 1.07862 10.4719   1
  -2   0  -5 17.2310 13.9052   2
   2   0   5 7.06872 9.56192   2
   2   0   5 25.3325 14.2562   4
  -2   0  -5 20.3215 14.7159   4
   2   0   5 2.45735 11.3014   3
   2   0   6 186050. 1991.95   1
  -2   0  -6 179234. 1988.55   1
  -2   0  -6 178884. 1987.97   2
   2   0   6 179380. 1987.13   2
   2   0   6 182374. 1992.10   4
  -2   0  -6 179407. 1991.98   4
   2   0   6 184474. 1992.77   3
   2   0   7 29.3426 15.7561   1
  -2   0  -7 54.6602 20.4010   1
  -2   0  -7 15.5955 17.6053   2
   2   0   7 10.4611 11.7206   2
  -2   0  -7 51.1926 18.9986   4
   2   0   7 72.1191 16.2746   3
   2   0   7 29.0085 14.7210   4
  -2   0  -8 6720.04 137.483   1
  -2   0  -8 6868.73 136.063   2
   2   0   8 6789.34 134.343   2
   2   0   8 7024.11 138.083   4
  -2   0  -8 6818.37 137.210   4
  -2   0  -9-7.16582 17.2511   1
  -2   0  -9 4.70459 16.6671   2
  -2   0  -9 15.0719 16.8681   4
  -2   0 -10 10142.4 195.165   1
  -2   0 -10 10714.3 192.857   2
  -2   0 -10 9949.68 189.893   4
  -2   0 -11 3.71639 20.7867   1
  -2   0 -11 27.5175 20.8009   2
  -2   0 -11 1.09216 19.7750   4
  -2   0 -12 6888.92 159.218   2
  -2   0 -13 21.6185 22.0669   2
  -2   0 -14 4931.66 141.382   2
  -2   0 -15-7.91727 27.0353   2
  -2   0 -16 7769.63 195.121   2
   2   0  16 7393.01 200.011   5
   2   0  17 20.7205 39.6564   5
  -2   0 -17 16.3241 31.6522   2
   2   0  18 316.155 52.2454   5
  -2   0 -18 227.836 45.4755   2
   2   0  19 15.4033 36.2233   5
  -2   0 -19-38.8158 34.1256   2
   2   2 -22 339.279 57.0421   2
   2   2 -21 141.364 40.6871   2
   2   2 -20-21.1226 33.0337   2
  -2   2  20 27.9838 38.6570   5
   2  -2 -19 8751.96 204.216   2
   2   2 -19 8469.10 218.748   2
  -2   2  19 8353.77 231.281   5
   2   2 -18 236.336 43.0540   2
   2  -2 -18 228.013 38.5923   2
  -2   2  18 220.205 45.6518   5
   2   2 -17 12801.9 264.501   2
   2  -2 -17 12800.0 243.386   2
  -2   2  17 12211.8 271.991   5
   2   2 -16 4103.23 132.148   2
   2  -2 -16 4216.53 121.387   2
  -2   2  16 4151.70 141.317   5
   2  -2 -16 4396.09 145.884   1
   2  -2 -15 4150.61 115.797   2
   2   2 -15 4013.16 125.078   2
  -2   2  15 4020.58 133.516   5
   2  -2 -15 3809.35 130.610   1
   2   2 -14 477.472 44.7515   2
   2  -2 -14 524.428 39.7764   2
   2  -2 -14 527.015 49.5677   1
  -2   2  14 479.757 50.1918   5
   2  -2 -13 12160.4 207.549   2
   2   2 -13 12013.5 225.850   2
   2  -2 -13 12058.1 235.313   1
  -2   2  13 12184.2 235.347   5
  -2  -2  13 11866.0 198.317   4
   2  -2 -12 3795.97 96.7045   2
  -2   2  12 3883.99 96.9064   2
   2   2 -12 3864.18 110.211   2
   2  -2 -12 3879.92 116.507   1
  -2   2  12 3910.19 115.549   5
  -2  -2  12 3785.42 91.0459   4
  -2   2  11 4900.08 107.320   2
   2   2 -11 4974.00 121.900   2
   2  -2 -11 5027.05 108.630   2
   2  -2 -11 5202.31 130.410   1
  -2   2  11 5034.88 127.847   5
  -2  -2  11 5017.65 102.480   4
   2   2 -10 5430.80 122.685   2
  -2   2  10 5414.50 108.350   2
   2  -2 -10 5504.44 108.959   2
   2  -2 -10 5411.93 129.621   1
  -2   2  10 5504.90 128.376   5
  -2   2  10 5672.99 120.284   4
  -2  -2  10 5308.27 102.121   4
   2   2  -9 6245.05 129.553   2
  -2  -2   9 6477.74 131.253   2
   2  -2  -9 6216.56 113.538   2
  -2   2   9 6432.09 114.674   2
   2  -2  -9 6186.84 134.303   1
  -2   2   9 6359.02 134.228   5
  -2   2   9 6523.49 126.732   4
  -2  -2   9 6448.80 108.426   4
  -2   2   8 46.5380 12.4218   2
   2  -2  -8 34.3823 12.1760   2
   2   2  -8 21.2010 16.1422   2
  -2  -2   8 44.8200 16.4517   2
  -2   2   8 51.8514 18.4827   1
  -2  -2   8 57.9167 16.5416   1
   2  -2  -8 29.4938 20.0559   1
  -2   2   8 35.9482 19.8474   5
  -2   2   8 40.5413 13.1069   4
  -2  -2   8 32.2063 10.1808   4
   2   2  -7 171.431 22.0034   2
  -2   2   7 188.634 16.3788   2
   2  -2  -7 179.057 16.5166   2
  -2  -2   7 170.517 22.0391   2
   2  -2  -7 173.817 23.6392   1
  -2   2   7 182.133 22.8093   1
  -2  -2   7 151.177 19.7126   1
  -2   2   7 199.403 24.4906   5
  -2  -2   7 162.105 13.8683   4
  -2   2   6 2028.31 45.5265   2
   2   2  -6 2073.31 58.4158   2
   2  -2  -6 1992.81 45.9559   2
  -2  -2   6 2098.31 58.0221   2
   2  -2  -6 2027.07 59.8938   1
  -2   2   6 2150.92 61.1308   1
  -2   2   6 2049.17 60.6617   5
  -2  -2   6 1961.69 39.8353   4
  -2  -2   5 9876.71 148.666   2
   2  -2  -5 9739.03 129.341   2
   2   2  -5 9737.27 147.676   2
   2  -2  -5 9855.13 149.722   1
  -2   2   5 10283.7 151.425   1
  -2   2   5 9928.08 151.718   5
  -2   2   5 9631.41 129.509   2
  -2  -2   5 9697.86 118.871   4
  -2  -2   4 129.961 16.8757   2
   2   2  -4 167.666 17.6227   2
   2  -2  -4 167.423 12.6108   2
  -2   2   4 151.491 20.0774   5
   2  -2  -4 181.094 18.5332   5
   2  -2  -4 168.170 17.4224   1
  -2   2   4 168.544 17.5266   1
   2   2  -3 70653.6 784.748   2
   2  -2  -3 70472.1 782.242   1
  -2   2   3 70451.1 782.820   1
   2  -2  -3 72464.2 785.576   5
  -2   2   3 69564.4 784.831   5
   2   2  -2 3970.89 65.4135   2
  -2   2   2 3869.07 61.8990   1
   2  -2  -2 3821.03 61.9808   1
  -2   2   2 3969.43 66.7532   5
   2  -2  -2 3836.13 65.0416   5
  -2  -2   2 3898.35 65.6672   2
   2  -2  -1 18340.8 209.159   1
  -2   2   1 18065.7 209.241   1
   2   2  -1 17948.9 210.093   4
  -2   2   0 28327.5 328.958   2
   2  -2   0 28011.3 328.667   2
   2  -2   0 29152.7 329.397   4
  -2   2   0 29046.1 329.200   4
   2   2   0 27573.2 326.916   4
  -2   2  -1 3421.28 64.8895   2
   2  -2   1 3476.39 64.9111   2
  -2  -2  -1 3520.00 62.1019   1
   2   2   1 3532.56 62.4816   1
   2  -2   1 3520.35 62.2950   4
   2   2   1 3496.68 55.7217   5
  -2   2  -1 3566.32 62.2264   4
  -2  -2  -1 3526.79 55.8475   5
  -2  -2  -1 3511.29 65.0167   4
  -2  -2  -1 3535.95 65.6365   3
   2   2   1 3496.52 64.6293   4
  -2   2  -2 61669.9 680.549   2
   2  -2   2 61029.5 679.993   2
  -2  -2  -2 58787.9 672.829   1
   2   2   2 61480.6 674.340   1
  -2   2  -2 59739.6 671.797   4
   2   2   2 58853.2 663.876   5
  -2  -2  -2 59416.1 664.193   5
   2  -2   2 59775.1 671.539   4
   2   2   2 60660.1 679.924   4
  -2  -2  -2 59704.4 678.904   3
   2   2   2 59309.6 679.192   3
  -2  -2  -2 60932.1 679.792   4
  -2   2  -3 134628. 1459.13   2
   2  -2   3 133706. 1458.04   2
   2   2   3 130041. 1437.70   2
   2  -2   3 131135. 1442.00   1
  -2  -2  -3 131458. 1451.99   1
   2   2   3 133681. 1451.82   1
   2   2   3 131966. 1443.76   5
  -2   2  -3 132643. 1448.07   4
   2  -2   3 132126. 1447.77   4
   2   2   3 136351. 1459.68   4
  -2  -2  -3 132407. 1457.85   3
  -2  -2  -3 134511. 1459.18   4
   2   2   3 133776. 1457.85   3
  -2   2  -4 1759.60 54.4071   2
   2   2   4 1804.54 44.7693   2
   2  -2   4 1834.24 54.8176   2
   2   2   4 1815.02 52.2591   1
  -2  -2  -4 1809.43 52.6592   1
   2  -2   4 1770.39 48.0609   1
   2  -2   4 1766.51 48.5284   4
   2   2   4 1770.89 48.4709   5
  -2  -2  -4 1753.37 54.0051   3
  -2   2  -4 1738.36 48.9663   4
  -2  -2  -4 1829.41 55.7369   4
   2   2   4 1859.85 55.5728   3
   2   2   4 1929.05 56.4519   4
   2   2   5 29836.8 367.917   2
   2  -2   5 30626.9 390.377   2
  -2  -2  -5 30455.6 369.513   2
  -2   2  -5 31059.2 391.100   2
   2   2   5 31133.9 387.411   1
   2  -2   5 30287.5 378.018   1
  -2  -2  -5 30272.0 384.629   1
   2   2   5 30701.4 378.784   5
   2  -2   5 30706.3 378.352   4
   2   2   5 31198.4 392.559   3
   2   2   5 32324.4 394.639   4
  -2  -2  -5 30459.3 391.340   4
  -2   2  -5 29568.2 376.494   4
   2  -2   6 15033.4 225.053   2
  -2  -2  -6 14545.4 206.458   2
  -2   2  -6 14686.4 224.928   2
   2   2   6 14528.0 205.283   2
  -2  -2  -6 14526.4 220.404   1
   2   2   6 15097.8 223.573   1
   2  -2   6 15020.7 217.384   1
   2   2   6 14667.5 215.507   5
   2  -2   6 14613.1 213.021   4
  -2  -2  -6 14915.1 225.846   4
   2   2   6 15251.4 228.023   3
  -2   2  -6 14673.3 213.484   4
   2   2   6 15235.8 226.767   4
   2   2   7 5505.85 106.355   2
   2  -2   7 5599.73 120.596   2
  -2   2  -7 5693.56 122.450   2
  -2  -2  -7 5597.91 107.765   2
   2   2   7 5714.58 120.720   1
   2  -2   7 5949.24 118.418   1
  -2  -2  -7 5607.54 120.123   1
   2  -2   7 5607.95 112.564   4
   2   2   7 5659.49 116.597   5
  -2  -2  -7 5759.99 123.418   4
   2   2   7 5575.16 121.724   4
   2   2   7 5628.26 123.880   3
  -2   2  -7 5397.18 111.438   4
  -2   2  -8 2889.69 86.6192   2
  -2  -2  -8 2713.79 73.8848   2
   2   2   8 2715.61 72.8235   2
   2  -2   8 2838.65 81.7097   1
  -2  -2  -8 2785.94 84.1598   1
   2   2   8 2647.31 79.5314   5
   2  -2   8 2754.39 77.7309   4
  -2   2  -8 2698.85 77.7922   4
  -2  -2  -8 2951.20 87.3954   4
   2   2   9 12979.8 208.684   2
  -2   2  -9 13612.7 230.000   2
  -2  -2  -9 13430.4 211.280   2
  -2  -2  -9 13480.3 228.755   1
   2   2   9 13197.6 222.555   5
   2  -2   9 13123.9 215.329   4
  -2   2  -9 13468.2 217.360   4
  -2  -2 -10 2956.49 85.2580   2
  -2   2 -10 2990.96 95.6651   2
  -2  -2 -10 2791.28 94.2767   1
   2   2  10 2817.33 91.2728   5
  -2   2 -10 2931.33 87.6394   4
  -2  -2 -11 12727.1 218.321   2
  -2   2 -11 13190.9 239.351   2
  -2  -2 -11 12781.4 237.071   1
   2   2  11 12520.8 230.540   5
  -2   2 -11 12786.3 224.370   4
  -2   2 -12 206.097 34.5402   2
  -2  -2 -12 247.419 30.9664   2
  -2  -2 -12 200.227 36.1749   1
   2   2  12 230.540 35.6398   5
  -2   2 -12 203.669 29.3489   4
  -2   2 -13 1612.51 79.5963   2
  -2  -2 -13 1609.52 71.8988   2
  -2  -2 -13 1587.04 80.0072   1
   2   2  13 1521.74 77.4087   5
  -2   2 -13 1503.61 70.6634   4
  -2   2 -14 73.3498 30.3523   2
   2   2  14 62.1580 31.4244   5
  -2  -2 -14 38.7101 26.7792   1
  -2  -2 -14 101.691 25.3008   2
  -2  -2 -15 3658.05 118.074   2
  -2   2 -15 3418.57 127.678   2
   2   2  15 3514.52 128.718   5
  -2  -2 -15 3372.01 127.166   1
  -2   2 -16-43.6510 31.6986   2
   2   2  16 26.5605 30.2947   5
  -2  -2 -16 22.1905 26.0749   2
  -2  -2 -17 7919.58 194.244   2
  -2   2 -17 7447.73 205.738   2
   2   2  17 7635.78 210.214   5
  -2   2 -18 174.355 38.3922   2
   2   2  18 235.563 50.7543   5
  -2   2 -19 2110.24 112.489   2
   2   2  19 2109.56 116.588   5
  -2   2 -20 147.993 46.2156   2
   2   4 -21 238.090 49.2589   2
   2   4 -20 3060.53 135.402   2
  -2   4  20 2927.11 138.715   5
   2   4 -19 2536.87 120.693   2
  -2   4  19 2455.11 123.269   5
   2  -4 -19 2854.97 133.336   1
   2   4 -18 440.706 53.5007   2
  -2   4  18 420.326 56.8512   5
   2  -4 -18 423.412 55.8396   1
   2  -4 -17 10092.4 198.364   2
   2   4 -17 9874.92 234.657   2
  -2   4  17 9683.67 238.406   5
   2  -4 -17 9595.05 239.403   1
   2   4 -16 7675.11 196.422   2
   2  -4 -16 7983.02 165.385   2
  -2   4  16 7647.75 200.924   5
   2  -4 -16 7915.62 205.594   1
   2  -4 -15 223.630 28.1515   2
   2   4 -15 235.994 40.4964   2
  -2   4  15 185.414 38.4929   5
   2  -4 -15 277.151 41.0887   1
   2   4 -14 15279.3 280.275   2
   2  -4 -14 15418.9 240.406   2
  -2   4  14 15272.1 285.902   5
  -2  -4  14 14565.0 229.318   4
   2  -4 -14 15351.0 286.993   1
   2   4 -13 510.228 47.7181   2
   2  -4 -13 509.840 34.3119   2
  -2   4  13 461.437 32.8114   2
  -2   4  13 478.996 47.1476   5
  -2  -4  13 479.835 31.8619   4
   2  -4 -13 420.082 45.0309   1
  -2   4  12 3473.64 83.9042   2
   2  -4 -12 3445.27 84.1311   2
   2   4 -12 3548.20 110.016   2
   2  -4 -12 3474.16 112.103   1
  -2  -4  12 3381.59 79.6414   4
  -2   4  12 3484.62 111.290   5
   2   4 -11 66.6145 23.1092   2
  -2   4  11 64.5124 15.2229   2
   2  -4 -11 72.9431 15.5703   2
   2  -4 -11 78.9622 25.8722   1
  -2   4  11 36.6931 25.1441   5
  -2  -4  11 27.1298 11.7845   4
  -2   4  10 11999.4 177.847   2
   2  -4 -10 12348.1 179.467   2
   2   4 -10 12393.1 217.461   2
  -2   4  10 12690.0 222.230   5
  -2  -4  10 12281.5 172.782   4
   2  -4 -10 12713.5 223.285   1
   2   4  -9 64.9039 23.1350   2
   2  -4  -9 62.3855 12.7502   2
  -2   4   9 39.1249 12.6200   2
   2  -4  -9 58.1444 21.7643   1
  -2   4   9 62.4135 23.9096   5
  -2  -4   9 50.8417 11.1618   4
   2   4  -8 33207.4 430.907   2
   2  -4  -8 32634.3 380.275   2
   2  -4  -8 32507.8 430.249   1
  -2  -4   8 31688.2 372.759   4
  -2   4   8 33159.0 430.264   5
  -2   4   8 32347.1 380.637   2
   2   4  -8 32518.9 373.893   4
  -2  -4   7 1083.08 48.3292   2
   2  -4  -7 1025.24 29.0589   2
   2   4  -7 1082.88 48.9993   2
  -2   4   7 1061.38 48.1145   1
   2  -4  -7 1076.72 49.1607   1
  -2  -4   7 1025.70 26.0619   4
  -2   4   7 1072.67 49.7508   5
   2  -4  -7 1093.31 48.8689   5
  -2   4   7 1052.56 47.8586   3
   2   4  -7 1013.21 25.7976   4
  -2  -4   6 29960.2 375.432   2
   2   4  -6 29230.4 374.418   2
   2  -4  -6 28697.7 327.514   2
   2  -4  -6 28671.0 373.685   1
  -2   4   6 30039.8 376.761   1
  -2   4   6 29116.1 375.470   5
  -2  -4   6 28535.6 320.197   4
   2  -4  -6 29020.8 374.622   5
   2   4  -6 28266.9 320.230   4
  -2   4   6 30029.3 375.492   3
   2  -4  -5 50583.4 559.399   2
   2   4  -5 52204.7 606.295   2
  -2  -4   5 51685.8 605.240   2
  -2   4   5 52099.8 606.073   1
   2  -4  -5 51614.7 605.857   1
   2  -4  -5 50697.0 607.809   5
  -2   4   5 50666.0 606.536   5
  -2   4   5 52053.5 604.443   3
   2   4  -4 20377.6 262.681   2
  -2  -4   4 20122.0 262.495   2
   2  -4  -4 19414.7 261.580   1
  -2   4   4 19999.5 262.805   1
  -2   4   4 19953.3 265.022   5
   2  -4  -4 19843.3 263.893   5
  -2   4   4 19473.2 258.582   3
   2   4  -3 3548.43 72.5359   2
  -2  -4   3 3567.57 72.5651   2
  -2   4   3 3521.49 72.9775   1
   2  -4  -3 3526.58 72.4931   1
   2  -4  -3 3518.77 75.6415   5
  -2   4   3 3503.24 69.3569   3
  -2   4   2 135400. 1476.90   1
   2  -4  -2 134846. 1476.15   1
  -2  -4   2 136656. 1472.97   2
   2   4  -2 138953. 1474.40   2
   2  -4  -2 134205. 1457.04   2
  -2   4   2 134722. 1466.66   3
   2  -4  -2 134253. 1466.39   3
   2  -4  -1 22940.1 278.131   1
   2   4  -1 22943.5 273.334   2
  -2   4   1 22956.1 271.816   2
   2  -4  -1 22360.1 270.537   2
   2   4  -1 22741.9 271.221   4
   2  -4  -1 22863.2 265.826   3
  -2  -4   1 22851.3 273.294   2
   2  -4   0 13206.1 177.084   2
  -2   4   0 13367.9 178.248   2
   2   4   0 13435.7 166.766   2
   2   4   0 13453.4 178.029   4
   2  -4   1 87.6663 17.0879   2
  -2   4  -1 99.6448 16.4987   2
  -2  -4  -1 71.3160 17.0641   1
  -2   4  -1 89.2016 15.3440   4
   2   4   1 95.4501 16.4699   4
  -2  -4  -1 98.9485 18.3997   3
  -2   4  -2 22472.8 287.165   2
   2  -4   2 22196.7 285.903   2
  -2  -4  -2 22018.9 286.709   1
   2   4   2 22435.8 288.063   1
   2  -4   2 22009.1 274.793   4
  -2   4  -2 21488.3 273.795   4
  -2  -4  -2 21581.1 276.214   5
   2   4   2 22487.9 290.602   3
  -2  -4  -2 22271.7 290.139   3
   2   4   2 23009.5 288.525   4
  -2   4  -3 17431.5 242.610   2
   2  -4   3 17711.4 242.736   2
  -2  -4  -3 17499.3 240.464   1
   2   4   3 17479.6 242.932   1
   2  -4   3 17062.7 226.023   4
  -2  -4  -3 17205.5 230.252   5
   2   4   3 17414.7 231.430   5
  -2   4  -3 16979.6 226.412   4
   2   4   3 17551.7 245.740   3
  -2  -4  -3 17433.4 244.613   3
   2   4   3 18062.5 244.367   4
  -2   4  -4 18880.9 261.435   2
   2  -4   4 18467.6 258.784   2
   2   4   4 16951.9 220.033   2
   2   4   4 18984.5 258.617   1
  -2  -4  -4 18722.4 257.789   1
  -2   4  -4 17919.9 240.017   4
   2  -4   4 18165.7 239.943   4
  -2  -4  -4 18531.0 247.128   5
   2   4   4 18573.2 247.383   5
  -2  -4  -4 18219.2 260.483   3
   2   4   4 19156.3 262.778   4
   2   4   4 19005.9 262.741   3
  -2   4  -5 13188.6 209.634   2
   2  -4   5 13413.9 208.842   2
   2   4   5 12902.6 172.150   2
   2   4   5 13435.6 207.005   1
  -2  -4  -5 13212.5 206.126   1
  -2  -4  -5 13313.5 197.156   5
   2  -4   5 12950.4 188.592   4
   2   4   5 13363.5 198.175   5
  -2   4  -5 12876.7 188.769   4
   2   4   5 13629.7 211.595   4
  -2  -4  -5 13049.6 209.458   3
   2   4   5 13524.8 211.770   3
  -2   4  -6 39154.5 498.382   2
   2   4   6 37997.2 451.113   2
   2  -4   6 37554.5 478.797   1
  -2  -4  -6 39078.5 492.794   1
   2   4   6 40146.1 495.897   1
   2   4   6 38565.5 481.348   5
   2  -4   6 39326.2 471.645   4
  -2   4  -6 38497.2 469.881   4
  -2   4  -7 725.991 44.4871   2
   2   4   7 656.106 29.4495   2
   2  -4   7 688.571 37.2774   1
  -2  -4  -7 665.467 42.0308   1
   2  -4   7 685.662 35.0765   4
   2   4   7 714.381 40.5280   5
  -2   4  -7 663.346 34.4449   4
   2   4   8 54206.2 638.617   2
  -2   4  -8 55593.2 689.464   2
  -2  -4  -8 54660.1 683.234   1
   2   4   8 55436.0 675.107   5
   2  -4   8 54749.3 655.966   4
  -2   4  -8 54877.0 656.460   4
   2   4   9 8093.67 141.246   2
  -2   4  -9 8649.29 177.479   2
  -2  -4  -9 8419.42 173.077   1
   2  -4   9 8130.62 152.614   4
   2   4   9 8358.78 167.121   5
  -2   4  -9 8150.23 152.867   4
  -2  -4 -10 1337.69 51.8192   2
   2   4  10 1251.48 49.6587   2
  -2   4 -10 1281.67 66.7920   2
  -2  -4 -10 1296.33 66.1274   1
   2   4  10 1180.87 60.5466   5
  -2   4 -10 1272.07 55.3424   4
  -2  -4 -11 7776.18 147.684   2
   2   4  11 7301.99 143.446   2
  -2   4 -11 7579.57 177.347   2
  -2  -4 -11 7359.76 175.908   1
   2   4  11 7674.14 171.265   5
  -2   4 -11 7644.25 155.405   4
  -2  -4 -12 839.606 46.4433   2
  -2   4 -12 898.092 61.0939   2
  -2  -4 -12 877.719 59.5598   1
   2   4  12 849.921 58.0294   5
  -2   4 -12 801.715 48.1383   4
  -2   4 -13 608.377 54.6887   2
  -2  -4 -13 593.196 53.1318   1
   2   4  13 591.379 53.1504   5
  -2   4 -13 648.732 46.2495   4
  -2   4 -14 15806.8 306.365   2
  -2  -4 -14 16084.9 308.241   1
   2   4  14 15389.8 296.688   5
  -2   4 -14 16214.8 276.623   4
  -2   4 -15 9.49638 27.9134   2
  -2  -4 -15 57.0823 31.9646   1
   2   4  15 1.13786 32.5638   5
  -2   4 -15 44.9333 24.8988   4
  -2   4 -16 3504.17 138.077   2
   2   4  16 3427.82 132.901   5
  -2  -4 -16 3336.38 134.288   1
  -2   4 -17 2026.53 108.307   2
   2   4  17 1840.84 103.199   5
  -2  -4 -17 2053.39 111.031   1
  -2   4 -18 660.314 67.1584   2
   2   4  18 590.926 65.9156   5
  -2  -4 -18 752.867 71.5809   1
  -2   4 -19 301.267 58.9471   2
   2   4  19 253.716 52.4614   5
   2   6 -20 1100.45 88.2682   2
  -2   6  20 1304.18 97.2398   5
   2   6 -19 2994.49 135.371   2
  -2   6  19 3069.75 140.170   5
   2  -6 -19 3077.02 143.674   1
   2   6 -18 303.230 50.9720   2
  -2   6  18 395.652 59.5739   5
   2  -6 -18 334.547 55.2059   1
   2   6 -17 3148.83 130.713   2
  -2   6  17 3156.31 131.758   5
   2  -6 -17 3275.33 135.369   1
   2   6 -16 654.929 59.6302   2
  -2   6  16 569.116 59.6490   5
   2  -6 -16 680.168 64.9253   1
   2   6 -15 1024.84 69.8557   2
   2  -6 -15 1005.93 46.2068   2
  -2   6  15 948.347 70.9838   5
   2  -6 -15 877.529 69.1489   1
   2   6 -14 4274.22 137.993   2
   2  -6 -14 4380.56 96.5059   2
   2  -6 -14 4183.53 139.908   1
  -2   6  14 4268.89 138.808   5
   2   6 -13 918.442 62.6842   2
   2  -6 -13 894.877 38.7268   2
   2  -6 -13 806.845 59.1896   1
  -2   6  13 971.869 66.2305   5
  -2  -6  13 818.020 36.7878   4
  -2   6  13 876.868 38.9752   2
   2  -6 -12 52.1099 13.1795   2
  -2   6  12 52.5468 14.7379   2
   2   6 -12 22.8076 23.9078   2
   2  -6 -12 28.5445 23.8389   1
  -2  -6  12 75.4246 15.2950   4
  -2   6  12 127.900 33.5095   5
   2  -6 -11 23838.2 297.557   2
   2   6 -11 23897.2 369.620   2
   2  -6 -11 23861.5 370.873   1
  -2  -6  11 23710.8 296.199   4
  -2   6  11 24210.1 371.548   5
   2   6 -11 24048.7 296.413   4
   2   6 -10 4017.67 115.133   2
   2  -6 -10 3778.85 69.6221   2
   2  -6 -10 3768.99 112.095   1
  -2   6  10 3847.92 113.474   5
  -2  -6  10 3831.81 70.2246   4
   2   6 -10 3889.49 70.5177   4
   2  -6  -9 4200.94 68.8012   2
   2   6  -9 4214.29 114.084   2
   2  -6  -9 4020.76 113.372   1
  -2  -6   9 4336.68 71.1665   4
  -2   6   9 4110.99 112.459   5
   2   6  -9 4195.46 70.3901   4
   2  -6  -8 2375.95 41.8819   2
   2   6  -8 2597.69 84.0530   2
   2  -6  -8 2531.12 83.0373   1
  -2   6   8 2452.30 82.7486   5
   2   6  -8 2376.13 45.1676   4
   2   6  -7 1623.69 63.1757   2
   2  -6  -7 1492.52 61.8852   1
  -2   6   7 1570.95 64.4031   5
   2   6  -7 1540.18 32.1653   4
   2   6  -6 21580.4 297.596   2
  -2  -6   6 21930.7 298.374   2
   2  -6  -6 20684.3 298.252   1
  -2   6   6 21366.0 302.125   1
   2  -6  -6 20935.0 299.397   5
  -2   6   6 20771.2 298.393   5
   2   6  -6 19732.5 237.459   4
  -2   6   6 20946.4 294.024   3
  -2  -6   5 97965.5 1070.60   2
   2   6  -5 94472.4 1068.95   2
  -2   6   5 97150.8 1074.86   1
   2  -6  -5 94076.7 1073.15   1
   2  -6  -5 94269.9 1074.65   5
   2   6  -5 90454.2 1013.33   4
  -2   6   5 95910.6 1067.55   3
   2  -6  -4 45366.0 509.457   2
   2   6  -4 47932.3 562.198   2
  -2  -6   4 47828.4 561.910   2
  -2   6   4 47957.7 568.365   1
   2  -6  -4 48691.4 571.466   5
   2  -6  -4 47564.4 558.517   3
  -2   6   4 47059.5 558.281   3
   2  -6  -3 8820.21 147.974   1
  -2   6   3 8840.74 147.661   1
   2  -6  -3 8348.04 112.407   2
  -2  -6   3 8644.08 141.122   2
   2   6  -3 8867.10 141.864   2
   2  -6  -3 8831.63 138.624   3
  -2   6   3 8684.12 139.247   3
   2  -6  -2 10938.4 170.258   1
   2  -6  -2 10722.0 144.717   2
  -2   6   2 10794.5 145.925   2
  -2  -6   2 11211.8 161.473   2
   2   6  -2 11274.1 161.585   2
   2  -6  -2 11006.4 157.893   3
   2  -6  -1 7194.69 123.434   1
   2  -6  -1 6958.30 109.114   2
   2   6  -1 7159.62 111.838   2
  -2   6   1 7084.77 110.784   2
  -2  -6   1 6969.87 110.757   2
   2  -6  -1 7141.42 109.958   3
  -2   6   0 146.078 17.1978   2
   2  -6   0 89.5775 14.8470   2
   2   6   0 119.437 13.2482   2
  -2  -6  -1 5183.69 107.903   1
   2  -6   1 5067.08 98.7960   2
  -2   6  -1 5565.25 101.867   2
   2   6   1 5134.75 80.2020   2
  -2  -6  -1 5325.25 107.745   3
  -2   6  -2 1036.78 43.2317   2
   2   6   2 1051.44 26.5245   2
   2  -6   2 1028.96 42.3998   2
  -2  -6  -2 1008.48 46.4791   1
  -2   6  -2 971.342 37.9039   4
  -2  -6  -2 990.649 42.3790   5
   2   6   2 1131.24 44.8382   4
  -2  -6  -2 970.448 44.7907   3
  -2   6  -3 2712.54 74.8625   2
   2  -6   3 2573.08 72.8132   2
   2   6   3 2532.21 74.9826   1
  -2  -6  -3 2605.42 75.6970   1
  -2  -6  -3 2548.95 69.5463   5
  -2   6  -3 2562.03 63.5068   4
   2   6   3 2684.95 74.9428   4
  -2  -6  -3 2693.62 77.2899   3
  -2   6  -4 328.959 29.5275   2
   2  -6   4 330.328 29.1085   2
   2   6   4 306.833 13.6218   2
  -2  -6  -4 312.256 30.2235   1
   2   6   4 298.924 28.3267   1
  -2   6  -4 345.566 24.7055   4
  -2  -6  -4 357.334 27.7852   5
  -2  -6  -4 312.603 30.5494   3
   2   6   4 375.166 31.5113   4
   2   6   4 344.203 31.3253   3
  -2   6  -5 4172.72 105.589   2
   2   6   5 4101.48 64.3895   2
  -2  -6  -5 4241.38 105.728   1
  -2   6  -5 4186.10 88.0131   4
  -2  -6  -5 4221.68 99.4388   5
   2  -6   5 4249.59 88.3947   4
   2   6   5 4161.45 99.2608   5
  -2  -6  -5 4133.24 106.573   3
  -2   6  -6 11195.4 198.738   2
   2   6   6 10703.4 141.067   2
  -2  -6  -6 10771.2 193.927   1
  -2   6  -6 10207.0 165.984   4
   2   6   6 10687.2 185.426   5
   2  -6   6 10877.7 168.967   4
  -2  -6  -6 10684.6 184.258   5
  -2  -6  -6 10845.3 197.982   3
   2   6   7 59.0280 10.6697   2
  -2   6  -7 93.0894 24.8015   2
  -2  -6  -7 92.2538 24.3798   1
   2   6   7 45.1376 20.2266   5
   2  -6   7 49.2538 13.9290   4
  -2   6  -7 79.4653 17.1314   4
  -2   6  -8 13848.4 243.815   2
   2   6   8 13311.4 181.948   2
  -2  -6  -8 13423.2 238.805   1
   2  -6   8 13512.4 208.355   4
   2   6   8 13314.4 228.527   5
  -2   6  -8 13357.0 207.507   4
   2   6   9 24768.7 314.485   2
  -2   6  -9 25821.8 386.960   2
  -2  -6  -9 25387.3 381.892   1
   2   6   9 25425.7 371.297   5
   2  -6   9 24844.6 341.198   4
  -2   6  -9 25088.8 342.263   4
  -2   6 -10 1850.05 83.8810   2
   2   6  10 1903.73 55.1910   2
  -2  -6 -10 1928.01 83.3748   1
   2  -6  10 1855.55 66.3589   4
   2   6  10 2066.56 83.9833   5
  -2   6 -10 1947.61 67.9102   4
   2   6  11 10847.3 174.002   2
  -2   6 -11 11354.2 233.741   2
  -2  -6 -11 11140.6 229.256   1
   2   6  11 11081.6 221.510   5
  -2   6 -11 11081.1 195.764   4
  -2   6 -12 226.101 39.2496   2
  -2  -6 -12 194.286 36.8995   1
   2   6  12 246.026 41.1882   5
  -2   6 -12 223.979 29.0241   4
  -2   6 -13 950.579 68.4317   2
  -2  -6 -13 865.185 64.9218   1
   2   6  13 922.540 66.4642   5
  -2   6 -13 912.830 51.5808   4
  -2   6 -14 5778.62 174.624   2
  -2  -6 -14 5743.03 172.156   1
   2   6  14 5774.25 166.881   5
  -2   6 -14 5862.96 142.753   4
  -2   6 -15 2211.60 109.540   2
  -2  -6 -15 2061.33 105.770   1
   2   6  15 2277.36 108.894   5
  -2   6 -15 2268.70 87.5276   4
  -2   6 -16 905.406 76.1757   2
   2   6  16 980.270 77.4151   5
  -2  -6 -16 703.900 67.0328   1
  -2   6 -17 3185.60 142.577   2
   2   6  17 3215.41 137.762   5
  -2  -6 -17 3092.12 137.882   1
  -2   6 -18 111.775 45.0039   2
   2   6  18 250.454 52.7804   5
  -2  -6 -18 111.350 42.4044   1
   2   6  19 270.826 57.3806   5
   2   8 -19 613.907 69.8826   2
  -2   8  19 586.557 71.6244   5
   2  -8 -19 829.328 78.4845   1
   2   8 -18 107.392 36.7979   2
  -2   8  18 225.113 51.3440   5
   2  -8 -18 129.949 40.7722   1
   2   8 -17 7041.14 207.058   2
  -2   8  17 6608.62 200.138   5
   2  -8 -17 6972.63 208.653   1
   2   8 -16 264.382 46.1585   2
  -2   8  16 269.385 47.7997   5
   2  -8 -16 224.365 46.4760   1
   2   8 -15 118.988 34.4062   2
  -2   8  15 49.5811 33.5472   5
   2  -8 -15 102.864 36.7996   1
   2   8 -14 103.332 36.0079   2
  -2   8  14 89.5068 34.3859   5
   2  -8 -14 43.6188 31.6788   1
   2   8 -13 8377.44 203.369   2
   2  -8 -13 8343.77 204.911   1
  -2   8  13 8591.50 204.915   5
   2   8 -12 7999.95 192.525   2
   2  -8 -12 7638.60 190.285   1
  -2   8  12 7687.43 188.431   5
   2   8 -12 8201.74 122.751   4
   2   8 -11 7672.85 181.115   2
   2  -8 -11 7270.35 177.905   1
  -2   8  11 7275.51 176.331   5
   2   8 -11 7315.66 110.908   4
   2   8 -10 648.930 50.5002   2
   2  -8 -10 577.671 48.5707   1
  -2   8  10 678.360 53.5108   5
   2   8 -10 661.312 24.8029   4
   2   8  -9 555.202 46.1656   2
   2  -8  -9 464.199 43.6823   1
  -2   8   9 547.637 48.6251   5
   2   8  -9 465.750 20.0865   4
   2   8  -8 16503.7 267.066   2
   2   8  -8 15452.5 195.508   4
   2  -8  -8 16309.7 269.254   1
   2   8  -7 2169.66 78.2074   2
   2   8  -7 1995.28 43.1983   4
   2  -8  -7 2032.25 77.8789   1
   2   8  -6 515.348 39.2608   2
   2  -8  -6 559.218 41.4840   1
   2   8  -6 459.601 20.4693   4
   2  -8  -5 1340.90 59.6451   1
   2   8  -5 1517.42 60.0970   2
   2  -8  -5 1326.06 55.9998   3
  -2   8   5 1367.56 55.9787   3
   2  -8  -4 3079.21 86.2340   1
  -2   8   4 3186.70 89.1856   1
   2  -8  -4 2959.72 49.9212   2
  -2  -8   4 3153.19 82.2867   2
   2   8  -4 3078.43 82.1519   2
   2  -8  -4 3223.41 82.1994   3
  -2   8   4 3153.89 82.5862   3
   2  -8  -3 38158.2 488.816   1
   2  -8  -3 37376.0 437.478   2
   2   8  -3 39242.4 476.141   2
  -2  -8   3 39030.3 475.980   2
   2  -8  -3 38930.7 474.875   3
   2  -8  -2 15380.4 233.420   1
   2  -8  -2 14578.9 197.284   2
   2   8  -2 15122.3 215.887   2
  -2   8   2 15269.1 200.377   2
  -2  -8   2 15203.8 215.774   2
   2  -8  -2 14931.9 215.582   3
   2  -8  -1 858.164 43.8265   1
  -2  -8   1 885.534 35.9656   2
   2   8  -1 868.707 35.6385   2
  -2   8   1 900.123 35.6674   2
   2  -8  -1 896.795 34.8900   2
   2  -8  -1 775.449 34.4240   3
   2   8   0 75179.2 843.944   2
   2  -8   0 74732.5 857.716   2
  -2   8   0 77187.9 860.761   2
   2  -8   0 75682.8 850.912   3
  -2  -8   0 74152.4 843.286   2
  -2  -8  -1 5911.29 129.208   1
   2   8   1 5927.80 94.5844   2
   2  -8   1 5789.28 114.416   2
  -2   8  -1 5826.93 115.029   2
  -2  -8  -1 5859.40 125.293   3
  -2  -8  -2 30676.2 413.206   1
   2   8   2 30206.9 351.937   2
  -2   8  -2 31071.1 399.116   2
   2  -8   2 30414.8 396.587   2
  -2  -8  -2 30422.8 409.109   3
   2  -8   3 40351.7 512.838   2
   2   8   3 40321.7 450.417   2
  -2   8  -3 41269.3 515.510   2
  -2  -8  -3 40244.8 523.767   1
  -2  -8  -3 41076.5 513.775   5
  -2   8  -3 40076.9 493.040   4
  -2  -8  -3 39934.9 520.523   3
  -2   8  -4 4760.14 114.583   2
   2   8   4 4573.94 62.4979   2
  -2  -8  -4 4654.96 117.735   1
  -2  -8  -4 4503.62 108.870   5
  -2   8  -4 4457.12 95.8428   4
  -2  -8  -4 4557.50 116.497   3
  -2   8  -5 4001.95 108.151   2
  -2  -8  -5 3689.45 106.335   1
  -2   8  -5 3764.97 87.5648   4
  -2  -8  -5 3875.91 109.124   3
  -2   8  -6 27638.7 395.115   2
  -2  -8  -6 27114.4 395.125   1
  -2   8  -6 26915.5 354.445   4
  -2  -8  -6 27011.7 396.523   3
  -2   8  -7 601.165 46.1607   2
   2   8   7 529.117 14.9892   2
  -2  -8  -7 590.301 45.6200   1
  -2   8  -7 582.300 33.9480   4
  -2  -8  -7 630.385 48.6757   3
   2   8   8 16147.1 190.314   2
  -2   8  -8 16188.5 282.769   2
  -2  -8  -8 15907.8 280.042   1
   2   8   8 15522.6 267.103   5
  -2   8  -8 15663.9 238.200   4
   2   8   9 4406.53 71.0495   2
  -2   8  -9 4483.40 134.409   2
  -2  -8  -9 4449.62 132.082   1
   2   8   9 4599.95 127.884   5
   2  -8   9 4143.40 100.791   4
  -2   8  -9 4475.52 104.218   4
   2   8  10 5444.90 87.2532   2
  -2   8 -10 5601.31 155.613   2
  -2  -8 -10 5373.98 151.471   1
   2  -8  10 4852.31 115.953   4
   2   8  10 5437.09 145.502   5
  -2   8 -10 5356.79 118.766   4
  -2   8 -11 259.033 39.2693   2
  -2  -8 -11 194.373 35.7012   1
   2   8  11 293.768 42.6495   5
  -2   8 -11 259.545 28.7016   4
  -2   8 -12 13158.7 273.384   2
  -2  -8 -12 12585.4 265.191   1
   2   8  12 12244.9 253.476   5
  -2   8 -12 12840.8 219.524   4
  -2   8 -13 2179.88 106.735   2
  -2  -8 -13 2111.96 104.365   1
   2   8  13 2184.63 102.032   5
  -2   8 -13 2296.27 80.7186   4
  -2   8 -14 6695.42 196.042   2
   2   8  14 6230.82 180.388   5
  -2  -8 -14 6367.58 189.731   1
  -2   8 -15 33.5488 34.5822   2
   2   8  15 43.2084 39.5916   5
  -2  -8 -15 54.6203 34.5342   1
  -2   8 -16 144.375 41.7620   2
   2   8  16 110.077 41.4814   5
  -2  -8 -16-11.5909 38.1758   1
  -2   8 -17 2571.02 132.940   2
   2   8  17 2386.82 122.653   5
  -2  -8 -17 2371.74 123.696   1
   2   8  18 68.5937 46.4701   5
   2  10 -18 31.3478 36.6889   2
  -2  10  18 73.9276 44.6234   5
   2 -10 -18 41.6746 38.0902   1
   2  10 -17 1907.74 112.252   2
  -2  10  17 1963.31 113.275   5
   2 -10 -17 1879.97 110.308   1
   2  10 -16 2594.24 124.674   2
  -2  10  16 2638.42 125.230   5
   2 -10 -16 2561.99 123.729   1
   2  10 -15 333.672 50.7534   2
  -2  10  15 332.235 55.5849   5
   2 -10 -15 373.340 54.8619   1
   2  10 -14 4681.67 158.447   2
  -2  10  14 4651.96 157.479   5
   2 -10 -14 4362.09 154.096   1
   2  10 -13 5857.86 173.167   2
  -2  10  13 5971.40 174.280   5
   2 -10 -13 6076.54 176.749   1
   2 -10 -12 410.128 50.0063   1
   2  10 -12 384.361 47.3087   2
   2 -10 -11 6648.05 179.729   1
   2  10 -11 7380.64 184.316   2
   2  10 -11 7081.71 106.395   4
   2 -10 -10 13.3696 25.3373   1
   2  10 -10 12.3111 24.9031   2
   2  10 -10 17.7671 9.20859   4
   2  10  -9 22650.4 357.423   2
   2  10  -9 21859.8 269.877   4
   2 -10  -9 21893.5 357.815   1
   2  10  -8 9597.90 196.139   2
   2  10  -8 9070.15 133.868   4
   2 -10  -8 9572.51 201.524   1
   2  10  -7 1145.50 60.6317   2
   2 -10  -7 1171.14 64.6358   1
   2  10  -7 1154.15 36.9687   4
   2  10  -6 8601.54 173.766   2
   2 -10  -6 8397.26 178.282   1
   2  10  -6 8451.10 131.735   4
   2 -10  -6 8548.72 172.284   3
   2 -10  -5 4083.23 112.979   1
   2 -10  -5 3752.03 53.6557   2
   2  10  -5 4038.44 105.727   2
   2 -10  -5 3991.52 105.622   3
   2 -10  -4 1422.53 64.9793   1
   2 -10  -4 1380.21 34.7007   2
   2  10  -4 1406.39 58.1537   2
   2 -10  -4 1365.66 57.9573   3
   2 -10  -3 13498.7 229.481   1
   2 -10  -3 12960.5 179.333   2
   2  10  -3 13571.7 214.355   2
  -2 -10   3 13454.3 212.697   2
   2 -10  -3 13731.3 215.668   3
   2 -10  -2 16123.2 261.471   1
  -2 -10   2 16053.8 237.831   2
  -2  10   2 16741.1 223.971   2
   2  10  -2 16812.3 241.161   2
   2 -10  -2 15729.0 219.313   2
   2 -10  -2 16115.2 241.793   3
   2 -10  -1 12284.4 211.910   1
   2 -10  -1 11549.9 180.626   2
   2  10  -1 12236.3 186.357   2
  -2 -10   1 12049.3 184.760   2
  -2  10   1 12398.8 186.273   2
   2 -10  -1 12167.9 191.348   3
  -2 -10   0 48449.6 618.959   1
  -2  10   0 48927.3 584.163   2
   2 -10   0 47958.7 580.376   2
   2  10   0 48477.8 567.899   2
  -2 -10   0 47267.6 565.673   2
   2 -10   0 47968.7 578.033   3
  -2 -10  -1 8316.66 172.744   1
   2 -10   1 8266.36 152.267   2
   2  10   1 8446.41 130.755   2
  -2  10  -1 8518.41 154.837   2
  -2 -10  -1 8230.87 165.242   3
  -2 -10  -2 1558.69 71.6467   1
  -2  10  -2 1584.34 62.2781   2
   2  10   2 1493.61 40.7874   2
  -2 -10  -2 1426.00 64.6923   3
   2  10   3 3096.60 55.3391   2
  -2  10  -3 3069.92 91.6568   2
  -2 -10  -3 3016.15 99.1710   1
  -2  10  -3 3193.60 84.7518   4
  -2 -10  -3 3264.04 99.6878   3
  -2  10  -4 2453.41 84.4939   2
   2  10   4 2310.98 37.5484   2
  -2 -10  -4 2206.09 86.7435   1
  -2  10  -4 2425.96 72.3451   4
  -2 -10  -4 2447.97 88.2918   3
  -2  10  -5 5083.83 131.183   2
  -2 -10  -5 4947.76 135.108   1
  -2  10  -5 5003.65 109.564   4
  -2 -10  -5 4999.40 134.143   3
  -2  10  -6 32158.1 456.656   2
  -2 -10  -6 30827.8 456.862   1
  -2  10  -6 31568.6 413.338   4
  -2 -10  -6 31366.9 459.443   3
  -2  10  -7 5671.23 149.826   2
  -2 -10  -7 5618.51 151.239   1
  -2  10  -7 5615.33 119.420   4
  -2 -10  -7 5549.67 149.614   3
  -2  10  -8 13125.7 255.064   2
  -2 -10  -8 12815.8 254.905   1
  -2  10  -8 13011.8 209.860   4
  -2 -10  -8 12813.3 255.261   3
  -2  10  -9 15341.0 290.341   2
  -2 -10  -9 14992.1 288.110   1
  -2  10  -9 15183.8 238.022   4
  -2 -10 -10 6.24970 27.7193   1
  -2  10 -10 39.2584 30.3942   2
  -2  10 -10 21.1670 18.0015   4
  -2 -10 -11 286.207 48.1187   1
  -2  10 -11 327.117 48.4402   2
  -2  10 -11 336.189 32.1789   4
  -2  10 -12 4593.42 156.032   2
  -2 -10 -12 4515.25 153.648   1
  -2  10 -13 674.706 66.9544   2
  -2 -10 -13 577.780 61.4809   1
  -2  10 -14 2827.26 130.102   2
   2  10  14 2377.10 114.830   5
  -2 -10 -14 2529.45 122.166   1
  -2  10 -15 5020.14 179.682   2
   2  10  15 4768.96 167.405   5
  -2 -10 -15 4845.95 173.967   1
  -2  10 -16 208.854 49.3140   2
   2  10  16 147.329 50.1711   5
  -2 -10 -16 226.867 51.5363   1
   2  10  17 1984.81 116.810   5
   2  12 -16 1321.57 94.8979   2
   2 -12 -16 1582.53 101.000   1
   2  12 -15 3109.23 136.952   2
   2 -12 -15 2936.08 134.666   1
   2  12 -14 119.640 39.1977   2
   2 -12 -14 183.271 44.6109   1
   2  12 -13 838.572 71.4666   2
   2 -12 -13 825.426 71.5026   1
   2  12 -12 1122.06 78.2392   2
   2 -12 -12 1051.27 76.2103   1
   2  12 -11 5108.27 157.341   2
   2 -12 -11 5140.05 161.034   1
   2  12 -10 3116.43 117.570   2
   2 -12 -10 2905.26 116.426   1
   2  12  -9 8106.29 192.763   2
   2  12  -9 7804.38 125.064   4
   2 -12  -9 8214.04 199.248   1
   2  12  -8 133.290 33.8134   2
   2  12  -8 78.1191 14.6897   4
   2 -12  -8 47.6276 27.3982   1
   2  12  -7 75.1247 26.0552   2
   2 -12  -7 49.6737 28.3068   1
   2  12  -7 67.9978 15.0952   4
   2  12  -6 9.78627 20.6832   2
   2 -12  -6 40.1678 27.6219   1
   2  12  -6 69.5556 15.4233   4
   2 -12  -6 55.6810 23.4968   3
   2 -12  -5 8519.26 189.937   1
   2  12  -5 8974.97 180.354   2
   2 -12  -5 8457.82 112.253   2
   2 -12  -5 8827.04 179.189   3
   2 -12  -4 319.821 39.6002   1
   2  12  -4 329.085 33.0000   2
   2 -12  -4 301.255 18.7081   2
   2 -12  -4 295.251 31.3178   3
   2 -12  -3 20942.8 331.669   1
   2 -12  -3 20038.2 266.775   2
   2  12  -3 20991.3 306.988   2
   2 -12  -3 21028.2 311.225   3
   2 -12  -2 2259.30 87.8286   1
  -2  12   2 2315.39 64.2967   2
   2 -12  -2 2092.76 60.0977   2
   2  12  -2 2193.13 71.3671   2
   2 -12  -2 2284.67 75.5351   3
   2 -12  -1 5364.03 138.573   1
   2 -12  -1 5194.15 109.627   2
  -2 -12   1 5376.13 113.578   2
   2  12  -1 5500.08 114.955   2
  -2  12   1 5393.77 114.138   2
   2 -12  -1 5381.18 121.102   3
  -2 -12   0 6851.66 165.554   1
   2 -12   0 7045.21 160.520   1
   2 -12   0 6810.51 136.382   2
  -2  12   0 7116.68 139.609   2
   2  12   0 7130.35 129.034   2
  -2 -12   0 6728.07 126.087   2
  -2 -12   0 7073.23 157.876   3
   2 -12   0 7287.04 141.944   3
  -2 -12  -1 12313.4 239.558   1
   2  12   1 12532.7 185.135   2
  -2  12  -1 12635.9 213.308   2
  -2 -12  -1 12161.5 228.936   3
   2 -12   1 12653.7 204.184   3
  -2 -12  -2 1648.02 78.5053   1
  -2  12  -2 1737.77 69.0006   2
   2  12   2 1734.29 47.8270   2
  -2 -12  -2 1624.33 74.1590   3
   2  12   3 30327.1 354.949   2
  -2  12  -3 30177.4 426.578   2
  -2 -12  -3 29585.5 447.923   1
  -2  12  -3 30181.2 410.835   4
  -2 -12  -3 29874.6 439.761   3
   2  12   4 2679.40 43.5439   2
  -2  12  -4 2684.10 94.7651   2
  -2 -12  -4 2734.36 103.992   1
  -2  12  -4 2760.05 83.3062   4
  -2 -12  -4 2792.90 101.371   3
  -2  12  -5 4158.72 123.407   2
  -2 -12  -5 4032.24 129.552   1
  -2  12  -5 4062.34 103.081   4
  -2 -12  -5 3754.76 122.567   3
  -2  12  -6 2332.73 94.3318   2
  -2 -12  -6 2312.28 98.7819   1
  -2  12  -6 2072.98 72.1756   4
  -2 -12  -6 2289.92 97.0474   3
  -2  12  -7 3223.80 115.825   2
  -2 -12  -7 3236.92 120.529   1
  -2  12  -7 3346.55 92.5377   4
  -2 -12  -7 3179.20 117.409   3
  -2  12  -8 40.1699 29.3340   2
  -2 -12  -8 88.0981 34.1599   1
  -2  12  -8 69.6506 20.7349   4
  -2 -12  -8 79.3411 33.4183   3
  -2  12  -9 3192.62 123.205   2
  -2  12  -9 2937.32 87.1946   4
  -2 -12  -9 2895.60 119.340   1
  -2  12 -10 2673.09 116.019   2
  -2  12 -10 2565.00 81.4610   4
  -2 -12 -10 2274.53 109.501   1
  -2  12 -11 10501.0 250.652   2
  -2 -12 -11 10109.9 247.604   1
  -2  12 -12 3876.44 149.010   2
  -2 -12 -12 3688.64 144.893   1
  -2  12 -13 1357.90 94.7801   2
  -2 -12 -13 1405.50 94.6925   1
  -2  12 -14 646.405 68.7033   2
  -2 -12 -14 738.589 73.1060   1
  -2 -12 -15 352.968 59.1697   1
   2  14 -15 49.5712 37.9313   2
   2 -14 -15-16.6708 34.9824   1
   2  14 -14 3874.80 157.668   2
   2 -14 -14 4046.71 161.725   1
   2  14 -13 177.611 44.1121   2
   2 -14 -13 254.956 48.1611   1
   2  14 -12 1427.12 91.0826   2
   2 -14 -12 1409.36 91.9577   1
   2  14 -11 2951.15 123.417   2
   2 -14 -11 2619.60 121.525   1
   2  14 -10 384.588 50.9116   2
   2 -14 -10 327.463 48.9328   1
   2  14  -9 2821.08 113.822   2
   2 -14  -9 2746.30 117.140   1
   2  14  -8 3240.89 118.731   2
   2  14  -8 3189.82 78.2662   4
   2 -14  -8 3096.46 122.856   1
   2  14  -7 14.1078 25.6850   2
   2 -14  -7-17.5964 27.3407   1
   2  14  -7 43.3798 16.8996   4
   2  14  -6 5451.16 146.900   2
   2 -14  -6 5404.33 157.584   1
   2  14  -6 5327.13 114.709   4
   2 -14  -6 5265.52 145.556   3
   2 -14  -5 18.6580 28.5190   1
   2  14  -5 114.708 29.3580   2
   2 -14  -5 72.4141 25.7759   3
   2 -14  -4 2212.00 96.6674   1
   2  14  -4 2416.55 88.5722   2
   2 -14  -4 2139.51 85.3017   3
   2 -14  -3 38.3051 28.0029   1
   2 -14  -3 64.3434 15.7595   2
   2  14  -3 61.0816 23.5225   2
   2 -14  -3 78.0979 24.9202   3
   2 -14  -2 11303.4 234.230   1
  -2  14   2 11749.1 188.215   2
   2  14  -2 11622.9 204.480   2
   2 -14  -2 10700.9 180.676   2
   2 -14  -2 11312.8 211.101   3
   2 -14  -1 17592.0 311.259   1
  -2 -14   1 18144.6 320.460   1
   2 -14  -1 17047.6 262.501   2
  -2  14   1 18221.1 269.289   2
   2  14  -1 17802.4 269.343   2
   2 -14  -1 17724.1 282.108   3
  -2 -14   1 17739.5 301.332   3
  -2 -14   0 2435.92 103.600   1
   2 -14   0 2262.60 95.6027   1
   2  14   0 2534.72 74.7992   2
  -2  14   0 2430.91 81.7295   2
  -2 -14   0 2375.88 72.4944   2
  -2 -14   0 2472.66 95.7453   3
   2 -14   0 2446.91 82.7429   3
  -2 -14  -1 1790.47 88.6857   1
   2  14   1 1924.97 59.8884   2
  -2  14  -1 1925.76 74.7342   2
   2 -14   1 1802.45 69.5283   3
  -2 -14  -1 1847.17 82.5707   3
  -2 -14  -2 2800.00 112.068   1
   2  14   2 3128.61 72.3286   2
  -2  14  -2 2987.78 99.6053   2
  -2 -14  -2 3108.80 110.449   3
   2 -14   2 3174.74 92.4811   3
   2  14   3 215.018 17.3381   2
  -2  14  -3 169.038 31.0766   2
  -2 -14  -3 190.903 39.6794   1
  -2  14  -3 219.822 30.2348   4
  -2 -14  -3 158.245 32.8745   3
  -2  14  -4 5203.81 142.927   2
  -2 -14  -4 5182.96 157.315   1
  -2  14  -4 5215.71 129.000   4
  -2 -14  -4 4974.82 148.973   3
  -2  14  -5 1220.18 71.8350   2
  -2 -14  -5 1212.97 78.6944   1
  -2  14  -5 1095.00 56.9844   4
  -2 -14  -5 1137.86 73.1752   3
  -2  14  -6 8853.72 205.016   2
  -2 -14  -6 8456.20 212.666   1
  -2  14  -6 8379.77 170.303   4
  -2 -14  -6 8420.01 207.761   3
  -2  14  -7 1390.64 80.6089   2
  -2 -14  -7 1287.66 82.6708   1
  -2  14  -7 1435.84 63.8475   4
  -2 -14  -7 1345.63 81.7835   3
  -2  14  -8 11545.1 254.986   2
  -2 -14  -8 11160.1 259.744   1
  -2  14  -8 11134.4 202.369   4
  -2 -14  -8 11510.1 259.169   3
  -2 -14  -9 246.257 47.5994   1
  -2  14  -9 236.743 43.9768   2
  -2 -14 -10 32.3132 35.0287   1
  -2  14 -10-10.1503 33.4236   2
  -2 -14 -11 413.303 59.2154   1
  -2  14 -11 510.177 63.0165   2
  -2 -14 -12 6039.34 198.763   1
  -2  14 -12 6402.97 203.021   2
  -2 -14 -13 245.822 51.0256   1
  -2  14 -13 206.878 45.5696   2
   2 -16 -13 276.253 54.6923   1
   2  16 -13 242.691 49.1358   2
   2 -16 -12 31.7976 39.5965   1
   2  16 -12 42.9310 38.6281   2
   2 -16 -11 10135.2 262.673   1
   2  16 -11 10549.5 258.223   2
   2 -16 -10 1895.68 106.751   1
   2  16 -10 1904.38 102.735   2
   2 -16  -9 3270.88 137.095   1
   2  16  -9 3333.53 130.192   2
   2 -16  -8 29.4494 33.0492   1
   2  16  -8 101.160 35.7606   2
   2 -16  -7 1122.04 79.5482   1
   2  16  -7 1087.92 70.9697   2
   2  16  -6 791.651 60.5825   2
   2 -16  -6 692.643 64.1749   1
   2  16  -6 733.333 44.8937   4
   2 -16  -6 680.282 58.2299   3
   2 -16  -5 5960.28 175.523   1
   2  16  -5 5998.41 157.801   2
   2 -16  -5 5928.56 160.651   3
   2 -16  -4 37.2376 32.3125   1
   2  16  -4 57.5702 26.7713   2
   2 -16  -4 61.3122 26.8688   3
   2 -16  -3 2482.51 108.734   1
   2  16  -3 2701.37 94.0226   2
   2 -16  -3 2446.07 95.2034   3
  -2 -16   2 11256.3 252.676   1
   2 -16  -2 11251.4 247.742   1
   2  16  -2 11073.5 208.261   2
  -2  16   2 11636.3 194.358   2
   2 -16  -2 11023.0 219.982   3
  -2 -16   2 10995.0 231.739   3
  -2 -16   1 2449.83 110.592   1
   2 -16  -1 2332.98 105.191   1
  -2  16   1 2546.66 83.5045   2
   2  16  -1 2550.48 84.0258   2
   2 -16  -1 2356.73 90.3638   3
  -2 -16   1 2258.91 96.6231   3
   2 -16   0 1837.59 93.9940   1
  -2 -16   0 1673.34 92.3895   1
  -2  16   0 1668.07 71.6184   2
   2  16   0 1760.22 66.0646   2
   2 -16   0 1589.90 72.8555   3
  -2 -16   0 1659.69 84.7852   3
   2 -16   1 4078.96 138.373   1
  -2 -16  -1 4190.05 146.905   1
   2  16   1 4317.41 100.065   2
  -2  16  -1 4322.52 122.099   2
   2 -16   1 3789.92 112.992   3
  -2 -16  -1 4093.00 134.398   3
  -2 -16  -2 89.8526 36.7656   1
  -2  16  -2 107.855 28.7784   2
  -2 -16  -2 52.9897 29.7247   3
   2 -16   2 73.7787 24.9898   3
  -2  16  -3 6250.53 161.129   2
  -2 -16  -3 6062.61 181.126   1
  -2  16  -3 6094.66 152.455   4
  -2 -16  -3 6232.51 174.173   3
   2 -16   3 5774.76 140.512   3
  -2  16  -4 826.159 60.8652   2
  -2 -16  -4 866.970 71.4672   1
  -2  16  -4 842.212 53.5191   4
  -2 -16  -4 792.687 62.2410   3
  -2  16  -5 2686.73 110.136   2
  -2 -16  -5 2759.00 123.136   1
  -2  16  -5 2856.31 98.3636   4
  -2 -16  -5 2743.11 117.199   3
  -2  16  -6 980.138 71.0472   2
  -2 -16  -6 888.383 74.3255   1
  -2  16  -6 921.265 55.2469   4
  -2 -16  -6 946.005 72.2299   3
  -2 -16  -7 130.949 40.1325   1
  -2  16  -7 161.739 40.3741   2
  -2 -16  -7 192.043 42.9049   3
  -2 -16  -8 78.1278 41.4438   1
  -2  16  -8 62.7246 33.5137   2
  -2 -16  -8 75.1859 36.8885   3
  -2 -16  -9 9632.83 255.521   1
  -2  16  -9 9797.69 249.804   2
  -2 -16 -10-21.5762 38.3428   1
  -2  16 -10-19.4941 35.4426   2
  -2 -16 -11 9120.56 256.313   1
  -2  16 -11 9357.91 253.583   2
   2  18 -12 2941.54 140.090   2
   2 -18 -11 71.7618 42.3134   1
   2  18 -11 70.9306 43.0262   2
   2 -18 -10 768.323 76.7682   1
   2  18 -10 876.458 76.7226   2
   2 -18  -9 572.422 70.3400   1
   2  18  -9 478.073 58.3204   2
   2 -18  -8 6036.31 197.486   1
   2  18  -8 5978.04 181.839   2
   2 -18  -7-1.79582 32.8314   1
   2  18  -7-8.33829 30.3578   2
   2 -18  -6 4281.42 159.476   1
   2  18  -6 4496.48 145.676   2
   2 -18  -6 4152.72 143.929   3
   2 -18  -5 188.294 45.5333   1
   2  18  -5 183.160 35.1028   2
   2 -18  -5 164.823 35.0227   3
   2 -18  -4 22.5077 35.7084   1
   2  18  -4 75.2500 30.2506   2
   2 -18  -4 55.2571 28.5872   3
  -2 -18   3 1236.91 89.8985   1
   2 -18  -3 1100.30 81.9361   1
   2  18  -3 1129.97 67.2931   2
  -2 -18   3 1264.30 78.4658   3
   2 -18  -3 1140.27 72.0025   3
  -2 -18   2 2718.68 125.039   1
   2 -18  -2 2577.82 118.794   1
   2  18  -2 2529.79 94.0937   2
   2 -18  -2 2621.91 102.964   3
  -2 -18   2 2439.26 106.676   3
   2 -18  -1 2347.19 114.923   1
  -2 -18   1 2328.47 115.279   1
   2 -18  -1 2377.26 95.9874   3
  -2 -18   1 2219.95 102.185   3
  -2 -18   0 11583.9 275.302   1
   2 -18   0 11587.3 267.188   1
  -2  18   0 11892.9 225.128   2
  -2 -18   0 11536.3 253.879   3
   2 -18   0 11600.6 231.835   3
  -2 -18  -1 141.752 42.7937   1
   2 -18   1 38.6233 32.9743   1
  -2  18  -1 101.161 30.6365   2
   2 -18   1 58.1122 25.5933   3
  -2 -18  -1 86.9654 33.2419   3
  -2 -18  -2 2453.37 121.065   1
   2 -18   2 2246.91 111.019   1
  -2  18  -2 2326.98 97.4325   2
   2 -18   2 2337.94 91.3111   3
  -2 -18  -2 2318.60 108.920   3
  -2  18  -3 967.579 70.0595   2
  -2 -18  -3 906.890 79.9359   1
  -2  18  -3 979.032 65.7614   4
  -2 -18  -3 884.255 73.2972   3
  -2  18  -4 907.901 68.6541   2
  -2 -18  -4 977.465 80.9302   1
  -2  18  -4 919.324 61.3644   4
  -2 -18  -4 943.353 74.1391   3
  -2 -18  -5-44.8392 39.6046   1
  -2  18  -5-14.2933 31.1863   2
  -2 -18  -5 36.4510 36.0923   3
  -2 -18  -6 5230.40 184.620   1
  -2  18  -6 5233.92 169.879   2
  -2 -18  -6 5375.57 179.271   3
  -2 -18  -7 32.8110 37.2084   1
  -2  18  -7 11.1197 33.0979   2
  -2 -18  -7 0.23524 35.1940   3
  -2 -18  -8 1292.82 94.8203   1
  -2  18  -8 1272.82 89.2167   2
  -2 -18  -8 1350.07 93.9520   3
  -2  18  -9 181.346 46.8868   2
  -2  18 -10 72.9931 42.5618   2
   2  20 -10-11.6523 39.6451   2
   2  20  -9 1366.43 95.1806   2
   2  20  -8 75.8069 33.9165   2
   2 -20  -7 179.841 50.5458   1
   2  20  -7 138.461 41.1341   2
   2 -20  -6 154.897 43.3211   1
   2  20  -6 188.566 41.1261   2
   2 -20  -5 3820.02 158.374   1
   2  20  -5 3806.95 135.912   2
   2 -20  -5 3558.96 137.516   3
  -2 -20   5 3789.02 139.373   3
   2 -20  -4 152.872 48.4226   1
  -2 -20   4 261.355 55.6045   1
  -2 -20   4 65.0776 33.0190   3
   2 -20  -4 94.2058 35.9849   3
  -2 -20   3 2777.56 136.189   1
   2 -20  -3 2927.55 137.208   1
   2 -20  -3 2996.30 119.466   3
  -2 -20   3 2924.25 123.153   3
  -2 -20   2-6.25196 40.9034   1
   2 -20  -2 37.5049 39.6749   1
  -2 -20   2-14.0347 33.1613   3
   2 -20  -2-25.7014 27.0488   3
   2 -20  -1 724.009 74.6083   1
  -2 -20   1 636.667 73.0757   1
  -2 -20   1 535.555 57.6393   3
  -2 -20   0 749.881 80.2064   1
   2 -20   0 817.884 80.1666   1
  -2 -20   0 737.285 69.0602   3
   2 -20   1 2261.99 118.409   1
  -2 -20  -1 2130.42 120.551   1
  -2 -20  -1 2186.28 111.853   3
  -2 -20  -2 186.307 50.4393   1
   2 -20   2 217.169 49.0078   1
  -2 -20  -2 152.379 44.5112   3
  -2 -20  -3 3213.73 147.728   1
   2 -20   3 3190.79 142.543   1
  -2  20  -3 3455.19 129.639   2
  -2 -20  -3 3192.47 136.387   3
  -2 -20  -4 176.500 49.6723   1
   2 -20   4 211.548 52.6604   1
  -2  20  -4 244.356 44.6749   2
  -2 -20  -4 197.412 49.8488   3
  -2  20  -5 2031.81 105.968   2
  -2 -20  -5 1832.18 108.130   3
  -2  20  -6 70.6927 40.9706   2
  -2 -20  -6 82.0750 45.9097   3
  -2  20  -7 457.204 59.2872   2
  -2 -20  -7 514.905 66.4040   3
  -2  20  -8 324.963 56.0117   2
  -2 -22   1 275.314 52.1110   3
  -2 -22   0 2742.97 129.024   3
  -2 -22  -1 233.902 50.3606   3
  -2 -22  -2 736.492 74.3960   3
  -2 -22  -3 1321.17 97.1589   3
   3   1 -21 1790.89 101.083   2
  -3  -1  21 2074.63 119.690   5
  -3   1  21 1919.68 115.681   5
   3   1 -20 3768.94 139.876   2
   3  -1 -20 3783.42 134.299   2
  -3  -1  20 3528.06 149.853   5
  -3   1  20 3799.31 154.599   5
   3   1 -19 1856.96 96.6068   2
   3  -1 -19 1831.39 88.7708   2
  -3   1  19 1781.91 102.533   5
   3   1 -18 5189.07 155.623   2
   3  -1 -18 5414.85 151.945   2
  -3   1  18 5122.54 168.574   5
   3   1 -17 4991.22 147.408   2
   3  -1 -17 5191.17 143.024   2
  -3   1  17 5007.34 160.585   5
   3  -1 -16 4530.20 127.835   2
   3   1 -16 4562.70 135.375   2
  -3   1  16 4600.05 147.616   5
   3  -1 -15 5501.90 137.409   2
   3   1 -15 5377.65 143.809   2
  -3   1  15 5332.85 154.892   5
   3   1 -14 3367.36 106.759   2
   3  -1 -14 3633.34 104.232   2
  -3   1  14 3427.36 116.824   5
   3  -1 -13 421.793 42.4163   1
   3  -1 -13 510.435 37.8165   2
   3   1 -13 534.267 40.7065   2
  -3  -1  13 509.258 34.9620   4
   3  -1 -12 316.306 36.9304   1
   3   1 -12 336.271 33.4516   2
   3  -1 -12 307.658 29.3574   2
  -3  -1  12 282.505 25.9799   4
   3  -1 -11 666.546 45.3936   1
   3  -1 -11 732.907 40.2907   2
  -3   1  11 717.508 39.1589   2
   3   1 -11 744.439 43.7512   2
  -3   1  11 735.081 40.0280   4
  -3  -1  11 663.357 34.3178   4
   3  -1 -10 38167.1 501.908   1
  -3   1  10 38150.2 478.005   2
   3   1 -10 38292.6 489.602   2
  -3  -1  10 38209.1 490.133   2
   3  -1 -10 38431.6 477.934   2
  -3   1  10 38801.8 478.860   4
  -3  -1  10 38633.4 465.264   4
   3  -1  -9 14154.8 226.663   1
  -3  -1   9 14311.2 217.411   2
  -3   1   9 13982.6 206.300   2
   3  -1  -9 13985.1 206.820   2
   3   1  -9 14091.3 216.849   2
  -3   1   9 14363.5 208.558   4
  -3  -1   9 14142.1 195.222   4
   3  -1  -8 4821.35 106.648   1
  -3  -1   8 4838.55 106.081   1
  -3   1   8 5030.47 107.891   1
   3  -1  -8 4662.46 92.9071   2
   3   1  -8 4760.48 100.365   2
  -3  -1   8 4759.35 100.202   2
  -3   1   8 4764.73 93.2523   2
  -3  -1   8 4700.21 83.6133   4
   3  -1  -7 9782.18 158.698   1
  -3  -1   7 9710.22 158.027   1
  -3   1   7 9778.24 159.156   1
   3  -1  -7 9350.46 143.431   2
   3   1  -7 9386.73 151.342   2
  -3   1   7 9337.57 142.960   2
  -3  -1   7 9541.45 152.125   2
  -3  -1   7 9282.27 131.162   4
  -3  -1   6 4141.98 85.7239   1
   3  -1  -6 4035.17 84.9799   1
  -3   1   6 4088.58 85.5884   1
   3  -1  -6 4103.58 75.9930   2
   3   1  -6 3987.35 82.1448   2
  -3  -1   6 3961.84 81.6236   2
  -3   1   6 3980.56 75.7563   2
   3  -1  -5 16793.4 215.613   2
  -3  -1   5 17330.0 225.993   2
   3   1  -5 17111.3 225.216   2
  -3   1   5 16874.9 227.766   5
  -3   1   5 17575.8 227.121   1
  -3  -1   5 17399.4 228.415   1
   3  -1  -5 17454.3 227.062   1
   3   1  -4 267.105 20.4995   2
  -3  -1   4 258.545 21.4269   2
   3  -1  -4 240.215 18.1221   1
  -3   1   4 212.959 17.3630   1
  -3   1   4 206.201 19.6500   5
  -3   1   3 93975.5 1032.57   1
   3  -1  -3 95622.5 1032.62   1
  -3   1   3 95453.1 1036.21   5
  -3  -1   3 94693.7 1021.96   4
   3  -1  -3 95610.3 1035.64   5
   3   1  -3 94908.1 1040.37   2
  -3   1   2 153879. 1644.99   1
   3  -1  -2 154493. 1644.74   1
  -3  -1   2 154231. 1649.00   4
  -3   1   2 154107. 1651.03   5
   3   1  -2 152421. 1649.16   4
   3  -1  -2 153752. 1650.71   5
  -3   1   1 84494.2 910.291   4
   3   1  -1 82326.4 905.535   4
   3  -1  -1 82977.8 909.833   4
  -3  -1   1 82585.5 905.670   4
  -3  -1   0 184.495 11.8386   1
   3  -1   0 234.259 17.5231   4
  -3   1   0 197.495 15.8071   4
  -3  -1   0 252.585 16.9913   4
   3   1   0 206.468 16.2769   4
   3  -1   1 77407.4 860.142   2
  -3  -1  -1 77331.7 843.853   1
   3  -1   1 77647.4 833.930   1
   3   1   1 76192.4 844.320   1
   3   1   1 76653.6 834.189   5
  -3   1  -1 77551.2 858.701   4
   3  -1   1 78600.2 859.079   4
  -3   1  -1 77115.1 838.019   3
   3  -1   1 76425.4 838.494   3
   3   1   1 77720.3 860.845   4
  -3  -1  -1 78342.7 854.620   3
  -3  -1  -1 78834.1 860.068   4
   3  -1   2 10639.7 153.878   2
   3   1   2 10523.5 146.777   2
  -3   1  -2 10520.2 153.309   2
  -3  -1  -2 10287.5 141.018   1
   3   1   2 10273.4 141.026   1
   3  -1   2 10511.9 135.073   1
  -3   1  -2 10198.1 134.441   1
   3  -1   2 10852.1 152.805   4
  -3   1  -2 10479.3 152.435   4
   3   1   2 10386.2 154.196   4
   3  -1   2 10470.4 137.332   3
  -3  -1  -2 10464.9 148.285   3
   3   1   2 10472.9 148.810   3
  -3  -1  -2 10497.8 154.547   4
  -3   1  -3 16240.2 223.462   2
   3   1   3 15781.0 214.989   2
   3  -1   3 16394.3 223.272   2
   3   1   3 16455.4 212.784   1
  -3  -1  -3 16198.8 211.871   1
  -3   1  -3 15879.2 205.780   1
   3  -1   3 16190.5 206.259   1
   3  -1   3 16709.4 222.188   4
   3  -1   3 16626.2 209.307   3
   3   1   3 16060.5 218.696   3
   3   1   3 16406.8 225.086   4
  -3   1  -3 16080.8 220.964   4
  -3  -1  -3 16522.1 225.288   4
  -3  -1  -3 16181.7 217.933   3
   3   1   4 59628.5 689.842   2
   3  -1   4 59595.7 701.130   2
  -3   1  -4 59877.1 700.923   2
   3  -1   4 60160.5 684.240   1
  -3   1  -4 58856.8 683.394   1
   3   1   4 60856.7 690.835   1
  -3  -1  -4 60171.1 689.823   1
   3  -1   4 60549.8 697.931   4
  -3  -1  -4 61189.6 705.191   4
  -3   1  -4 59786.0 697.817   4
   3   1   4 61191.2 703.785   4
   3   1   4 61575.5 698.776   3
   3  -1   4 59924.3 685.609   3
   3  -1   5 74546.8 862.829   2
  -3  -1  -5 74511.3 853.967   2
   3   1   5 74403.6 853.606   2
  -3   1  -5 74233.8 865.069   2
   3  -1   5 75583.5 850.664   1
  -3   1  -5 72526.4 848.317   1
   3   1   5 74765.4 855.315   1
  -3  -1  -5 73935.2 854.337   1
   3  -1   5 75357.9 861.745   4
   3   1   5 75789.3 867.875   4
  -3  -1  -5 75114.0 867.471   4
   3  -1   5 76504.6 852.320   3
  -3   1  -5 74453.3 861.694   4
   3   1   5 76137.5 863.281   3
  -3   1  -6 45.0071 15.5027   1
  -3  -1  -6 55.3087 17.1871   1
   3  -1   6 65.5857 16.8180   1
  -3  -1  -6 46.3916 17.4890   2
   3   1   6 38.2541 13.9305   1
   3   1   6 42.7459 15.5375   2
   3  -1   6 46.6581 16.6866   2
  -3   1  -6 23.2830 16.6996   2
   3   1   6 47.8337 18.9658   4
   3  -1   6 58.8563 15.5168   3
  -3  -1  -6 60.6661 19.6118   4
   3  -1   6 44.2611 14.6893   4
  -3   1  -6 127.709 21.5953   4
   3   1   6 61.6992 18.3413   3
  -3  -1  -7 13463.1 211.276   2
  -3   1  -7 13662.5 221.258   2
   3   1   7 13650.2 210.753   2
   3  -1   7 13583.3 218.603   2
   3  -1   7 13648.3 212.805   1
   3   1   7 13671.0 215.939   1
  -3  -1  -7 13595.2 215.578   1
   3  -1   7 13679.5 217.599   4
  -3  -1  -7 13484.8 221.412   4
   3  -1   7 13438.0 212.725   3
  -3   1  -7 13670.6 218.077   4
   3   1   7 13913.9 221.340   3
  -3  -1  -8 5173.97 120.234   1
  -3  -1  -8 5260.86 116.987   2
  -3   1  -8 5571.85 126.333   2
   3   1   8 5254.28 115.658   2
  -3  -1  -8 5435.48 126.208   4
  -3   1  -8 5390.79 121.924   4
  -3  -1  -9 336.067 32.5124   1
  -3  -1  -9 341.609 31.6071   2
  -3   1  -9 291.839 32.4537   2
  -3  -1  -9 342.958 34.7429   4
  -3   1  -9 380.580 34.9360   4
  -3  -1 -10 10627.3 203.045   1
  -3  -1 -10 10747.1 196.704   2
  -3   1 -10 10529.4 203.921   2
  -3   1 -10 10344.9 198.194   4
  -3  -1 -10 10420.3 204.493   4
  -3  -1 -11 1258.54 64.9819   1
  -3  -1 -11 1344.35 63.9815   2
  -3   1 -11 1156.46 63.1775   2
  -3  -1 -11 1310.77 67.1006   4
  -3   1 -11 1314.56 64.7174   4
  -3  -1 -12 1660.86 74.7058   2
  -3   1 -12 1717.88 79.1254   2
  -3  -1 -12 1542.82 75.6702   1
   3   1  12 1560.57 75.1504   5
  -3   1 -12 1607.82 75.2903   4
  -3  -1 -13 2341.41 91.5750   2
  -3   1 -13 2409.20 97.4665   2
  -3  -1 -13 2220.90 95.2183   1
   3   1  13 2249.39 93.6215   5
  -3   1 -13 2276.15 91.4825   4
  -3   1 -14 653.888 55.8143   2
  -3  -1 -14 730.639 54.4708   2
   3   1  14 670.672 55.5771   5
  -3   1 -15 8018.80 199.174   2
  -3  -1 -15 7672.54 188.784   2
   3   1  15 7546.62 195.762   5
  -3   1 -16 5375.84 166.447   2
  -3  -1 -16 5738.00 163.466   2
   3   1  16 5375.94 168.299   5
   3   1  17 49.4804 38.0861   5
   3  -1  17-12.7923 33.0261   5
  -3  -1 -17 47.0332 33.1344   2
  -3   1 -17 45.6575 34.5582   2
  -3   1 -18 3143.73 132.794   2
   3   1  18 2850.42 130.162   5
   3  -1  18 2960.41 133.171   5
  -3   1 -19 1549.40 97.3783   2
   3  -1  19 1543.43 100.696   5
   3   1  19 1739.48 105.676   5
   3   3 -22 22.6852 36.9142   2
   3   3 -21 6032.39 192.790   2
   3   3 -20 799.898 71.7449   2
  -3   3  20 808.909 76.0598   5
   3   3 -19 1127.77 79.7129   2
  -3   3  19 1083.87 82.7439   5
   3   3 -18 2650.44 115.072   2
   3  -3 -18 2686.27 97.8630   2
  -3   3  18 2833.14 125.877   5
   3  -3 -18 2540.47 119.120   1
   3  -3 -17 3256.65 105.226   2
   3   3 -17 3206.63 121.043   2
  -3   3  17 3200.88 128.774   5
   3  -3 -17 3200.05 128.477   1
   3  -3 -16 4519.22 120.586   2
   3   3 -16 4512.54 140.234   2
  -3   3  16 4605.65 149.049   5
   3  -3 -16 4282.20 144.217   1
   3   3 -15 14003.1 269.030   2
   3  -3 -15 14627.6 241.983   2
  -3   3  15 14466.5 280.980   5
   3  -3 -15 14220.5 281.474   1
   3  -3 -14 1852.43 68.7510   2
   3   3 -14 1839.72 81.3906   2
   3  -3 -14 1792.27 85.2033   1
  -3   3  14 1803.95 85.9764   5
  -3  -3  14 1716.48 60.6614   4
  -3   3  13 8999.58 165.118   2
   3  -3 -13 9197.62 166.219   2
   3   3 -13 9162.10 191.273   2
   3  -3 -13 9580.12 201.578   1
  -3   3  13 9565.73 201.045   5
  -3  -3  13 8797.48 152.563   4
  -3   3  12 14239.0 221.343   2
   3   3 -12 14962.2 253.333   2
   3  -3 -12 14756.1 223.069   2
   3  -3 -12 14840.0 259.956   1
  -3   3  12 14798.5 259.502   5
  -3  -3  12 14346.2 208.536   4
   3   3 -11 347.546 35.5979   2
  -3   3  11 298.855 24.5848   2
   3  -3 -11 342.993 26.2193   2
   3  -3 -11 314.403 34.1176   1
  -3   3  11 355.012 38.0471   5
  -3  -3  11 321.979 22.1897   4
   3   3 -10 3649.36 99.0495   2
   3  -3 -10 3517.73 79.5929   2
   3  -3 -10 3404.69 99.5090   1
  -3   3  10 3698.70 103.276   5
  -3  -3  10 3553.07 70.1500   4
  -3   3  10 3555.48 80.1320   2
   3   3  -9 3559.84 94.9360   2
   3  -3  -9 3501.18 74.8197   2
   3  -3  -9 3545.21 96.7735   1
  -3   3   9 3741.10 99.6527   5
  -3   3   9 3459.27 74.6600   2
  -3  -3   9 3495.78 64.6715   4
   3  -3  -8 954.872 34.2168   2
   3   3  -8 967.550 46.9496   2
  -3  -3   8 969.729 46.1352   2
  -3   3   8 1089.72 49.2352   1
   3  -3  -8 1021.88 49.2273   1
  -3   3   8 972.223 49.3964   5
  -3  -3   8 928.066 26.5233   4
  -3   3   8 1014.56 35.2957   2
   3   3  -7 25978.6 343.258   2
  -3  -3   7 26712.5 344.529   2
   3  -3  -7 25828.7 311.706   2
   3  -3  -7 26786.0 345.621   1
  -3   3   7 27473.8 348.498   1
  -3   3   7 26381.0 346.820   5
  -3  -3   7 25182.1 291.915   4
   3   3  -6 16727.1 236.354   2
  -3  -3   6 17297.2 238.135   2
   3  -3  -6 16376.6 207.980   2
   3  -3  -6 17188.6 237.055   1
  -3   3   6 17007.1 237.683   1
   3  -3  -6 16967.9 238.909   5
  -3   3   6 16740.3 238.256   5
   3   3  -5 1004.74 39.5563   2
  -3  -3   5 1009.51 39.6906   2
  -3   3   5 980.032 38.5792   1
   3  -3  -5 878.792 36.2835   1
   3  -3  -5 934.365 38.4616   5
  -3   3   5 928.054 40.1201   5
   3  -3  -5 824.767 26.0841   2
  -3  -3   4 46225.9 540.112   2
   3   3  -4 46409.5 541.307   2
  -3   3   4 46606.6 537.332   1
   3  -3  -4 46419.4 536.449   1
   3  -3  -4 47319.7 541.465   5
  -3   3   4 45342.3 541.620   5
   3   3  -3 149930. 1574.84   2
   3  -3  -3 146285. 1567.58   1
  -3   3   3 144484. 1567.90   1
   3  -3  -3 149861. 1575.72   5
  -3  -3   3 147724. 1575.29   2
  -3  -3   3 139738. 1543.43   4
  -3   3   2 33417.9 383.169   1
   3  -3  -2 33141.8 382.492   1
  -3  -3   2 33211.0 376.541   4
   3   3  -2 34192.5 391.642   2
   3  -3  -1 11488.4 144.550   1
   3  -3  -1 11579.8 155.280   2
   3   3  -1 11501.0 151.001   4
  -3  -3   1 11287.6 150.384   4
   3  -3   0 459.635 25.1494   2
  -3   3   0 354.159 23.0999   4
  -3  -3   0 373.237 22.3215   4
   3   3   0 360.689 22.1791   4
  -3   3  -1 14053.1 194.555   2
   3  -3   1 13950.8 192.925   2
  -3  -3  -1 13903.3 188.682   1
   3   3   1 14482.7 190.159   1
  -3  -3  -1 13823.9 175.729   5
   3  -3   1 13808.4 188.934   4
  -3   3  -1 13711.8 188.205   4
  -3  -3  -1 13929.4 193.122   4
  -3  -3  -1 13741.1 194.197   3
   3   3   1 14161.6 192.727   4
   3  -3   2 55657.4 648.260   2
  -3   3  -2 56178.7 649.088   2
   3   3   2 55681.6 640.994   1
  -3  -3  -2 56396.1 640.033   1
   3   3   2 55257.7 625.727   5
   3  -3   2 56244.6 639.188   4
  -3  -3  -2 54574.8 625.256   5
  -3   3  -2 54867.3 638.825   4
  -3  -3  -2 56584.3 648.277   4
  -3  -3  -2 55418.9 646.977   3
   3   3   2 57089.3 648.897   3
   3   3   2 56194.5 648.293   4
   3  -3   3 15241.2 220.313   2
  -3   3  -3 15550.7 223.035   2
   3   3   3 14957.1 198.208   2
  -3  -3  -3 15224.7 213.351   1
   3   3   3 15298.6 214.386   1
  -3   3  -3 15084.7 211.290   4
  -3  -3  -3 15091.1 201.424   5
   3  -3   3 15245.9 211.153   4
   3   3   3 15350.1 202.699   5
   3   3   3 16018.3 222.368   3
  -3  -3  -3 15233.9 219.647   3
   3   3   3 15687.6 222.427   4
  -3  -3  -3 15289.9 221.429   4
   3  -3   4 12445.2 193.433   2
  -3   3  -4 12103.6 193.390   2
   3   3   4 12117.8 169.896   2
   3  -3   4 12205.1 174.611   1
  -3  -3  -4 12244.1 186.063   1
   3   3   4 12470.8 187.549   1
   3   3   4 12219.9 176.185   5
   3  -3   4 12389.9 183.235   4
  -3   3  -4 12404.0 183.448   4
  -3  -3  -4 12087.8 194.128   4
   3   3   4 12460.3 193.558   3
   3   3   4 12761.0 196.277   4
  -3  -3  -4 11933.8 191.463   3
  -3   3  -5 68750.3 800.513   2
   3  -3   5 68349.6 799.354   2
  -3  -3  -5 67087.9 789.600   1
   3  -3   5 66945.7 775.432   1
   3   3   5 67740.3 778.395   5
   3  -3   5 67323.0 782.466   4
  -3  -3  -5 65950.4 795.819   3
   3   3   5 68937.1 802.521   4
   3   3   5 68687.4 799.674   3
  -3  -3  -5 67375.5 799.508   4
  -3   3  -6 1037.06 50.6778   2
   3   3   6 951.477 38.1985   2
  -3  -3  -6 1030.19 47.0681   1
   3  -3   6 1028.19 42.6145   1
   3   3   6 1027.57 47.0576   1
   3   3   6 927.017 42.1045   5
   3  -3   6 1033.49 44.2383   4
  -3   3  -6 1066.88 44.9981   4
  -3  -3  -6 1039.18 50.6807   4
   3   3   6 1030.47 49.8085   3
  -3   3  -7 30038.9 415.298   2
   3   3   7 29993.5 383.564   2
  -3  -3  -7 30705.3 408.160   1
   3  -3   7 30414.0 397.458   1
   3  -3   7 30559.6 399.078   4
   3   3   7 30034.6 398.495   5
  -3   3  -7 30321.2 398.513   4
  -3  -3  -7 30867.0 417.932   4
   3   3   8 35.9180 13.6980   2
  -3   3  -8 33.3842 22.6483   2
  -3  -3  -8 15.4266 17.6297   1
   3   3   8 42.0671 18.5146   5
   3  -3   8 36.9066 14.8950   4
  -3   3  -8 28.4482 15.9770   4
  -3  -3  -8 24.3363 19.4421   4
  -3   3  -9 1815.11 75.4889   2
   3   3   9 1711.43 60.4825   2
  -3  -3  -9 1680.11 71.0006   1
   3   3   9 1755.36 69.0791   5
  -3   3  -9 1720.42 66.5329   4
  -3   3 -10 1116.63 63.1276   2
  -3  -3 -10 1049.69 59.0820   1
   3   3  10 1076.55 57.2374   5
  -3   3 -10 1112.95 55.8140   4
  -3   3 -11 2376.60 94.9823   2
  -3  -3 -11 2365.25 92.4661   1
   3   3  11 2545.64 92.6363   5
  -3   3 -11 2354.86 84.6378   4
  -3   3 -12 11383.2 235.455   2
  -3  -3 -12 11126.0 229.053   1
   3   3  12 11238.1 224.623   5
  -3   3 -12 10811.8 212.033   4
  -3   3 -13 18044.3 326.224   2
  -3  -3 -13 17687.5 320.563   1
   3   3  13 18136.3 317.060   5
  -3   3 -13 18080.1 304.940   4
  -3   3 -14 99.1451 32.0940   2
  -3  -3 -14 103.839 32.5945   1
   3   3  14 186.710 39.1996   5
  -3   3 -14 83.4558 27.0700   4
  -3   3 -15 4521.43 152.505   2
  -3  -3 -15 4605.82 153.448   1
   3   3  15 4572.29 150.146   5
  -3   3 -15 4520.21 137.287   4
  -3   3 -16 4456.04 155.645   2
   3   3  16 4274.40 149.868   5
  -3  -3 -16 4368.16 154.216   1
   3   3  17 66.2112 34.3127   5
  -3   3 -17 88.1667 41.4153   2
   3   3  18 16.8614 36.1472   5
  -3   3 -18 70.5019 38.9985   2
   3   3  19 483.658 63.0591   5
  -3   3 -19 602.587 68.5930   2
   3   5 -21 590.159 67.5928   2
   3   5 -20 1558.38 101.785   2
  -3   5  20 1383.14 97.8868   5
   3  -5 -20 1543.43 101.453   1
   3   5 -19 1841.48 102.781   2
  -3   5  19 1752.09 105.113   5
   3  -5 -19 1879.92 107.726   1
   3   5 -18 9701.77 237.561   2
  -3   5  18 9223.92 240.090   5
   3  -5 -18 9345.97 242.106   1
   3   5 -17 115.282 39.6310   2
  -3   5  17 81.9872 37.9586   5
   3  -5 -17 155.872 42.3862   1
   3   5 -16 3651.76 131.189   2
   3  -5 -16 3609.70 98.7332   2
  -3   5  16 3625.44 134.515   5
   3  -5 -16 3666.82 135.432   1
   3  -5 -15 74.3112 19.0533   2
   3   5 -15 134.976 33.9384   2
   3  -5 -15 118.060 34.9862   1
  -3   5  15 67.1966 33.8474   5
   3  -5 -14 4956.66 107.985   2
   3   5 -14 4994.54 144.375   2
   3  -5 -14 4661.40 142.597   1
  -3   5  14 4800.90 144.462   5
  -3   5  14 4444.72 104.019   2
   3   5 -13 43.4165 25.5445   2
  -3   5  13 36.6463 15.2627   2
   3  -5 -13 32.6626 14.5840   2
  -3   5  13 20.0748 26.8639   5
  -3  -5  13 56.1069 14.5282   4
   3  -5 -13 60.3588 27.8636   1
   3  -5 -12 17758.8 243.130   2
   3   5 -12 17489.0 294.509   2
  -3   5  12 17363.0 298.059   5
  -3  -5  12 17204.6 227.424   4
   3  -5 -12 17653.2 300.078   1
   3   5 -11 89.2653 25.7106   2
   3  -5 -11 49.6798 12.3045   2
  -3  -5  11 55.1593 11.0644   4
  -3   5  11 50.7845 24.8853   5
   3  -5 -11 53.5682 24.4856   1
   3   5 -10 20935.1 314.023   2
   3  -5 -10 20131.8 256.009   2
  -3  -5  10 19307.9 239.562   4
  -3   5  10 21009.4 315.590   5
   3  -5 -10 20963.6 316.478   1
   3  -5  -9 1968.59 46.7440   2
   3   5  -9 1960.68 72.7813   2
  -3  -5   9 1970.81 36.7192   4
  -3   5   9 1965.56 74.7444   5
   3  -5  -9 1927.30 72.5562   1
   3  -5  -8 36.9382 10.1272   2
   3   5  -8 50.4082 20.4980   2
   3  -5  -8 59.7806 23.7393   1
  -3   5   8-3.31920 21.4318   5
   3   5  -7 77.6326 20.6551   2
  -3  -5   7 98.5179 19.8619   2
   3  -5  -7 68.2598 9.53155   2
   3  -5  -7 67.5186 20.8831   1
  -3   5   7 81.4842 18.8029   1
  -3   5   7 40.3214 23.2603   5
   3  -5  -7 106.251 21.9587   5
  -3   5   7 65.8927 16.1041   3
   3   5  -6 73485.6 843.927   2
  -3  -5   6 74266.9 844.307   2
   3  -5  -6 72064.5 843.297   1
  -3   5   6 74517.9 844.348   1
   3  -5  -6 73659.0 846.725   5
  -3   5   6 72606.4 847.504   5
  -3   5   6 74722.6 840.732   3
   3  -5  -6 69733.7 788.200   2
  -3  -5   5 2222.34 64.3775   2
   3   5  -5 2293.00 65.6830   2
  -3   5   5 2280.56 64.6119   1
   3  -5  -5 2169.01 63.4826   1
   3  -5  -5 2250.40 66.9671   5
  -3   5   5 2265.39 68.1082   5
  -3   5   5 2281.92 62.8419   3
   3   5  -4 17562.7 235.163   2
  -3  -5   4 17013.7 232.759   2
   3  -5  -4 16949.5 233.422   1
  -3   5   4 17021.5 233.125   1
   3  -5  -4 17735.5 240.432   5
  -3   5   4 16862.9 226.103   3
   3   5  -4 15935.5 193.553   4
   3   5  -3 206.321 20.6741   2
  -3  -5   3 101.587 17.6036   2
  -3   5   3 93.0082 16.9519   1
   3  -5  -3 114.364 18.1359   1
   3  -5  -3 95.6553 11.5139   2
   3  -5  -3 137.217 21.5651   5
   3   5  -3 98.9505 10.9198   4
  -3   5   3 90.8118 14.2777   3
   3  -5  -2 57283.4 647.477   1
   3   5  -2 57365.8 646.658   2
   3  -5  -2 56394.9 636.805   2
   3  -5  -2 56532.2 632.335   3
  -3   5   2 56186.8 632.902   3
  -3  -5   2 57201.4 645.948   2
   3   5  -2 55574.5 633.279   4
   3  -5  -1 8254.55 125.505   1
   3   5  -1 8037.27 120.750   2
   3  -5  -1 8060.17 123.723   2
   3   5  -1 8185.36 123.500   4
   3  -5  -1 8069.56 108.863   3
  -3   5   0 236.119 21.5937   2
   3  -5   0 211.195 19.7783   2
   3   5   0 208.594 16.9032   2
   3  -5   0 199.895 11.5889   3
   3   5   0 218.181 20.3783   4
   3  -5   1 13114.4 191.916   2
  -3   5  -1 13280.9 193.744   2
  -3  -5  -1 13037.7 196.026   1
  -3   5  -1 12848.4 187.448   4
  -3  -5  -1 13191.3 199.226   3
   3   5   1 13222.4 193.212   4
   3  -5   2 6955.80 127.117   2
  -3   5  -2 7181.14 129.857   2
  -3  -5  -2 7155.86 129.217   1
   3   5   2 7207.40 129.510   1
  -3   5  -2 6823.35 119.663   4
  -3  -5  -2 7031.65 118.088   5
   3   5   2 7155.23 129.380   4
  -3  -5  -2 6886.86 131.248   3
  -3   5  -3 7776.63 142.419   2
   3  -5   3 7813.22 141.282   2
   3   5   3 7816.16 141.058   1
  -3  -5  -3 7608.29 138.972   1
  -3   5  -3 7512.69 129.957   4
  -3  -5  -3 7350.50 126.448   5
   3  -5   3 7449.81 129.278   4
   3   5   3 8046.06 143.681   4
  -3  -5  -3 7581.47 143.238   3
   3   5   4 25477.2 315.919   2
  -3   5  -4 27056.9 362.782   2
   3  -5   4 27612.1 363.140   2
  -3  -5  -4 26180.1 355.992   1
   3   5   4 27135.5 359.891   1
  -3  -5  -4 26873.4 343.201   5
   3   5   4 25973.2 341.407   5
   3  -5   4 26752.7 341.836   4
  -3   5  -4 26065.0 341.715   4
   3   5   4 27650.8 365.501   3
  -3  -5  -4 26208.8 361.937   3
   3   5   4 27074.6 362.880   4
   3   5   5 1202.55 36.3170   2
  -3   5  -5 1200.32 55.7314   2
  -3  -5  -5 1239.64 54.1315   1
   3   5   5 1256.04 54.7037   1
   3  -5   5 1344.33 48.9723   4
  -3  -5  -5 1162.11 46.8283   5
   3   5   5 1274.24 50.4195   5
  -3   5  -5 1200.15 46.7256   4
  -3  -5  -5 1220.75 56.4661   3
   3   5   6 5856.54 99.8350   2
  -3   5  -6 5951.26 135.149   2
  -3  -5  -6 5917.14 130.829   1
  -3   5  -6 5841.11 117.412   4
   3   5   6 5663.35 119.769   5
   3  -5   6 5868.53 116.874   4
  -3  -5  -6 5663.69 132.002   3
  -3   5  -7 9474.73 187.264   2
   3   5   7 9455.90 146.807   2
   3  -5   7 9405.82 169.426   1
  -3  -5  -7 9580.48 182.690   1
   3   5   7 9616.81 173.642   5
   3  -5   7 9735.21 166.401   4
  -3   5  -7 9462.40 166.488   4
   3   5   8 25976.4 338.343   2
  -3   5  -8 27071.5 395.235   2
  -3  -5  -8 27653.5 389.825   1
   3  -5   8 26889.5 364.437   4
   3   5   8 26680.2 374.393   5
  -3   5  -8 26047.4 362.155   4
  -3   5  -9 6609.07 158.519   2
   3   5   9 6063.41 117.799   2
  -3  -5  -9 6302.43 150.747   1
   3   5   9 6601.09 146.311   5
  -3   5  -9 6104.91 133.457   4
   3   5  10 7903.71 146.179   2
  -3   5 -10 8524.15 191.566   2
  -3  -5 -10 8240.02 183.362   1
   3   5  10 8364.82 176.502   5
  -3   5 -10 8367.70 166.182   4
   3   5  11 14326.3 232.178   2
  -3   5 -11 15427.2 286.527   2
  -3  -5 -11 15231.4 279.587   1
   3   5  11 15510.6 271.016   5
  -3   5 -11 15928.9 258.659   4
  -3   5 -12 1395.25 79.8507   2
  -3  -5 -12 1390.29 76.5037   1
   3   5  12 1353.65 73.3479   5
  -3   5 -12 1466.48 68.1350   4
  -3   5 -13 607.424 57.3887   2
  -3  -5 -13 528.943 51.8157   1
   3   5  13 474.056 48.2917   5
  -3   5 -13 542.080 44.2204   4
  -3   5 -14 151.083 40.9132   2
  -3  -5 -14 94.7223 32.9126   1
   3   5  14 195.557 42.4824   5
  -3   5 -14 133.182 31.4570   4
  -3   5 -15 393.607 54.4523   2
  -3  -5 -15 493.532 57.0012   1
   3   5  15 386.867 51.7331   5
  -3   5 -15 378.950 41.2609   4
  -3   5 -16 8106.51 223.161   2
   3   5  16 7564.05 207.209   5
  -3  -5 -16 7727.27 215.874   1
  -3   5 -17 370.273 57.9020   2
   3   5  17 285.035 51.5878   5
  -3  -5 -17 291.715 52.2962   1
  -3   5 -18 3354.19 148.809   2
   3   5  18 3296.88 142.158   5
  -3  -5 -18 3397.51 148.223   1
   3   5  19 738.458 76.3586   5
   3   7 -20 1006.24 84.8043   2
  -3   7  20 1105.95 92.7075   5
   3   7 -19 2891.67 133.166   2
  -3   7  19 2678.60 131.934   5
   3  -7 -19 2489.74 126.250   1
   3   7 -18 313.937 51.2940   2
  -3   7  18 325.807 55.4977   5
   3  -7 -18 195.862 43.2025   1
   3   7 -17 700.518 66.8619   2
  -3   7  17 667.596 67.3294   5
   3  -7 -17 753.558 69.9092   1
   3   7 -16 181.225 40.2201   2
  -3   7  16 124.206 42.0829   5
   3  -7 -16 165.524 39.8611   1
   3   7 -15 3143.41 123.220   2
  -3   7  15 3081.28 122.467   5
   3  -7 -15 3080.65 123.595   1
   3   7 -14 3990.62 134.497   2
   3  -7 -14 3998.39 84.5893   2
  -3   7  14 3875.63 134.014   5
   3  -7 -14 3931.00 135.695   1
   3  -7 -13 20264.8 263.298   2
   3   7 -13 20615.6 349.517   2
  -3   7  13 20272.1 348.964   5
   3  -7 -13 20750.9 352.309   1
   3  -7 -12 22442.8 278.090   2
   3   7 -12 22442.9 363.315   2
  -3   7  12 22161.8 362.775   5
   3  -7 -12 22565.7 366.073   1
   3  -7 -11 469.296 20.8466   2
   3   7 -11 438.657 43.5928   2
  -3   7  11 549.284 49.9537   5
   3  -7 -11 491.189 45.1038   1
   3  -7 -10 7853.47 107.937   2
   3   7 -10 8120.35 174.662   2
  -3   7  10 7995.93 175.102   5
   3  -7 -10 7858.08 174.574   1
   3   7  -9 12898.2 228.821   2
   3  -7  -9 12427.8 152.068   2
  -3   7   9 12642.0 227.794   5
   3  -7  -9 12825.4 228.190   1
   3   7  -8 4704.19 118.420   2
   3  -7  -8 4394.75 60.6260   2
  -3   7   8 4605.89 119.753   5
   3  -7  -8 4567.45 118.052   1
   3  -7  -7 5715.89 129.425   1
   3  -7  -7 5589.02 72.0737   2
   3   7  -7 5789.79 129.466   2
   3   7  -6 72.4948 20.8490   2
   3  -7  -6 85.4488 7.99903   2
   3  -7  -6 54.2819 21.4809   1
   3   7  -6 77.0134 8.03104   4
  -3   7   6 90.0206 20.7020   3
   3   7  -5 9542.20 165.464   2
   3  -7  -5 9068.05 119.816   2
  -3  -7   5 9740.44 166.407   2
   3  -7  -5 9315.18 165.621   1
  -3   7   5 9540.48 168.490   1
   3  -7  -5 9457.15 171.668   5
  -3   7   5 9394.92 160.519   3
   3   7  -4 2348.30 67.9188   2
  -3  -7   4 2278.11 66.4459   2
   3  -7  -4 2252.61 46.0430   2
  -3   7   4 2253.96 69.5089   1
   3  -7  -4 2222.91 68.4027   1
   3  -7  -4 2446.28 74.5613   5
  -3   7   4 2303.96 63.7239   3
   3  -7  -3 39900.3 491.739   1
   3   7  -3 40406.2 484.683   2
   3  -7  -3 39455.4 458.636   2
  -3  -7   3 40153.7 484.436   2
  -3   7   3 38923.1 475.118   3
   3  -7  -3 39950.5 475.476   3
   3  -7  -2 11931.2 186.138   1
   3   7  -2 12159.1 178.285   2
   3  -7  -2 11787.7 167.247   2
   3  -7  -2 11930.1 169.699   3
  -3  -7   2 12081.9 177.652   2
   3  -7  -1 20522.6 281.537   1
   3  -7  -1 20686.4 270.511   2
  -3   7   1 20878.4 272.775   2
   3   7  -1 20685.0 267.304   2
   3   7  -1 21195.9 274.544   4
   3  -7  -1 20755.9 259.589   3
   3  -7   0 2722.76 69.1887   2
   3   7   0 2832.75 61.4862   2
  -3   7   0 2848.81 71.7027   2
   3  -7   0 2799.96 56.5919   3
   3   7   0 2809.49 71.7175   4
  -3   7  -1 66437.5 770.325   2
   3  -7   1 65097.9 766.997   2
  -3  -7  -1 65291.5 781.367   1
  -3   7  -1 66152.8 765.348   4
   3   7   1 66732.5 771.940   4
  -3  -7  -1 64959.2 781.668   3
  -3   7  -2 987.930 46.0269   2
   3  -7   2 905.939 43.4989   2
  -3  -7  -2 965.789 48.4580   1
  -3  -7  -2 891.440 43.6236   5
  -3   7  -2 897.702 40.5631   4
   3   7   2 929.635 29.0774   2
   3   7   2 1045.23 47.2709   4
  -3  -7  -2 960.226 48.4290   3
  -3   7  -3 6948.43 138.975   2
   3  -7   3 6840.76 136.538   2
  -3  -7  -3 6587.45 139.283   1
  -3  -7  -3 6557.74 127.686   5
  -3   7  -3 6395.78 122.300   4
  -3  -7  -3 6655.25 140.386   3
  -3   7  -4 8846.65 169.236   2
  -3  -7  -4 8800.73 168.968   1
  -3   7  -4 8671.96 151.172   4
  -3  -7  -4 8778.47 157.645   5
  -3  -7  -4 9043.71 174.002   3
   3   7   5 23478.4 279.052   2
  -3   7  -5 23729.9 345.797   2
  -3  -7  -5 23399.6 342.894   1
  -3   7  -5 22891.2 315.798   4
  -3  -7  -5 23733.5 329.437   5
  -3  -7  -5 23202.9 346.859   3
  -3   7  -6 723.006 47.8851   2
   3   7   6 697.174 25.5649   2
  -3  -7  -6 760.239 48.3844   1
  -3   7  -6 669.124 37.8718   4
   3  -7   6 729.213 38.6748   4
  -3  -7  -6 779.892 50.6481   3
  -3   7  -7 61590.1 763.899   2
   3   7   7 59573.3 675.956   2
  -3  -7  -7 60932.7 757.427   1
  -3   7  -7 60004.4 719.700   4
   3  -7   7 59874.1 718.849   4
   3   7   7 60036.2 738.871   5
  -3  -7  -7 59767.8 761.234   3
   3   7   8 894.525 33.0413   2
  -3   7  -8 987.800 60.1804   2
  -3  -7  -8 1016.58 59.9599   1
   3   7   8 962.458 55.5812   5
   3  -7   8 842.869 43.8906   4
  -3   7  -8 949.022 46.8530   4
   3   7   9 13860.3 196.700   2
  -3   7  -9 14671.7 270.280   2
  -3  -7  -9 14474.6 263.300   1
   3   7   9 14038.9 249.112   5
  -3   7  -9 14165.4 230.261   4
  -3   7 -10 35.8279 26.4987   2
   3   7  10 29.7297 13.3278   2
  -3  -7 -10 69.4170 31.2394   1
   3   7  10 56.4493 28.6334   5
  -3   7 -10 19.2689 17.1461   4
  -3   7 -11 102.878 36.5778   2
  -3  -7 -11 43.1265 29.7061   1
   3   7  11 17.6908 26.3235   5
  -3   7 -11 52.6882 22.1310   4
  -3   7 -12 94.2224 32.9060   2
  -3  -7 -12 75.9020 30.2310   1
   3   7  12-1.33224 31.8209   5
  -3   7 -12 95.8172 23.9809   4
  -3   7 -13 15860.5 316.457   2
  -3  -7 -13 15339.4 305.515   1
   3   7  13 14817.1 291.408   5
  -3   7 -13 15693.3 268.188   4
  -3   7 -14 1765.29 99.8331   2
  -3  -7 -14 1608.10 92.8205   1
   3   7  14 1656.02 89.7247   5
  -3   7 -14 1684.20 76.7551   4
  -3   7 -15 4609.41 167.310   2
   3   7  15 4479.47 153.369   5
  -3  -7 -15 4559.62 163.561   1
  -3   7 -16 107.045 44.5447   2
   3   7  16 79.1068 36.4465   5
  -3  -7 -16 72.0674 39.6604   1
  -3   7 -17 694.977 76.9211   2
   3   7  17 606.307 66.7940   5
  -3  -7 -17 431.978 59.4986   1
   3   7  18 25.3119 39.9542   5
   3   9 -19 190.228 51.8671   2
  -3   9  19 171.443 48.7804   5
   3   9 -18 4799.97 175.517   2
  -3   9  18 4747.26 175.826   5
   3  -9 -18 5082.98 181.958   1
   3   9 -17 1024.03 80.7448   2
  -3   9  17 978.924 79.6722   5
   3  -9 -17 1013.71 79.8181   1
   3   9 -16 6055.49 186.261   2
  -3   9  16 5960.66 186.117   5
   3  -9 -16 6089.70 188.470   1
   3   9 -15 33.8009 31.7055   2
  -3   9  15 24.2538 35.1616   5
   3  -9 -15 2.39854 31.1774   1
   3   9 -14 4988.39 159.079   2
  -3   9  14 4856.72 157.435   5
   3  -9 -14 4985.17 159.062   1
   3   9 -13 199.853 39.2186   2
  -3   9  13 302.881 49.2364   5
   3  -9 -13 135.357 37.2120   1
   3   9 -12 254.171 39.5253   2
  -3   9  12 376.683 47.1603   5
   3  -9 -12 232.179 40.3458   1
   3   9 -11 771.094 56.9755   2
  -3   9  11 733.077 57.9139   5
   3  -9 -11 808.648 59.7822   1
   3  -9 -10 21804.0 358.205   1
   3   9 -10 22834.4 359.422   2
   3  -9  -9 1349.86 68.7622   1
   3   9  -9 1185.36 64.3449   2
   3   9  -9 1188.92 25.1866   4
   3  -9  -8 168.626 30.1246   1
   3   9  -8 126.628 25.6803   2
   3   9  -8 148.102 10.4698   4
   3   9  -7 372.363 36.1099   2
   3   9  -7 333.485 16.6743   4
   3  -9  -7 387.529 37.2985   1
   3  -9  -6 11641.1 206.265   1
   3  -9  -6 10786.0 129.731   2
   3   9  -6 11939.5 203.902   2
   3  -9  -5 580.276 41.6445   1
   3   9  -5 580.918 38.7351   2
   3  -9  -5 540.393 19.6974   2
   3  -9  -5 570.359 36.8615   3
  -3   9   5 505.564 35.0452   3
   3  -9  -4 40651.7 520.963   1
   3  -9  -4 38931.6 461.021   2
  -3  -9   4 41192.2 508.932   2
   3   9  -4 41236.0 509.299   2
  -3   9   4 40602.2 504.162   3
   3  -9  -4 40284.5 501.629   3
   3  -9  -3 3038.61 88.2543   1
   3   9  -3 3139.55 81.7455   2
   3  -9  -3 3041.96 65.8239   2
  -3  -9   3 3205.69 82.2907   2
   3  -9  -3 3195.86 79.9487   3
   3  -9  -2 15879.8 242.239   1
   3   9  -2 15441.7 223.574   2
   3  -9  -2 14808.6 210.634   2
  -3   9   2 15310.2 214.117   2
   3  -9  -2 15112.6 218.233   3
  -3  -9   2 15359.2 223.590   2
   3  -9  -1 1096.07 51.2027   1
   3   9  -1 1091.88 41.5308   2
  -3   9   1 1124.84 44.5985   2
   3  -9  -1 1101.48 42.3516   2
  -3  -9   1 1103.50 42.1747   2
   3  -9  -1 1053.79 39.7884   3
  -3  -9   0 26618.8 379.987   1
   3   9   0 26503.7 335.462   2
  -3   9   0 27230.5 358.007   2
   3  -9   0 26632.8 353.508   2
   3  -9   0 27073.0 336.910   3
   3   9   0 27610.1 362.271   4
  -3  -9  -1 3937.49 108.534   1
  -3   9  -1 4219.41 100.301   2
   3  -9   1 4002.73 96.5328   2
   3   9   1 4000.22 77.5596   2
   3   9   1 4310.91 103.093   4
  -3  -9  -1 4225.76 109.015   3
   3   9   2 41648.3 481.539   2
  -3   9  -2 41805.6 534.156   2
  -3  -9  -2 41757.5 549.054   1
  -3   9  -2 41915.8 523.852   4
  -3  -9  -2 42522.1 548.402   3
   3   9   3 73.3425 10.8083   2
  -3   9  -3 61.9985 22.9210   2
  -3  -9  -3 42.3628 23.7386   1
  -3   9  -3 68.2201 18.3610   4
  -3  -9  -3 50.0676 24.2221   3
  -3   9  -4 10134.8 192.844   2
   3   9   4 10039.5 130.204   2
  -3  -9  -4 10110.8 197.607   1
  -3   9  -4 9944.14 172.847   4
  -3  -9  -4 10003.0 197.560   3
   3   9   5 551.919 18.9567   2
   3   9   5 571.312 18.7510   2
  -3   9  -5 624.128 47.6685   2
  -3  -9  -5 606.193 48.0532   1
  -3   9  -5 639.128 39.0417   4
  -3  -9  -5 649.775 50.2051   3
  -3   9  -6 87.2918 26.5703   2
   3   9   6 72.7546 8.27797   2
   3   9   6 85.0410 8.12260   2
  -3  -9  -6 94.2556 29.5259   1
  -3   9  -6 40.3734 15.4535   4
  -3  -9  -6 78.1133 25.7437   3
  -3   9  -7 711.595 53.7450   2
   3   9   7 752.789 19.9643   2
  -3  -9  -7 817.334 55.0361   1
  -3   9  -7 765.665 42.6742   4
  -3  -9  -7 702.482 54.2426   3
  -3   9  -8 24918.0 390.368   2
   3   9   8 24206.4 276.602   2
  -3  -9  -8 24150.7 384.180   1
  -3   9  -8 23153.0 338.076   4
  -3  -9  -8 23258.2 383.872   3
  -3  -9  -9-4.63867 26.2468   1
  -3   9  -9 24.9035 26.5194   2
  -3   9  -9 42.7144 18.2139   4
  -3  -9 -10 12149.1 255.312   1
  -3   9 -10 12750.4 263.614   2
  -3   9 -10 12386.4 215.861   4
  -3   9 -11 8063.69 207.548   2
  -3  -9 -11 7678.23 199.248   1
   3   9  11 8028.00 192.316   5
  -3   9 -11 7872.60 163.947   4
  -3   9 -12 2397.21 112.629   2
  -3  -9 -12 2352.09 108.128   1
   3   9  12 2288.59 101.779   5
  -3   9 -12 2532.16 87.4091   4
  -3   9 -13 321.441 48.6443   2
   3   9  13 287.513 47.1504   5
  -3  -9 -13 333.021 50.2037   1
  -3   9 -14 1396.96 93.3589   2
   3   9  14 1390.59 86.1582   5
  -3  -9 -14 1352.69 89.0363   1
  -3   9 -15 1074.28 87.3784   2
   3   9  15 994.487 79.5174   5
  -3  -9 -15 1194.22 88.4156   1
  -3   9 -16 3178.02 147.842   2
   3   9  16 3542.21 144.823   5
  -3  -9 -16 3104.96 143.348   1
   3   9  17-52.1767 39.4904   5
   3   9  18 1809.32 114.042   5
  -3  11  18 203.749 54.3423   5
   3  11 -17 892.155 79.4110   2
  -3  11  17 899.058 81.3624   5
   3 -11 -17 981.728 81.7970   1
   3 -11 -16 553.477 64.9052   1
   3  11 -16 558.445 67.9646   2
   3 -11 -15 4104.02 155.300   1
   3  11 -15 4266.10 156.704   2
   3 -11 -14 70.6189 37.0445   1
   3  11 -14-52.7830 36.0671   2
   3 -11 -13 4705.60 156.324   1
   3  11 -13 4431.81 151.287   2
   3 -11 -12 85.1667 34.2987   1
   3  11 -12 100.472 36.2433   2
   3 -11 -11 255.640 42.9582   1
   3  11 -11 335.026 44.1270   2
   3 -11 -10 30.4684 28.9441   1
   3  11 -10 37.4843 26.9743   2
   3  11 -10 41.2612 7.30273   4
   3  11  -9 7803.60 181.606   2
   3  11  -9 7655.47 108.299   4
   3 -11  -9 7643.23 185.023   1
   3  11  -8 31.6780 25.8666   2
   3  11  -8 6.91964 9.09935   4
   3 -11  -8 26.0435 24.4894   1
   3  11  -7 11245.5 215.397   2
   3  11  -7 11146.8 158.864   4
   3 -11  -7 10896.8 220.820   1
   3 -11  -6 141.759 29.5713   1
   3  11  -6 136.765 27.6201   2
   3 -11  -6 125.371 8.48230   2
   3 -11  -5 5712.52 141.164   1
   3 -11  -5 5378.39 85.6058   2
   3  11  -5 5637.78 132.239   2
   3 -11  -5 5532.86 127.972   3
   3 -11  -4 150.379 30.2386   1
   3  11  -4 172.729 26.9859   2
   3 -11  -4 156.202 16.3935   2
   3 -11  -4 140.426 24.0125   3
   3 -11  -3 2897.45 93.9964   1
   3 -11  -3 2611.97 65.0490   2
   3  11  -3 2860.82 83.6133   2
   3 -11  -3 2809.17 81.5762   3
  -3  11   2 11.9025 13.1038   2
   3 -11  -2 78.5516 24.6116   1
  -3 -11   2 49.5722 17.0876   2
   3 -11  -2 22.9510 12.9619   2
   3  11  -2 51.2556 18.3166   2
   3 -11  -2 28.2449 17.2980   3
   3 -11  -1 56909.0 715.606   1
  -3  11   1 58222.7 687.795   2
   3  11  -1 58000.9 680.573   2
   3 -11  -1 56307.4 682.286   2
   3 -11  -1 58283.6 683.113   3
  -3 -11   1 56885.8 679.187   2
  -3 -11   0 4459.48 125.096   1
   3  11   0 4337.70 91.9215   2
   3 -11   0 4322.67 103.398   2
  -3  11   0 4395.98 105.999   2
   3 -11   0 4285.92 95.4572   3
  -3 -11   0 4395.03 120.214   3
  -3 -11  -1 15012.8 266.186   1
  -3  11  -1 15335.8 245.532   2
   3  11   1 15299.1 210.614   2
  -3 -11  -1 15132.1 260.748   3
   3 -11   1 14996.9 220.113   3
  -3  11  -2 3436.27 100.130   2
   3  11   2 3349.18 69.1155   2
  -3 -11  -2 3501.00 112.362   1
  -3  11  -2 3339.15 94.5864   4
  -3 -11  -2 3223.31 105.350   3
   3  11   3 121.329 13.4181   2
  -3  11  -3 110.508 26.8310   2
  -3 -11  -3 98.5845 29.3148   1
  -3  11  -3 133.281 24.2736   4
  -3 -11  -3 137.293 29.1978   3
   3  11   4 12681.3 156.674   2
  -3  11  -4 12610.5 234.028   2
  -3 -11  -4 12445.9 242.738   1
  -3  11  -4 12348.3 212.481   4
  -3 -11  -4 12656.9 242.129   3
  -3  11  -5 37963.2 523.837   2
  -3 -11  -5 36961.2 529.246   1
  -3  11  -5 36865.8 485.697   4
  -3 -11  -5 37371.9 529.855   3
  -3  11  -6 844.710 58.1503   2
  -3 -11  -6 765.043 56.8171   1
  -3  11  -6 728.036 44.2418   4
  -3 -11  -6 821.716 59.0081   3
  -3  11  -7 11685.3 240.719   2
  -3 -11  -7 11366.6 240.754   1
  -3  11  -7 11640.0 204.087   4
  -3 -11  -7 11917.5 245.975   3
  -3 -11  -8 231.760 41.6087   1
  -3  11  -8 212.094 40.7853   2
  -3 -11  -8 225.128 40.9787   3
  -3  11  -8 254.814 29.3025   4
  -3  11  -9 1360.40 82.9900   2
  -3 -11  -9 1352.90 81.4293   1
  -3  11  -9 1295.45 59.9136   4
  -3 -11 -10 5318.60 166.559   1
  -3  11 -10 6108.55 179.366   2
  -3  11 -10 5728.46 134.854   4
  -3 -11 -11 3729.82 141.824   1
  -3  11 -11 4030.67 148.034   2
  -3  11 -11 3944.04 109.496   4
  -3  11 -12 15.7360 36.2599   2
  -3 -11 -12-5.78301 32.4222   1
  -3  11 -13 10284.7 262.327   2
  -3 -11 -13 10099.9 256.651   1
  -3  11 -14 906.416 83.4140   2
  -3 -11 -14 864.538 78.4940   1
  -3  11 -15 4224.70 172.990   2
  -3 -11 -15 4161.25 166.879   1
   3  13 -16 3479.90 152.990   2
   3 -13 -16 3225.38 148.411   1
   3  13 -15 1021.32 83.7719   2
   3 -13 -15 918.577 79.3632   1
   3  13 -14 51.1924 35.0985   2
   3 -13 -14 64.1601 39.8957   1
   3  13 -13 73.0863 39.3842   2
   3 -13 -13 120.802 41.3933   1
   3  13 -12 16740.9 327.638   2
   3 -13 -12 16040.2 326.915   1
   3  13 -11 359.832 47.4020   2
   3 -13 -11 435.139 53.2682   1
   3  13 -10 5762.77 166.131   2
   3 -13 -10 5866.64 171.545   1
   3  13  -9 66.7522 29.5715   2
   3 -13  -9 59.9490 28.2279   1
   3  13  -8 2900.49 107.254   2
   3  13  -8 2710.50 64.6101   4
   3 -13  -8 2594.13 106.689   1
   3  13  -7 2099.33 88.9106   2
   3 -13  -7 2025.86 91.4804   1
   3  13  -7 2045.42 59.0717   4
   3 -13  -6 384.044 45.5089   1
   3  13  -6 337.965 39.1444   2
   3 -13  -6 326.696 37.4008   3
   3 -13  -6 303.029 12.9904   2
   3 -13  -5 118.140 31.6598   1
   3  13  -5 91.2504 25.6558   2
   3 -13  -5 100.028 12.9251   2
   3 -13  -5 135.070 28.0455   3
   3 -13  -4 12357.0 241.123   1
   3  13  -4 12542.3 221.687   2
   3 -13  -4 12135.6 179.046   2
   3 -13  -4 12940.6 224.482   3
   3 -13  -3 193.293 33.5946   1
   3 -13  -3 237.122 23.6634   2
   3  13  -3 262.263 31.5426   2
   3 -13  -3 246.042 31.5043   3
   3 -13  -2 13559.5 252.827   1
   3 -13  -2 13082.8 209.572   2
  -3  13   2 13855.1 214.875   2
   3  13  -2 13787.0 223.984   2
   3 -13  -2 13954.5 227.885   3
  -3 -13   1 109.036 36.2830   1
   3 -13  -1 77.2794 27.8876   1
  -3  13   1 86.0470 20.9748   2
   3  13  -1 69.9659 20.0297   2
  -3 -13   1 82.9072 21.1412   2
   3 -13  -1 90.5323 22.1730   3
  -3 -13   0 3820.64 125.896   1
   3 -13   0 3941.83 119.938   1
  -3  13   0 3986.86 106.075   2
   3  13   0 3954.96 92.7138   2
   3 -13   0 3837.68 97.9381   3
  -3 -13   0 4004.98 120.909   3
  -3 -13  -1 2836.56 107.821   1
   3  13   1 2743.41 70.1266   2
  -3  13  -1 2701.56 90.0117   2
  -3 -13  -1 2735.79 101.534   3
   3 -13   1 2728.27 79.7414   3
  -3  13  -2 11089.4 211.220   2
   3  13   2 10900.9 162.670   2
  -3 -13  -2 11088.6 233.154   1
  -3  13  -2 10728.7 204.014   4
   3 -13   2 11106.4 184.664   3
  -3 -13  -2 10890.5 224.732   3
  -3  13  -3 223.529 32.6973   2
   3  13   3 240.789 17.6912   2
  -3 -13  -3 229.477 40.8320   1
  -3  13  -3 278.385 32.1888   4
  -3 -13  -3 210.154 35.4339   3
   3  13   4 3419.40 55.6461   2
  -3  13  -4 3380.75 112.150   2
  -3 -13  -4 3465.58 123.305   1
  -3  13  -4 3493.08 103.105   4
  -3 -13  -4 3450.93 120.589   3
  -3  13  -5 5386.16 150.658   2
  -3 -13  -5 5276.25 157.386   1
  -3  13  -5 5249.11 128.552   4
  -3 -13  -5 5308.97 155.215   3
  -3  13  -6 118.513 30.8213   2
  -3 -13  -6 145.566 34.4658   1
  -3  13  -6 172.892 26.2227   4
  -3 -13  -6 185.030 40.1763   3
  -3  13  -7 1894.46 93.4173   2
  -3 -13  -7 1730.16 94.4295   1
  -3  13  -7 1688.62 70.4464   4
  -3 -13  -7 1780.02 93.0475   3
  -3  13  -8 2633.46 114.207   2
  -3 -13  -8 2545.82 114.409   1
  -3  13  -8 2639.95 87.9634   4
  -3 -13  -8 2766.59 118.032   3
  -3 -13  -9 13.1808 30.4654   1
  -3  13  -9-8.90756 29.4277   2
  -3  13  -9 26.3892 20.7253   4
  -3  13 -10 12272.5 276.616   2
  -3 -13 -10 11369.5 270.117   1
  -3  13 -11 1849.45 105.497   2
  -3 -13 -11 1789.77 104.809   1
  -3  13 -12 611.136 67.9261   2
  -3 -13 -12 556.509 65.0531   1
  -3  13 -13 1998.80 116.623   2
  -3 -13 -13 1920.19 113.248   1
  -3 -13 -14 1445.37 101.322   1
   3  15 -14 422.436 60.4374   2
   3 -15 -14 525.502 65.7080   1
   3  15 -13 5172.32 177.515   2
   3 -15 -13 5332.99 183.049   1
   3  15 -12 2996.14 132.317   2
   3 -15 -12 3099.39 137.114   1
   3  15 -11 1091.04 78.6118   2
   3 -15 -11 978.317 77.4015   1
   3  15 -10 4915.23 159.738   2
   3 -15 -10 5011.46 168.883   1
   3  15  -9 13561.9 278.367   2
   3 -15  -9 13289.8 287.408   1
   3  15  -8 115.090 33.5900   2
   3 -15  -8 103.503 33.9879   1
   3  15  -7 4242.87 134.666   2
   3 -15  -7 4141.63 142.398   1
   3  15  -7 4470.15 101.092   4
   3 -15  -6 2698.14 112.694   1
   3  15  -6 2862.05 106.180   2
   3 -15  -6 2743.82 102.403   3
   3 -15  -5 371.623 46.7214   1
   3  15  -5 397.763 40.6688   2
   3 -15  -5 376.481 40.7576   3
   3 -15  -4 4305.69 140.714   1
   3  15  -4 4725.38 129.446   2
   3 -15  -4 4632.09 128.972   3
   3 -15  -3 4068.09 134.489   1
   3  15  -3 4140.32 116.277   2
   3 -15  -3 4281.10 120.073   3
   3 -15  -2 246.360 42.0016   1
   3  15  -2 174.022 26.8745   2
   3 -15  -2 235.792 32.2981   3
  -3 -15   1 3660.14 132.328   1
   3 -15  -1 3854.97 128.353   1
  -3  15   1 3746.05 103.513   2
   3  15  -1 3813.01 101.207   2
   3 -15  -1 3901.90 108.505   3
  -3 -15   1 3798.18 124.708   3
   3 -15   0 737.492 61.0471   1
  -3 -15   0 706.748 61.6764   1
  -3  15   0 802.572 51.1149   2
   3  15   0 705.747 40.3308   2
   3 -15   0 817.142 48.4612   3
  -3 -15   0 806.786 60.9654   3
   3 -15   1 6738.97 176.025   1
  -3 -15  -1 6527.58 184.582   1
  -3  15  -1 6919.21 160.693   2
   3  15   1 7207.12 132.209   2
  -3 -15  -1 6772.96 176.629   3
   3 -15   1 7102.61 148.089   3
   3  15   2 1446.49 48.5841   2
  -3  15  -2 1549.57 75.4149   2
  -3 -15  -2 1620.59 89.9124   1
  -3  15  -2 1479.82 72.3650   4
  -3 -15  -2 1465.50 81.5711   3
   3 -15   2 1414.02 61.7476   3
  -3  15  -3 350.240 41.2943   2
  -3 -15  -3 332.294 47.7281   1
  -3  15  -3 346.593 40.8325   4
  -3 -15  -3 348.599 45.2698   3
   3 -15   3 384.411 34.7719   3
  -3  15  -4 3467.15 121.013   2
  -3 -15  -4 3516.81 133.200   1
  -3  15  -4 3531.89 109.755   4
  -3 -15  -4 3411.05 128.010   3
  -3  15  -5 4778.38 147.530   2
  -3 -15  -5 4465.34 154.320   1
  -3  15  -5 4657.28 127.703   4
  -3 -15  -5 4699.46 154.210   3
  -3  15  -6 32.0638 29.9760   2
  -3 -15  -6 128.438 39.4214   1
  -3  15  -6 39.3214 23.5934   4
  -3 -15  -6 42.0011 32.5617   3
  -3  15  -7 1693.61 92.6510   2
  -3 -15  -7 1645.10 96.4581   1
  -3  15  -7 1784.79 75.9775   4
  -3 -15  -7 1812.63 99.1645   3
  -3 -15  -8 1197.07 87.7033   1
  -3  15  -8 1169.07 80.9283   2
  -3 -15  -8 1188.22 83.7615   3
  -3 -15  -9 892.408 78.5827   1
  -3  15  -9 949.370 76.0062   2
  -3 -15 -10 1825.80 110.826   1
  -3  15 -10 1934.95 110.611   2
  -3 -15 -11 4322.34 169.446   1
  -3  15 -11 4496.09 170.949   2
  -3 -15 -12 440.761 63.7203   1
  -3  15 -12 511.974 71.0272   2
   3  17 -13 2628.01 132.631   2
   3 -17 -12 3168.91 146.311   1
   3  17 -12 3199.86 141.891   2
   3 -17 -11 24.4086 37.1230   1
   3  17 -11-47.3397 38.7905   2
   3 -17 -10 2922.08 135.424   1
   3  17 -10 2903.04 126.872   2
   3 -17  -9 1688.85 100.369   1
   3  17  -9 1846.27 97.8891   2
   3 -17  -8 213.095 44.5409   1
   3  17  -8 283.142 44.5311   2
   3 -17  -7 1559.69 95.0071   1
   3  17  -7 1633.72 88.6078   2
   3 -17  -6 2499.21 115.118   1
   3  17  -6 2486.72 103.433   2
   3 -17  -5 702.576 63.7292   1
   3  17  -5 665.789 54.8589   2
   3 -17  -5 690.382 56.8400   3
   3 -17  -4 4548.82 154.787   1
   3  17  -4 4580.03 133.394   2
   3 -17  -4 4580.40 135.973   3
   3 -17  -3 159.084 41.2156   1
   3  17  -3 202.889 34.8242   2
  -3 -17   3 191.749 40.0605   3
   3 -17  -3 204.798 35.0585   3
  -3 -17   2 4742.01 162.872   1
   3 -17  -2 4669.23 154.218   1
   3  17  -2 4486.12 122.665   2
   3 -17  -2 4497.47 128.757   3
  -3 -17   2 4407.65 145.004   3
   3 -17  -1 9217.60 225.098   1
  -3 -17   1 9095.48 233.434   1
   3  17  -1 9372.20 181.769   2
  -3  17   1 9352.51 186.615   2
  -3 -17   1 9002.39 217.848   3
   3 -17  -1 9328.15 194.413   3
   3 -17   0 468.127 53.4043   1
  -3 -17   0 500.346 59.5063   1
  -3  17   0 511.121 44.9773   2
  -3 -17   0 486.822 51.5303   3
   3 -17   0 514.318 42.6611   3
  -3 -17  -1 575.848 62.9392   1
  -3  17  -1 602.796 50.1386   2
   3 -17   1 482.489 56.2713   1
  -3 -17  -1 654.874 59.6010   3
   3 -17   1 490.259 41.5254   3
  -3  17  -2 1984.87 88.8508   2
   3 -17   2 1772.38 95.7531   1
  -3 -17  -2 1987.83 105.702   1
  -3  17  -2 1868.53 87.6800   4
  -3 -17  -2 1870.76 96.4079   3
   3 -17   2 2062.10 78.6878   3
  -3  17  -3 1509.98 81.9410   2
  -3 -17  -3 1535.27 95.2672   1
  -3  17  -3 1495.80 78.0399   4
  -3 -17  -3 1556.50 90.7749   3
  -3  17  -4 2315.79 102.977   2
  -3 -17  -4 2167.74 111.530   1
  -3  17  -4 2279.18 93.0775   4
  -3 -17  -4 2299.68 109.581   3
  -3  17  -5 80.6793 29.6313   2
  -3 -17  -5 169.570 47.0313   1
  -3  17  -5 81.0417 24.9425   4
  -3 -17  -5 63.0410 35.6248   3
  -3 -17  -6 1233.94 89.2720   1
  -3  17  -6 1302.23 85.9609   2
  -3 -17  -6 1453.39 94.0922   3
  -3 -17  -7 7151.23 217.322   1
  -3  17  -7 7317.86 208.623   2
  -3 -17  -7 7196.11 213.056   3
  -3 -17  -8 1081.52 87.7209   1
  -3  17  -8 1008.80 81.6474   2
  -3 -17  -8 1117.73 86.1742   3
  -3 -17  -9 190.837 47.9066   1
  -3  17  -9 197.211 47.6791   2
  -3  17 -10 3965.04 163.469   2
   3  19 -11-9.55695 37.5977   2
   3  19 -10 1880.53 108.678   2
   3 -19  -9 635.662 69.3536   1
   3  19  -9 723.319 68.8065   2
   3 -19  -8 71.7339 41.5618   1
   3  19  -8 28.2784 34.7114   2
   3 -19  -7 716.286 70.6633   1
   3  19  -7 753.843 63.8362   2
   3 -19  -6 294.803 51.8484   1
   3  19  -6 269.218 44.5435   2
   3 -19  -5 210.741 45.8660   1
   3  19  -5 232.010 38.8988   2
   3 -19  -5 191.353 36.2938   3
   3 -19  -4 5459.65 181.955   1
   3  19  -4 5561.32 156.561   2
   3 -19  -4 5603.74 160.396   3
  -3 -19   4 5563.40 172.601   3
   3 -19  -3 573.688 64.0620   1
  -3 -19   3 562.672 69.1542   1
   3 -19  -3 584.832 52.7624   3
  -3 -19   3 498.072 53.6904   3
   3 -19  -2 623.977 65.8085   1
  -3 -19   2 718.814 72.4448   1
   3 -19  -2 716.291 56.7406   3
  -3 -19   2 524.325 56.3575   3
  -3 -19   1 3528.50 148.868   1
   3 -19  -1 3534.50 142.628   1
  -3 -19   1 3200.63 130.265   3
  -3 -19   0 143.168 42.1903   1
   3 -19   0 202.033 44.7584   1
  -3 -19   0 251.040 45.5809   3
   3 -19   1 219.872 43.8711   1
  -3  19  -1 273.949 39.1225   2
  -3 -19  -1 235.356 50.9393   1
  -3 -19  -1 264.260 50.0405   3
  -3  19  -2 8155.73 200.319   2
  -3 -19  -2 8537.79 240.818   1
   3 -19   2 7808.19 218.668   1
  -3  19  -2 8212.75 203.589   4
  -3 -19  -2 7976.71 219.930   3
  -3  19  -3 103.984 34.5792   2
  -3 -19  -3 99.9911 47.1356   1
   3 -19   3 191.803 45.9267   1
  -3  19  -3 102.204 27.3614   4
  -3 -19  -3 99.2178 39.9086   3
  -3 -19  -4 2382.08 126.188   1
  -3  19  -4 2292.46 109.735   2
  -3 -19  -4 2383.74 120.109   3
  -3 -19  -5 3070.75 143.961   1
  -3  19  -5 2882.29 125.328   2
  -3 -19  -5 2824.90 132.995   3
  -3 -19  -6 34.5732 41.2586   1
  -3  19  -6 9.99434 36.4686   2
  -3 -19  -6 27.0356 37.2375   3
  -3  19  -7 1361.90 92.2672   2
  -3 -19  -7 1342.87 96.2761   3
  -3  19  -8 1524.89 102.650   2
   3  21  -9 1095.12 88.3778   2
   3  21  -8 86.0204 41.7683   2
   3  21  -7 2736.22 124.786   2
   3 -21  -5 438.162 64.1576   1
  -3 -21   5 501.518 62.2918   3
   3 -21  -4 1040.22 86.5761   1
  -3 -21   4 854.971 74.0785   3
   3 -21  -3 600.388 69.2018   1
  -3 -21   3 585.192 65.9725   3
   3 -21  -2 54.3872 37.6462   1
  -3 -21   2 75.8018 40.7681   3
   3 -21  -1 3866.44 158.491   1
  -3 -21   1 3763.90 149.849   3
   3 -21   0 111.936 45.5938   1
  -3 -21   0-30.2120 34.7645   3
   3 -21   1 1202.13 90.0767   1
  -3  21  -1 1110.81 80.4667   4
  -3 -21  -1 999.885 83.5268   3
   3 -21   2 133.689 43.3177   1
  -3 -21  -2 331.456 54.4066   3
   3 -21   3 35.0839 42.4504   1
  -3 -21  -3 125.758 42.9349   3
   3 -21   4 47.8143 47.4710   1
  -3 -21  -4 8.28965 39.0686   3
  -3  21  -5 1353.98 93.8940   2
   3 -21   5 1354.32 99.8650   1
  -3  21  -6 25.6403 42.1653   2
   4   0 -21-27.7858 35.7600   2
  -4   0  21 30.2956 37.8176   5
   4   0 -20 5492.10 166.519   2
  -4   0  20 5703.59 188.277   5
   4   0 -19 36.1160 28.0734   2
  -4   0  19 61.6807 40.5806   5
   4   0 -18 307.209 41.8642   2
  -4   0  18 231.264 46.5480   5
   4   0 -17 27.7094 23.4085   2
   4   0 -16 9527.99 201.107   2
   4   0 -15 10.9148 22.6314   2
   4   0 -14 16623.3 273.186   2
   4   0 -13-0.63138 17.2170   2
  -4   0  13 13.7580 15.0697   4
   4   0 -12 2280.57 76.9874   2
  -4   0  12 2400.10 70.5611   4
   4   0 -11-4.02536 15.2477   2
  -4   0  11 16.7463 15.3522   2
  -4   0  11 8.48553 12.4094   4
   4   0 -10 586.131 36.5551   2
  -4   0  10 571.036 36.2560   2
  -4   0  10 562.294 33.0818   4
  -4   0   9 27.9640 19.2327   1
  -4   0   9 54.6965 18.8407   2
   4   0  -9 18.6732 15.6661   2
  -4   0   8 94444.8 1063.18   1
   4   0  -8 91328.7 1047.80   2
  -4   0   8 93182.6 1049.21   2
   4   0  -7 66.9694 17.4224   2
  -4   0   7 33.7966 16.5970   2
  -4   0   7 6.79098 14.3770   1
   4   0  -6 9495.46 146.187   2
  -4   0   6 10234.7 153.459   1
   4   0  -5 15.9295 14.0486   2
  -4   0   5 26.1789 13.7091   1
  -4   0   4 287.206 18.3087   1
  -4   0   3 29.0784 11.0433   4
  -4   0   2 4242.86 71.9142   4
   4   0  -2 4243.42 71.8798   4
  -4   0   2 4088.14 58.1880   5
  -4   0   1 46.4366 13.4459   4
   4   0  -1 29.3977 13.1194   4
  -4   0   0 206005. 2207.75   1
   4   0   0 206352. 2207.86   1
  -4   0   0 210546. 2239.40   4
   4   0   0 211434. 2239.29   4
   4   0   1 24.5057 8.76878   1
  -4   0  -1 4.74836 7.13785   1
   4   0   1-3.39140 15.4777   4
  -4   0  -1 12.4036 11.0327   3
  -4   0  -1 87.5407 17.7379   4
   4   0   2 5287.66 97.8065   2
  -4   0  -2 5107.59 80.6276   1
   4   0   2 5153.87 81.2270   1
   4   0   2 5266.71 99.0128   4
  -4   0  -2 5178.41 88.2335   3
   4   0   2 5253.05 88.9077   3
  -4   0  -2 5267.58 99.5109   4
  -4   0  -3 19.7713 10.7830   1
   4   0   3 3.15105 10.4774   1
   4   0   3 53.2050 16.3755   2
   4   0   3 34.3508 15.2062   4
  -4   0  -3 6.47714 11.7321   3
   4   0   3 37.4660 12.8564   3
  -4   0  -3 30.7536 17.5891   4
   4   0   4 169812. 1858.94   2
   4   0   4 167647. 1842.09   1
  -4   0  -4 167607. 1841.48   1
   4   0   4 172870. 1867.35   4
   4   0   4 170623. 1850.77   3
  -4   0  -4 166706. 1864.77   4
  -4   0  -5 23.6015 17.9524   2
  -4   0  -5 23.4538 15.2846   1
   4   0   5 25.8658 12.7527   1
   4   0   5 25.0954 14.0158   2
  -4   0  -5 28.5743 20.5404   4
   4   0   5 81.8783 21.3111   4
   4   0   5 22.8805 13.9677   3
   4   0   6 19582.7 284.624   2
  -4   0  -6 19922.4 287.528   2
   4   0   6 20267.2 278.507   1
  -4   0  -6 19240.8 274.996   1
   4   0   6 20948.7 294.795   4
  -4   0  -6 19945.3 291.763   4
   4   0   6 19982.9 283.075   3
   4   0   7 10.0433 13.7785   1
  -4   0  -7-20.1168 17.0472   2
  -4   0  -7 7.87991 15.6517   1
  -4   0  -7 3.65677 17.2739   4
   4   0   7-2.36493 14.4914   3
  -4   0  -8 8881.29 166.769   1
  -4   0  -8 8785.88 171.095   2
  -4   0  -8 8899.55 175.849   4
  -4   0  -9 22.5387 21.7472   2
  -4   0  -9 6.09844 17.1787   1
  -4   0  -9-19.2456 21.8869   4
  -4   0 -10 156.946 28.2453   1
  -4   0 -10 145.764 27.7641   2
  -4   0 -10 87.6296 25.1477   4
  -4   0 -11-8.03542 21.8658   2
  -4   0 -11 4.91535 21.7469   4
  -4   0 -12 5874.61 152.733   2
  -4   0 -12 5701.39 153.882   4
  -4   0 -13 20.3665 25.4788   2
  -4   0 -13-46.5152 26.7944   4
  -4   0 -14 20763.0 357.638   2
   4   0  15-38.4717 31.9901   5
  -4   0 -15 3.70150 26.8147   2
   4   0  16 1131.53 79.3424   5
   4   0  17-31.5503 39.2061   5
   4   0  18 2089.76 110.727   5
   4   0  19 6.16855 35.4017   5
   4   2 -22 745.282 72.2548   2
   4   2 -21 947.256 77.7195   2
  -4   2  21 937.422 84.0663   5
   4   2 -20-5.59757 30.7787   2
  -4   2  20-18.4298 35.9508   5
   4   2 -19 10641.7 245.793   2
   4  -2 -19 11479.5 235.286   2
  -4   2  19 11373.5 270.784   5
   4  -2 -18 556.613 48.2478   2
   4   2 -18 623.512 55.5865   2
  -4   2  18 576.866 62.8476   5
   4  -2 -17 3659.16 113.723   2
   4   2 -17 3890.77 129.706   2
  -4   2  17 3887.45 140.608   5
   4   2 -16 530.127 49.0624   2
   4  -2 -16 590.007 44.9664   2
   4  -2 -16 527.511 54.3688   1
  -4   2  16 610.380 57.8559   5
   4   2 -15 1725.17 79.2788   2
   4  -2 -15 1793.87 72.3179   2
   4  -2 -15 1752.77 85.5525   1
  -4   2  15 1764.98 87.0086   5
  -4  -2  15 1511.22 60.1506   4
   4   2 -14 804.731 53.7311   2
   4  -2 -14 773.257 46.0574   2
   4  -2 -14 924.571 61.1916   1
  -4   2  14 833.423 58.7947   5
  -4  -2  14 794.137 40.4803   4
   4   2 -13 9624.81 191.920   2
   4  -2 -13 9685.88 175.635   2
   4  -2 -13 9733.30 202.725   1
  -4   2  13 9458.25 199.899   5
  -4  -2  13 9501.31 158.880   4
   4   2 -12 1656.38 68.9558   2
   4  -2 -12 1650.37 60.4496   2
   4  -2 -12 1692.99 72.8692   1
  -4   2  12 1785.26 75.6332   5
  -4   2  12 1652.54 60.6825   2
  -4  -2  12 1640.29 51.3834   4
   4  -2 -11 35205.1 445.335   2
   4   2 -11 35526.6 468.718   2
   4  -2 -11 35667.5 477.947   1
  -4   2  11 35640.2 478.246   5
  -4   2  11 34697.8 444.884   2
  -4  -2  11 34864.1 423.517   4
   4  -2 -10 267.837 23.0803   2
   4   2 -10 321.375 30.9370   2
   4  -2 -10 330.247 32.4902   1
  -4   2  10 298.410 32.9520   5
  -4   2  10 341.182 26.9903   2
  -4  -2  10 305.106 20.1776   4
   4  -2  -9 17363.4 238.427   2
   4   2  -9 17174.5 256.133   2
  -4  -2   9 17390.1 256.731   2
   4  -2  -9 17301.3 261.278   1
  -4   2   9 17471.9 263.005   5
  -4   2   9 17324.0 238.830   2
  -4  -2   9 17160.3 218.389   4
   4  -2  -8 124.530 18.2423   2
   4   2  -8 51.9442 17.5704   2
  -4  -2   8 108.669 20.9669   2
  -4   2   8 77.3347 19.8730   1
  -4  -2   8 108.185 21.9134   1
   4  -2  -8 113.790 22.5463   1
  -4   2   8 126.525 26.8944   5
  -4  -2   8 90.5278 11.3603   4
  -4  -2   7 1324.69 49.8941   2
   4  -2  -7 1229.03 40.0249   2
   4   2  -7 1248.95 49.1192   2
   4  -2  -7 1241.31 48.5387   1
  -4   2   7 1343.62 49.8351   1
  -4   2   7 1232.96 49.8423   5
   4   2  -6 3865.33 84.5984   2
  -4   2   6 4116.86 85.1373   1
   4  -2  -6 4105.07 85.0636   1
  -4   2   6 4228.93 88.4911   5
   4  -2  -6 3883.88 74.6050   2
  -4  -2   6 4056.78 86.8029   2
   4   2  -5 1864.12 52.8237   2
  -4   2   5 1948.54 50.9243   1
   4  -2  -5 1892.12 50.3800   1
   4  -2  -5 1878.00 52.0349   5
  -4   2   5 1761.53 51.9471   5
  -4  -2   5 1795.62 32.3222   4
  -4  -2   5 1896.41 54.4824   2
   4  -2  -4 3824.77 69.6944   1
  -4   2   4 3921.08 70.6870   1
  -4  -2   4 3801.41 56.6277   4
   4  -2  -4 3966.00 74.9467   5
   4   2  -4 3675.50 56.3630   4
  -4   2   4 3979.20 75.7984   5
   4   2  -4 4001.15 78.6803   2
   4  -2  -3 230312. 2436.66   1
  -4   2   3 229213. 2437.04   1
  -4   2   3 228385. 2446.08   5
   4   2  -3 217610. 2432.48   4
   4  -2  -3 233095. 2446.12   5
  -4  -2   3 229660. 2433.06   4
  -4   2   2 51757.0 574.086   1
   4  -2  -2 52868.2 573.923   1
   4  -2  -2 53237.2 587.206   5
   4   2  -2 51541.9 586.318   4
  -4   2   2 54114.3 600.941   4
  -4   2   1 43399.1 500.025   4
   4   2  -1 41688.4 491.974   4
   4  -2  -1 44043.4 500.447   4
  -4  -2   1 42959.4 492.086   4
  -4  -2   0 43630.9 493.075   1
  -4  -2   0 42926.2 474.104   5
  -4   2   0 43357.6 507.882   4
   4  -2   0 45144.9 508.947   4
  -4  -2   0 43562.7 505.701   4
   4   2   0 43110.0 505.817   4
   4  -2   1 3702.97 78.9451   2
   4   2   1 3775.32 68.8929   1
   4  -2   1 3540.91 53.9561   1
  -4  -2  -1 3660.13 67.7605   1
  -4   2  -1 3595.47 76.2664   4
   4  -2   1 3757.75 76.7713   4
   4   2   1 3654.11 56.4662   5
  -4  -2  -1 3397.88 55.0593   5
  -4  -2  -1 3606.11 77.8192   4
   4  -2   1 3509.60 53.8069   3
   4   2   1 3516.41 76.9067   4
  -4  -2  -1 3651.10 75.1599   3
   4  -2   2 11714.6 175.397   2
   4  -2   2 11316.9 147.292   1
   4   2   2 11133.3 160.147   1
  -4  -2  -2 11573.1 161.332   1
   4   2   2 11527.7 148.912   5
   4  -2   2 11812.0 173.267   4
  -4   2  -2 11225.2 171.438   4
  -4  -2  -2 11284.1 169.960   3
   4  -2   2 11365.4 146.686   3
  -4  -2  -2 11528.0 175.973   4
   4   2   2 11646.9 175.361   4
  -4   2  -3 61683.9 724.416   2
   4  -2   3 62378.8 723.989   2
   4   2   3 60500.5 706.371   2
   4  -2   3 60922.1 691.929   1
   4   2   3 61589.0 706.819   1
  -4  -2  -3 62177.4 706.429   1
  -4   2  -3 61943.0 718.653   4
   4   2   3 61136.8 693.446   5
   4  -2   3 62325.1 718.369   4
   4   2   3 62743.9 718.978   3
  -4  -2  -3 61316.4 716.986   3
   4  -2   3 62156.4 692.126   3
   4   2   3 62374.7 724.396   4
  -4  -2  -3 62788.0 727.011   4
   4   2   4 28.1947 13.1527   2
   4  -2   4 68.1666 17.0095   2
  -4   2  -4 180.721 25.1659   2
  -4  -2  -4 48.0540 15.5563   1
   4   2   4 36.7435 12.7893   1
   4  -2   4 61.8825 13.5052   1
   4  -2   4 40.5314 15.6724   4
   4   2   4 65.8898 15.3554   5
   4  -2   4 50.2240 12.9219   3
  -4  -2  -4 28.2803 15.9551   3
   4   2   4 18.3912 14.6464   3
  -4  -2  -4 45.5225 20.2667   4
   4   2   4 59.7290 18.6066   4
  -4   2  -4 57.0782 17.4302   4
   4   2   5 3595.60 83.0914   2
  -4   2  -5 3585.96 94.3227   2
   4  -2   5 3641.80 93.0576   2
  -4  -2  -5 3727.66 86.9355   1
   4  -2   5 3653.98 80.0406   1
   4   2   5 3750.77 86.8093   1
   4   2   5 3736.92 81.4382   5
   4  -2   5 3756.34 91.0394   4
  -4   2  -5 3604.26 89.0633   4
   4   2   5 3901.11 96.5788   4
   4   2   5 3910.20 93.7006   3
  -4  -2  -5 3657.92 95.6510   4
   4  -2   5 3659.61 79.8259   3
  -4   2  -6 3438.78 95.1982   2
   4   2   6 3487.09 85.0986   2
  -4  -2  -6 3482.08 87.9908   1
   4  -2   6 3440.52 82.7273   1
   4   2   6 3551.91 89.1423   1
   4  -2   6 3493.16 90.4104   4
   4   2   6 3373.08 82.2344   5
   4   2   6 3391.84 91.9977   3
   4  -2   6 3398.47 82.1638   3
  -4  -2  -6 3574.51 97.4402   4
  -4   2  -6 3329.63 89.4707   4
   4   2   7 11472.1 189.440   2
  -4   2  -7 11634.5 207.359   2
  -4  -2  -7 11631.6 198.094   1
   4  -2   7 11937.7 192.351   1
   4   2   7 11531.0 189.787   5
   4  -2   7 11653.6 190.324   3
  -4  -2  -7 11529.4 208.036   4
  -4   2  -7 11690.9 200.159   4
   4   2   8 8820.81 163.364   2
  -4   2  -8 9161.46 181.088   2
  -4  -2  -8 8802.70 171.171   1
   4   2   8 8864.24 165.537   5
  -4  -2  -8 8960.51 182.212   4
  -4   2  -8 8878.23 172.453   4
  -4   2  -9 24828.2 376.723   2
  -4  -2  -9 24938.9 368.529   1
   4   2   9 25379.7 361.600   5
  -4  -2  -9 25623.4 381.752   4
  -4   2  -9 25617.6 371.684   4
  -4   2 -10 8.07753 22.0280   2
  -4  -2 -10 23.7318 19.6735   1
   4   2  10-10.3413 19.5001   5
  -4   2 -10 22.0295 21.7471   4
  -4  -2 -10 22.2060 24.5579   4
  -4   2 -11 19182.7 322.577   2
  -4  -2 -11 19265.7 316.599   1
   4   2  11 18498.4 306.783   5
  -4   2 -11 19108.3 312.820   4
  -4  -2 -11 18534.1 320.979   4
  -4   2 -12 1712.26 84.0648   2
  -4  -2 -12 1599.29 79.5197   1
   4   2  12 1694.50 78.5186   5
  -4   2 -12 1726.12 80.4827   4
  -4  -2 -13 504.810 49.8681   1
  -4   2 -13 470.885 50.0889   2
   4   2  13 555.062 50.0506   5
  -4   2 -13 529.631 48.5133   4
  -4   2 -14 46.8556 32.5169   2
  -4  -2 -14 1.42615 26.4739   1
   4   2  14 48.7988 30.8957   5
  -4   2 -14-5.60652 24.7992   4
  -4   2 -15 10684.9 248.054   2
   4   2  15 10365.5 238.541   5
  -4   2 -15 10903.2 238.139   4
   4   2  16 25.3663 32.2977   5
  -4   2 -16 21.4923 32.9962   2
  -4   2 -17 2717.64 126.213   2
   4   2  17 2788.37 126.435   5
   4   2  18 23.9001 38.2386   5
   4  -2  18-10.2052 38.6130   5
  -4   2 -18 63.8852 38.9624   2
   4   2  19 2131.71 117.721   5
   4   4 -22 5083.28 182.558   2
   4   4 -21 494.163 61.0929   2
  -4   4  21 301.264 56.2103   5
   4   4 -20 4452.97 159.815   2
  -4   4  20 4447.39 169.446   5
   4   4 -19 226.884 45.3999   2
  -4   4  19 151.206 46.2576   5
   4  -4 -19 167.640 47.1383   1
   4  -4 -18 25.7836 20.2215   2
   4   4 -18-6.60109 28.7134   2
  -4   4  18-25.8117 35.8768   5
   4  -4 -18 17.5792 33.3433   1
   4  -4 -17 1911.32 75.4324   2
   4   4 -17 1818.44 91.8397   2
  -4   4  17 1786.33 97.8574   5
   4  -4 -17 1827.91 97.5746   1
   4  -4 -16 3084.46 93.4829   2
   4   4 -16 2983.83 115.646   2
  -4   4  16 3011.76 119.678   5
   4  -4 -16 2944.68 119.540   1
   4  -4 -15 1707.03 65.5335   2
   4   4 -15 1506.63 79.2070   2
   4  -4 -15 1584.95 83.3143   1
  -4   4  15 1581.21 84.8336   5
   4   4 -14 22592.2 361.131   2
   4  -4 -14 23120.6 319.056   2
   4  -4 -14 22831.5 369.939   1
  -4   4  14 22801.2 370.969   5
  -4  -4  14 21972.3 292.749   4
  -4   4  14 21681.2 315.059   2
   4   4 -13 2514.75 93.3554   2
   4  -4 -13 2701.11 75.0498   2
  -4  -4  13 2586.42 61.9624   4
  -4   4  13 2737.77 100.817   5
   4  -4 -13 2537.59 97.5315   1
   4   4 -12 2941.51 98.0057   2
   4  -4 -12 2876.04 75.0378   2
  -4  -4  12 2857.64 61.1384   4
  -4   4  12 2855.65 99.5282   5
   4  -4 -12 2846.36 99.4179   1
   4  -4 -11 3091.62 74.9731   2
   4   4 -11 3157.93 98.6016   2
  -4  -4  11 3213.62 60.6890   4
  -4   4  11 3400.12 104.699   5
   4  -4 -11 3280.42 101.905   1
   4  -4 -10 5182.30 97.1053   2
   4   4 -10 5333.95 125.954   2
  -4   4  10 5334.42 129.046   5
  -4  -4  10 5019.87 76.5814   4
   4  -4 -10 5431.76 127.846   1
   4  -4  -9 3618.15 73.9197   2
   4   4  -9 3666.29 98.8681   2
  -4  -4   9 3526.94 52.4618   4
  -4   4   9 3587.65 99.0061   5
   4  -4  -9 3635.55 97.4937   1
   4   4  -8 3836.58 96.8731   2
  -4  -4   8 3872.81 97.1776   2
   4  -4  -8 3869.59 73.2862   2
  -4   4   8 3976.75 100.033   5
   4  -4  -8 3742.51 96.0054   1
  -4   4   8 3996.15 98.1236   1
   4   4  -7 3678.72 92.1211   2
   4  -4  -7 3455.00 66.9134   2
  -4  -4   7 3765.56 91.6475   2
   4  -4  -7 3700.65 92.5119   5
  -4   4   7 3677.08 92.8867   5
   4  -4  -7 3552.81 89.2013   1
  -4   4   7 3842.23 92.2169   1
  -4  -4   6 1053.79 44.7074   2
   4   4  -6 987.611 44.2837   2
   4  -4  -6 1039.43 42.6920   1
  -4   4   6 998.611 42.7849   1
  -4   4   6 1119.92 47.1200   5
   4  -4  -6 1083.51 45.8414   5
   4   4  -5 1269.42 47.8446   2
  -4   4   5 1393.43 45.8225   1
   4  -4  -5 1201.23 43.8041   1
  -4   4   5 1262.22 49.3205   5
   4  -4  -5 1306.64 48.6172   5
  -4  -4   5 1214.67 47.0914   2
   4   4  -4 60857.0 693.278   2
  -4   4   4 62081.7 685.200   1
   4  -4  -4 61714.2 684.231   1
   4   4  -4 57237.9 651.623   4
   4  -4  -4 61693.8 695.574   5
  -4  -4   4 59886.1 652.563   4
  -4  -4   4 61998.7 693.330   2
   4   4  -3 3357.46 72.0069   2
   4  -4  -3 3292.56 65.2440   1
  -4   4   3 3349.78 65.7947   1
   4  -4  -3 3268.34 72.4028   5
  -4  -4   3 3223.62 56.3721   4
   4   4  -3 3102.41 55.3992   4
   4  -4  -2 161.242 15.0877   1
   4   4  -2 180.871 20.1999   2
  -4   4   2 156.408 11.3669   3
   4   4  -2 149.778 15.5426   4
  -4  -4   2 145.629 14.5948   4
   4  -4  -1 34416.1 412.314   2
   4  -4  -1 34113.8 393.543   1
  -4   4   1 34822.1 418.751   4
  -4  -4   1 33761.5 406.826   4
   4   4  -1 34555.7 407.334   4
   4  -4   0 54476.3 626.045   2
  -4  -4   0 53324.3 622.232   1
  -4   4   0 53890.7 624.807   4
   4   4   0 53636.9 621.423   4
  -4  -4   0 53128.8 620.371   4
   4  -4   1 358.152 26.8635   2
  -4  -4  -1 370.446 27.0731   1
  -4   4  -1 379.627 28.9319   2
  -4   4  -1 359.503 26.4608   4
  -4  -4  -1 373.890 20.7721   5
   4  -4   1 380.034 26.5775   4
  -4  -4  -1 383.368 29.7370   3
  -4  -4  -1 331.267 25.9566   4
   4   4   1 356.169 26.9162   4
  -4   4  -2 1680.51 58.4333   2
   4  -4   2 1740.18 57.6887   2
   4   4   2 1778.98 54.8138   1
  -4  -4  -2 1772.34 54.5252   1
   4  -4   2 1844.86 55.1574   4
  -4   4  -2 1828.31 55.8684   4
  -4  -4  -2 1677.57 44.8850   5
  -4  -4  -2 1695.66 58.2979   4
  -4  -4  -2 1636.89 57.2710   3
   4   4   2 1727.95 57.4329   4
  -4   4  -3 2625.13 76.7807   2
   4  -4   3 2654.93 75.6673   2
  -4  -4  -3 2526.77 69.2274   1
   4   4   3 2744.90 71.9924   1
  -4  -4  -3 2621.59 61.2981   5
   4   4   3 2714.43 62.9583   5
  -4   4  -3 2634.12 70.5241   4
   4  -4   3 2734.51 70.6812   4
   4   4   3 2747.23 76.3865   4
  -4  -4  -3 2595.90 75.8947   4
  -4  -4  -3 2435.44 73.2023   3
   4  -4   4 49227.4 602.934   2
   4   4   4 47763.4 567.314   2
  -4   4  -4 49208.1 604.436   2
  -4  -4  -4 49087.2 591.982   1
   4   4   4 48947.6 592.212   1
   4  -4   4 49083.5 588.230   4
   4   4   4 48087.9 574.014   5
  -4   4  -4 47830.2 586.031   4
   4   4   4 50411.5 605.405   3
  -4  -4  -4 48900.8 603.536   4
  -4  -4  -4 47871.4 600.267   3
   4   4   4 50376.8 605.642   4
  -4   4  -5 14.8027 18.9029   2
   4   4   5 27.2427 12.7491   2
  -4  -4  -5 23.8364 16.3752   1
   4   4   5 27.1272 16.5994   1
   4  -4   5 11.8796 11.3803   1
   4  -4   5 78.2843 18.0999   4
   4   4   5 7.92099 14.6970   5
  -4  -4  -5 35.6188 20.7427   4
  -4   4  -5 57.5966 16.9626   4
  -4  -4  -5 48.0515 20.3170   3
   4   4   6 15196.3 218.945   2
  -4   4  -6 15555.1 254.844   2
  -4  -4  -6 15399.2 242.879   1
   4  -4   6 15932.4 230.322   1
   4   4   6 15541.4 230.106   5
   4  -4   6 15531.7 238.701   4
  -4  -4  -6 15407.8 254.348   4
  -4  -4  -6 14829.5 248.141   3
  -4   4  -6 15344.8 237.393   4
   4   4   7 4884.48 102.765   2
  -4   4  -7 5275.68 131.558   2
  -4  -4  -7 5173.23 122.861   1
   4  -4   7 5159.83 112.931   1
   4   4   7 5101.72 113.696   5
  -4  -4  -7 5076.96 128.958   4
  -4   4  -7 5048.17 116.603   4
  -4   4  -8 28283.4 406.026   2
   4   4   8 26708.8 358.988   2
  -4  -4  -8 26512.9 387.942   1
   4   4   8 27105.6 376.583   5
  -4  -4  -8 27002.3 399.341   4
  -4   4  -8 27211.2 379.671   4
   4   4   9 23.5734 16.0298   2
  -4   4  -9 43.6612 26.5660   2
  -4  -4  -9 22.5649 19.2269   1
   4   4   9 19.7259 18.6744   5
  -4   4  -9 53.9720 20.3298   4
  -4   4 -10 3144.55 111.780   2
  -4  -4 -10 3328.88 109.160   1
   4   4  10 3287.41 102.765   5
  -4   4 -10 3350.66 102.489   4
  -4   4 -11 10510.1 226.823   2
  -4  -4 -11 10350.5 217.102   1
   4   4  11 10209.5 207.892   5
  -4   4 -11 10356.6 206.059   4
  -4   4 -12 2980.91 115.511   2
  -4  -4 -12 3006.41 111.591   1
   4   4  12 2928.24 105.794   5
  -4   4 -12 2994.25 103.826   4
  -4   4 -13 485.443 52.9773   2
  -4  -4 -13 484.750 50.8972   1
   4   4  13 396.129 44.7107   5
  -4   4 -13 384.225 41.2908   4
  -4   4 -14 19437.6 361.939   2
  -4  -4 -14 19286.5 353.016   1
   4   4  14 19102.9 342.756   5
  -4   4 -14 19205.7 332.799   4
  -4  -4 -15 63.7070 33.0982   1
  -4   4 -15 18.8506 30.7664   2
   4   4  15 47.7186 30.8092   5
  -4   4 -15 91.3966 30.7433   4
  -4   4 -16 1402.20 94.5393   2
  -4  -4 -16 1331.37 90.6821   1
   4   4  16 1483.48 89.5317   5
  -4   4 -16 1527.28 83.2754   4
   4   4  17 1065.34 83.4124   5
  -4  -4 -17 999.843 81.3105   1
  -4   4 -17 1027.66 83.3166   2
  -4   4 -18 1530.84 101.426   2
   4   4  18 1464.91 96.9553   5
   4   6 -21 667.230 72.9565   2
   4   6 -20 2874.20 134.464   2
  -4   6  20 3078.22 143.330   5
   4  -6 -20 2767.19 135.894   1
   4   6 -19 8166.47 225.018   2
  -4   6  19 8285.37 231.806   5
   4  -6 -19 8276.82 234.052   1
   4   6 -18 13.6235 32.3977   2
  -4   6  18 26.1000 34.7207   5
   4  -6 -18 78.9424 36.0786   1
   4   6 -17 5464.45 170.249   2
  -4   6  17 5399.00 171.959   5
   4  -6 -17 5365.83 171.825   1
   4   6 -16 5721.88 168.989   2
  -4   6  16 5395.10 167.475   5
   4  -6 -16 5446.12 167.922   1
   4  -6 -15 71.9543 17.5719   2
   4   6 -15 12.6100 25.8838   2
  -4   6  15 76.9333 35.7970   5
   4  -6 -15 2.55391 28.1522   1
   4   6 -14 4377.05 136.048   2
   4  -6 -14 4280.19 94.2332   2
  -4   6  14 4230.52 136.756   5
   4  -6 -14 4120.56 136.650   1
   4   6 -13 3982.50 125.072   2
   4  -6 -13 3954.46 85.3783   2
  -4  -6  13 3841.02 65.8935   4
  -4   6  13 3828.60 126.013   5
   4  -6 -13 3804.67 125.443   1
   4   6 -12 1212.23 65.8400   2
   4  -6 -12 1182.25 41.1297   2
  -4   6  12 1333.54 72.3466   5
  -4  -6  12 1229.34 27.5318   4
   4  -6 -12 1271.66 67.8639   1
   4   6 -11 28028.0 411.771   2
   4  -6 -11 28088.4 342.684   2
  -4   6  11 27771.1 414.054   5
   4  -6 -11 27822.2 412.130   1
   4  -6 -10 201.340 16.4899   2
   4   6 -10 212.111 31.1055   2
  -4   6  10 179.115 31.0419   5
   4  -6 -10 229.008 31.7917   1
   4  -6  -9 4725.87 79.6311   2
   4   6  -9 4668.39 119.517   2
  -4   6   9 4946.90 124.352   5
   4  -6  -9 4990.78 121.783   1
   4   6  -8 2401.96 79.7855   2
   4  -6  -8 2336.06 48.1434   2
   4  -6  -8 2368.23 78.7700   1
  -4   6   8 2450.47 81.9778   5
   4   6  -7 6507.65 135.214   2
  -4   6   7 6631.52 135.139   1
   4  -6  -7 6257.76 132.604   1
  -4   6   7 6664.14 138.827   5
  -4   6   7 6557.18 130.990   3
   4  -6  -7 6221.13 93.8280   2
   4   6  -6 3810.53 95.3665   2
  -4  -6   6 3794.29 94.3137   2
  -4   6   6 4016.80 96.6400   1
   4  -6  -6 3779.01 92.9356   1
   4  -6  -6 3740.75 96.5060   5
  -4   6   6 3784.93 89.7535   3
   4   6  -5 114846. 1270.44   2
  -4  -6   5 115291. 1269.98   2
   4  -6  -5 112117. 1265.72   1
  -4   6   5 113360. 1266.64   1
   4  -6  -5 115883. 1278.49   5
  -4   6   5 113354. 1257.09   3
   4   6  -5 110354. 1211.42   4
   4  -6  -4 56262.6 651.571   2
   4   6  -4 59546.3 682.051   2
   4  -6  -4 58361.5 677.138   1
  -4   6   4 58492.4 681.285   1
   4  -6  -4 59784.6 692.467   5
  -4  -6   4 60072.1 683.498   2
  -4   6   4 56686.3 665.392   3
   4   6  -4 57037.3 642.736   4
   4  -6  -3 412.551 27.6868   1
  -4   6   3 385.224 26.5790   1
   4   6  -3 481.277 28.7568   2
   4  -6  -3 440.143 23.9073   2
   4   6  -3 393.112 20.9468   4
  -4   6   3 415.409 22.9492   3
  -4  -6   3 495.822 30.3280   2
   4  -6  -2 3250.27 73.1875   1
   4  -6  -2 3212.11 70.1137   2
   4   6  -2 3346.62 73.2725   2
   4   6  -2 3301.97 68.9916   4
  -4   6   2 3211.94 60.6478   3
   4  -6  -1 1506.61 46.7571   1
   4  -6  -1 1481.49 48.2696   2
   4   6  -1 1574.29 46.1196   2
   4   6  -1 1565.75 48.3211   4
   4  -6  -1 1501.15 33.6128   3
  -4   6   0 6525.61 121.141   2
   4  -6   0 6471.51 119.244   2
  -4  -6   0 6520.87 126.061   1
  -4   6   0 6573.89 122.356   4
   4  -6   0 6177.69 84.0965   3
   4   6   0 6283.30 104.342   2
   4   6   0 6488.29 118.656   4
   4  -6   1 21102.3 288.879   2
  -4   6  -1 20542.5 289.232   2
  -4  -6  -1 20761.6 292.081   1
  -4   6  -1 20388.1 283.407   4
   4   6   1 21325.9 288.841   4
  -4  -6  -1 20721.5 297.009   3
   4  -6   2 5007.85 111.056   2
  -4   6  -2 5250.26 114.421   2
  -4  -6  -2 5172.83 113.241   1
  -4  -6  -2 5039.26 100.479   5
  -4   6  -2 5150.60 106.267   4
   4   6   2 5447.54 115.078   4
  -4  -6  -2 5243.39 117.887   3
  -4   6  -3 21019.6 305.979   2
  -4  -6  -3 20339.3 299.557   1
   4   6   3 21179.9 302.768   1
  -4   6  -3 21463.7 292.053   4
   4  -6   3 21087.8 290.131   4
  -4  -6  -3 20894.1 282.698   5
  -4  -6  -3 20991.2 307.650   3
  -4   6  -4 712.554 44.4576   2
  -4  -6  -4 637.353 40.4803   1
  -4   6  -4 652.057 37.6942   4
  -4  -6  -4 613.805 35.2315   5
   4  -6   4 675.684 37.4551   4
  -4  -6  -4 661.422 43.5282   3
  -4   6  -5 3653.90 104.742   2
   4   6   5 3395.54 71.8464   2
  -4  -6  -5 3574.64 98.8404   1
  -4  -6  -5 3439.69 86.8367   5
  -4   6  -5 3468.94 89.2964   4
   4  -6   5 3421.24 88.6088   4
   4   6   5 3594.93 90.4548   5
  -4  -6  -5 3525.53 102.866   3
  -4   6  -6 11680.0 216.911   2
   4   6   6 11099.6 166.449   2
  -4  -6  -6 11532.3 207.736   1
   4   6   6 11555.9 194.968   5
  -4   6  -6 11484.6 194.119   4
   4  -6   6 11600.7 194.488   4
  -4  -6  -6 11358.7 213.465   3
  -4   6  -7 8167.15 177.621   2
   4   6   7 7582.29 130.025   2
  -4  -6  -7 8009.22 169.167   1
   4   6   7 8051.62 158.476   5
  -4   6  -7 8214.33 157.592   4
  -4  -6  -7 7852.29 173.419   3
  -4   6  -8 1584.41 76.4112   2
   4   6   8 1437.08 49.8530   2
  -4  -6  -8 1422.90 69.6117   1
   4   6   8 1451.09 64.5861   5
  -4   6  -8 1529.14 63.4258   4
  -4   6  -9 4856.34 141.758   2
   4   6   9 4626.09 100.300   2
  -4  -6  -9 4796.69 134.099   1
   4   6   9 4753.38 124.944   5
  -4   6  -9 4836.45 120.262   4
   4   6  10 755.676 40.0083   2
  -4   6 -10 727.559 57.6853   2
  -4  -6 -10 659.399 53.1508   1
   4   6  10 643.338 47.7623   5
  -4   6 -10 696.147 46.6654   4
  -4   6 -11 18992.6 344.314   2
  -4  -6 -11 19381.4 334.744   1
   4   6  11 18724.3 318.973   5
  -4   6 -11 19326.1 309.665   4
  -4   6 -12 2636.29 113.785   2
  -4  -6 -12 2410.79 103.636   1
   4   6  12 2410.11 99.4482   5
  -4   6 -12 2398.85 92.5394   4
  -4   6 -13 46.1700 34.5168   2
  -4  -6 -13 53.1681 32.5510   1
   4   6  13 34.2927 28.6133   5
  -4   6 -13-17.4572 23.7447   4
  -4   6 -14 9300.21 237.518   2
  -4  -6 -14 8958.03 227.700   1
   4   6  14 9204.10 220.441   5
  -4   6 -14 9280.31 205.053   4
  -4   6 -15 2047.59 111.254   2
   4   6  15 2046.82 103.203   5
  -4  -6 -15 2074.76 107.841   1
   4   6  16-23.8665 38.9126   5
  -4  -6 -16 1.44582 35.3249   1
  -4   6 -16 33.7666 35.2467   2
  -4   6 -17 2564.89 133.195   2
   4   6  17 2604.24 125.728   5
  -4  -6 -17 2651.38 132.066   1
   4   6  18-11.5699 44.7974   5
   4   8 -20 681.540 72.2522   2
   4   8 -19 4674.43 171.243   2
  -4   8  19 3857.88 160.373   5
   4  -8 -19 4554.51 173.452   1
   4   8 -18 47.3835 33.7367   2
  -4   8  18-28.8728 41.8166   5
   4  -8 -18-2.84288 36.5537   1
   4   8 -17 6492.44 193.325   2
  -4   8  17 6285.18 192.918   5
   4  -8 -17 6332.44 194.279   1
   4   8 -16 1929.43 100.889   2
  -4   8  16 1888.65 102.554   5
   4  -8 -16 2001.00 103.450   1
   4   8 -15 394.680 50.3747   2
  -4   8  15 366.707 49.9105   5
   4  -8 -15 394.258 50.4815   1
   4   8 -14 6266.84 173.801   2
  -4   8  14 6410.67 177.337   5
   4  -8 -14 6237.90 174.912   1
   4  -8 -13 1008.04 31.5479   2
   4   8 -13 1006.07 66.4176   2
  -4   8  13 1003.93 70.2373   5
   4  -8 -13 1051.84 67.4258   1
   4  -8 -12 5174.11 80.9388   2
   4   8 -12 4979.56 144.355   2
  -4   8  12 5165.37 148.015   5
   4  -8 -12 5082.87 145.295   1
   4   8 -11 25942.9 393.843   2
   4  -8 -11 24922.9 290.294   2
  -4   8  11 25231.8 392.775   5
   4  -8 -11 25039.3 391.447   1
   4   8 -10 7509.69 170.765   2
   4  -8 -10 7323.08 97.1985   2
  -4   8  10 7514.17 173.301   5
   4  -8 -10 7505.26 170.838   1
   4  -8  -9 2646.85 43.3997   2
   4   8  -9 2630.84 91.4118   2
  -4   8   9 2520.14 93.0481   5
   4  -8  -9 2680.84 92.3720   1
   4  -8  -8 4963.57 125.713   1
   4  -8  -8 4759.66 69.7606   2
   4   8  -8 5010.42 125.451   2
   4  -8  -8 4916.03 69.4778   2
   4   8  -7 3733.37 102.443   2
   4  -8  -7 3697.90 58.8396   2
   4  -8  -7 3714.13 102.326   1
   4   8  -7 3402.31 49.4085   4
   4   8  -7 3485.86 49.7487   4
   4  -8  -6 15415.7 243.969   1
   4   8  -6 15987.9 243.645   2
   4  -8  -6 14242.9 186.458   2
   4   8  -6 15060.9 183.244   4
  -4   8   6 15615.6 234.812   3
  -4   8   5 3187.40 88.4895   1
   4  -8  -5 3004.93 85.3707   1
   4   8  -5 3119.20 85.4200   2
  -4  -8   5 3128.64 85.7196   2
   4  -8  -5 2982.07 59.4743   2
  -4   8   5 3166.20 81.4142   3
   4   8  -5 2904.24 57.9754   4
   4  -8  -4 69.8593 21.1097   1
   4   8  -4 33.0673 16.5489   2
   4  -8  -4 62.7008 12.4196   2
  -4  -8   4 95.3564 19.4166   2
  -4   8   4 64.7665 15.4680   3
   4   8  -4 90.3816 12.9370   4
   4  -8  -3 5640.41 118.642   1
   4   8  -3 5782.38 115.184   2
   4  -8  -3 5624.99 101.735   2
   4  -8  -3 5655.79 104.153   3
  -4  -8   3 6009.28 116.670   2
   4   8  -3 5600.27 101.916   4
   4  -8  -2 28312.1 372.508   1
   4  -8  -2 28023.4 356.119   2
   4   8  -2 28194.3 360.354   2
   4   8  -2 28369.2 358.462   4
   4  -8  -2 28266.0 346.009   3
   4  -8  -1 71.8068 18.7445   1
  -4   8   1 35.6191 14.8381   2
   4   8  -1 83.9180 17.3319   2
   4  -8  -1 75.6618 15.3313   2
   4  -8  -1 73.0230 11.5937   3
   4   8  -1 60.0095 16.3346   4
  -4  -8   0 26541.3 369.896   1
   4  -8   0 25997.3 350.231   2
  -4   8   0 27076.3 354.716   2
   4   8   0 26244.1 329.926   2
   4   8   0 26917.3 354.785   4
   4  -8   0 26291.1 314.810   3
  -4   8  -1 16911.8 253.683   2
   4   8   1 16322.3 220.027   2
   4  -8   1 16686.5 251.940   2
  -4  -8  -1 16544.4 263.178   1
  -4   8  -1 16945.9 251.631   4
   4   8   1 17233.7 255.080   4
   4  -8   1 16736.0 209.017   3
  -4  -8  -1 16864.0 265.035   3
  -4   8  -2 2502.94 79.8218   2
  -4  -8  -2 2347.46 80.4101   1
  -4   8  -2 2505.26 74.4711   4
  -4  -8  -2 2322.57 72.1368   5
  -4  -8  -2 2362.97 82.6226   3
   4   8   2 2331.30 54.2843   2
  -4   8  -3 15782.2 255.394   2
  -4  -8  -3 15463.8 256.117   1
  -4  -8  -3 15540.0 238.334   5
  -4   8  -3 15339.0 237.153   4
  -4  -8  -3 15615.7 259.292   3
  -4   8  -4 4625.46 121.178   2
  -4  -8  -4 4444.38 118.202   1
  -4   8  -4 4522.39 106.891   4
  -4  -8  -4 4474.36 107.164   5
  -4  -8  -4 4563.72 123.051   3
   4   8   5 317.627 19.3252   2
  -4   8  -5 358.413 38.3227   2
  -4  -8  -5 372.710 38.3378   1
  -4   8  -5 338.833 29.8015   4
  -4  -8  -5 418.951 40.6793   3
  -4   8  -6 36556.4 504.853   2
   4   8   6 35377.8 420.314   2
  -4  -8  -6 36410.4 499.435   1
  -4   8  -6 36048.5 469.864   4
  -4  -8  -6 35974.4 506.571   3
   4   8   7 1432.41 41.8591   2
  -4   8  -7 1520.78 76.2742   2
  -4  -8  -7 1555.43 73.8681   1
  -4   8  -7 1539.47 62.8742   4
  -4  -8  -7 1380.35 72.4486   3
  -4   8  -8 13861.9 264.500   2
   4   8   8 13322.3 187.640   2
  -4  -8  -8 13361.2 255.555   1
  -4   8  -8 13931.5 231.745   4
  -4  -8  -8 13678.5 263.074   3
  -4   8  -9 11775.9 246.262   2
  -4  -8  -9 11486.9 237.189   1
   4   8   9 11418.3 223.208   5
  -4   8  -9 11681.1 211.178   4
  -4   8 -10 9988.86 228.927   2
  -4  -8 -10 9358.02 216.462   1
   4   8  10 9453.72 203.951   5
  -4   8 -10 9674.86 190.025   4
  -4   8 -11 8722.77 219.485   2
  -4  -8 -11 8204.96 205.416   1
   4   8  11 8540.21 196.776   5
  -4   8 -11 8571.37 180.505   4
  -4   8 -12 21652.5 391.389   2
  -4  -8 -12 20753.4 375.888   1
   4   8  12 20885.1 359.235   5
  -4   8 -12 21058.1 335.675   4
  -4   8 -13 1464.14 92.9478   2
  -4  -8 -13 1527.36 91.0711   1
   4   8  13 1430.23 84.4954   5
  -4   8 -13 1508.31 74.8671   4
  -4   8 -14 1530.60 97.0204   2
   4   8  14 1403.90 84.8994   5
  -4  -8 -14 1472.81 93.4523   1
  -4   8 -15 2017.52 114.511   2
   4   8  15 2061.84 106.882   5
  -4  -8 -15 2048.24 113.209   1
  -4   8 -16 1208.23 95.0040   2
   4   8  16 1195.55 85.9439   5
  -4  -8 -16 1170.23 89.9776   1
   4   8  17 2824.13 133.795   5
  -4  10  19 117.042 51.9827   5
   4  10 -18 515.736 64.9896   2
  -4  10  18 475.832 64.1327   5
   4 -10 -18 535.437 66.0738   1
   4  10 -17 4819.54 170.942   2
  -4  10  17 4506.99 167.553   5
   4 -10 -17 4747.15 170.894   1
   4  10 -16 1898.98 104.688   2
  -4  10  16 1891.16 105.969   5
   4 -10 -16 2086.17 109.494   1
   4  10 -15 127.342 39.9898   2
  -4  10  15 203.129 48.4835   5
   4 -10 -15 136.952 40.2909   1
   4  10 -14 2218.29 105.741   2
  -4  10  14 2025.92 104.213   5
   4 -10 -14 1970.47 101.918   1
   4  10 -13 5080.04 156.849   2
  -4  10  13 5123.83 160.145   5
   4 -10 -13 5320.89 160.636   1
   4 -10 -12 1012.91 68.9898   1
   4  10 -12 1039.86 69.2376   2
   4 -10 -11 7047.03 177.363   1
   4  10 -11 6594.40 171.388   2
   4 -10 -10 155.167 33.1649   1
   4  10 -10 152.714 32.7532   2
   4 -10  -9 1232.04 67.5245   1
   4  10  -9 1250.74 67.2688   2
   4  10  -8 5144.74 134.292   2
   4 -10  -8 5107.38 135.395   1
   4  10  -8 5000.40 72.0687   4
   4  10  -8 4821.34 70.9913   4
   4  10  -7 1882.48 76.1870   2
   4 -10  -7 1780.05 34.5577   2
   4 -10  -7 1901.02 78.8124   1
   4  10  -7 1890.48 43.0930   4
   4  10  -7 1840.88 42.3665   4
   4 -10  -6 567.480 43.8005   1
   4 -10  -6 532.404 21.4268   2
   4  10  -6 608.930 43.3011   2
   4  10  -6 569.780 25.5917   4
   4 -10  -5 6636.44 145.840   1
   4  10  -5 6598.12 140.085   2
   4 -10  -5 6226.13 102.579   2
   4  10  -5 6395.13 109.648   4
  -4  10   5 6505.27 134.526   3
   4 -10  -4 3188.25 94.9218   1
   4  10  -4 3214.37 88.9571   2
   4 -10  -4 3036.08 68.4356   2
   4 -10  -4 3154.44 82.8956   3
   4  10  -4 3149.17 73.7801   4
   4 -10  -3 13478.0 225.651   1
   4  10  -3 13473.9 214.145   2
   4 -10  -3 12971.8 195.137   2
  -4 -10   3 14168.0 217.326   2
   4  10  -3 13520.3 203.065   4
   4 -10  -3 13486.1 204.603   3
   4 -10  -2 12588.3 214.121   1
   4  10  -2 12609.8 197.662   2
   4 -10  -2 12448.2 192.650   2
   4 -10  -2 12368.0 188.085   3
   4  10  -2 12616.2 198.622   4
   4 -10  -1 48.0151 20.6365   1
  -4  10   1 33.8774 16.7930   2
   4 -10  -1 60.1579 16.4457   2
   4  10  -1 39.2017 14.0976   2
   4 -10  -1 43.4745 13.4472   3
   4  10  -1 63.4227 19.1175   4
  -4 -10   0 9974.46 196.619   1
   4  10   0 10096.7 158.497   2
  -4  10   0 10178.0 179.559   2
   4 -10   0 9662.08 174.009   2
   4 -10   0 9901.92 150.912   3
   4  10   1 7349.90 122.318   2
  -4  10  -1 7456.13 151.539   2
  -4 -10  -1 7202.34 162.464   1
  -4  10  -1 7236.58 148.964   4
   4 -10   1 7296.48 118.166   3
  -4 -10  -1 7401.29 162.693   3
   4  10   2 183.451 17.6200   2
  -4  10  -2 203.755 29.9653   2
  -4 -10  -2 232.629 34.1751   1
  -4  10  -2 194.364 25.2744   4
  -4 -10  -2 178.320 29.7507   3
  -4  10  -3 3823.18 111.330   2
   4  10   3 3917.91 73.0365   2
  -4 -10  -3 3990.26 117.926   1
  -4  10  -3 3974.41 103.596   4
  -4 -10  -3 3912.88 117.611   3
  -4  10  -4 21336.6 332.647   2
   4  10   4 20659.6 252.348   2
  -4 -10  -4 20015.0 331.496   1
  -4  10  -4 20233.2 304.782   4
  -4 -10  -4 21324.7 339.828   3
  -4  10  -5 8843.48 192.819   2
   4  10   5 8926.68 121.010   2
   4  10   5 8628.87 121.323   2
  -4 -10  -5 8772.76 192.212   1
  -4  10  -5 9082.45 172.762   4
  -4 -10  -5 8906.45 196.594   3
  -4  10  -6 15797.8 285.718   2
   4  10   6 15642.4 191.869   2
   4  10   6 15633.4 190.781   2
  -4 -10  -6 15944.7 286.893   1
  -4  10  -6 15260.1 251.528   4
  -4 -10  -6 15780.5 289.156   3
  -4  10  -7 3452.89 119.766   2
   4  10   7 3299.35 55.9114   2
  -4 -10  -7 3421.15 118.443   1
  -4  10  -7 3483.56 99.6443   4
  -4 -10  -7 3534.41 122.605   3
   4  10   7 3503.58 56.5459   2
  -4  10  -8 1062.17 70.6693   2
  -4 -10  -8 1057.48 70.6930   1
  -4  10  -8 1012.14 54.8852   4
  -4 -10  -8 900.199 66.4404   3
  -4 -10  -9 146.775 35.7022   1
  -4  10  -9 213.291 40.9873   2
  -4  10  -9 196.018 30.3834   4
  -4 -10 -10 2646.93 113.732   1
  -4  10 -10 2614.63 116.294   2
  -4  10 -10 2711.60 92.5519   4
  -4 -10 -11 30.4718 31.7658   1
  -4  10 -11 174.297 45.3185   2
  -4  10 -11 79.3202 26.3762   4
  -4  10 -12 5119.01 173.440   2
  -4 -10 -12 4559.69 158.561   1
  -4  10 -13 175.410 43.0790   2
  -4 -10 -13 242.281 49.1129   1
  -4  10 -14 5265.60 186.492   2
  -4 -10 -14 5084.24 177.041   1
  -4  10 -15 1722.40 112.119   2
  -4 -10 -15 1608.93 103.031   1
   4  12 -17 7441.46 224.301   2
   4 -12 -17 7172.50 223.109   1
   4  12 -16 2384.90 121.425   2
   4 -12 -16 2370.22 121.881   1
   4  12 -15 798.919 72.3159   2
   4 -12 -15 794.267 70.7696   1
   4  12 -14 2532.74 118.428   2
   4 -12 -14 2477.79 117.672   1
   4  12 -13 9577.55 234.588   2
   4 -12 -13 9272.83 232.326   1
   4  12 -12 351.200 49.0331   2
   4 -12 -12 343.197 48.2276   1
   4  12 -11 3459.05 126.373   2
   4 -12 -11 3573.37 130.028   1
   4  12 -10 2373.96 100.356   2
   4 -12 -10 2433.84 103.600   1
   4  12  -9 7634.83 182.651   2
   4 -12  -9 7808.27 188.214   1
   4  12  -9 7543.09 104.700   4
   4  12  -8 5985.45 154.134   2
   4 -12  -8 5844.66 157.332   1
   4  12  -8 5909.77 95.3717   4
   4  12  -8 5706.49 94.3643   4
   4 -12  -7 2864.87 104.126   1
   4  12  -7 2950.40 101.048   2
   4 -12  -7 2580.87 42.5341   2
   4  12  -7 2836.53 63.8912   4
   4 -12  -6 8455.50 186.726   1
   4 -12  -6 8401.37 120.831   2
   4  12  -6 8699.70 180.672   2
   4  12  -6 8273.84 138.002   4
   4 -12  -5 8989.40 190.585   1
   4 -12  -5 8516.39 134.593   2
   4  12  -5 9379.78 182.496   2
   4  12  -5 8824.73 149.524   4
   4 -12  -4 1501.81 70.7015   1
   4  12  -4 1480.42 64.0675   2
   4 -12  -4 1389.29 47.0152   2
   4  12  -4 1386.48 52.6536   4
   4 -12  -4 1435.90 59.4532   3
   4 -12  -3 20734.0 324.967   1
   4  12  -3 20979.6 305.225   2
   4 -12  -3 19805.4 281.173   2
   4 -12  -3 21089.6 299.259   3
   4  12  -3 20639.7 295.503   4
   4 -12  -2 6124.02 146.203   1
   4  12  -2 6090.25 127.114   2
   4 -12  -2 5685.19 120.199   2
   4 -12  -2 6072.39 123.082   3
  -4  12   1 171.032 26.0779   2
   4 -12  -1 180.717 30.4270   1
   4  12  -1 94.7804 18.1974   2
   4 -12  -1 165.843 22.1614   3
   4 -12   0 926.782 54.8351   1
  -4 -12   0 842.589 58.6321   1
   4  12   0 921.197 40.8822   2
  -4  12   0 973.103 50.6252   2
  -4 -12   0 867.365 56.0396   3
   4 -12   0 971.384 41.1663   3
  -4 -12  -1 6250.50 161.349   1
  -4  12  -1 6257.00 143.469   2
   4  12   1 6257.37 114.727   2
   4 -12   1 6295.32 117.673   3
  -4 -12  -1 6144.82 157.498   3
   4  12   2 78.5601 15.5452   2
  -4  12  -2 36.9243 21.7812   2
  -4 -12  -2 53.1239 27.9946   1
  -4  12  -2 43.9423 20.3556   4
  -4 -12  -2 78.1148 28.3351   3
   4 -12   2 66.1038 17.9203   3
   4  12   3 32921.7 389.601   2
  -4  12  -3 33699.3 472.883   2
  -4 -12  -3 32300.9 484.366   1
  -4  12  -3 32378.6 450.586   4
  -4 -12  -3 32227.1 481.338   3
   4  12   4 779.816 25.6518   2
  -4  12  -4 788.143 55.1431   2
  -4 -12  -4 686.962 55.1192   1
  -4  12  -4 780.473 47.8025   4
  -4 -12  -4 710.854 55.2769   3
  -4  12  -5 54.9487 25.9339   2
   4  12   5 36.9970 6.56316   2
  -4 -12  -5 72.8157 31.3548   1
  -4  12  -5 1.21628 18.2998   4
  -4 -12  -5 2.06502 25.7635   3
  -4  12  -6 5059.51 150.431   2
  -4 -12  -6 4763.68 147.465   1
  -4  12  -6 4942.50 125.687   4
  -4 -12  -6 5292.13 156.897   3
  -4  12  -7 2347.92 104.374   2
  -4 -12  -7 2182.77 101.647   1
  -4  12  -7 2315.90 84.0879   4
  -4 -12  -7 2357.97 105.947   3
  -4 -12  -8 114.604 37.3357   1
  -4  12  -8 200.232 42.6849   2
  -4 -12  -8 71.8573 33.2383   3
  -4  12  -8 69.3900 20.9624   4
  -4  12  -9 6941.84 195.475   2
  -4 -12  -9 6634.78 190.722   1
  -4  12  -9 6882.69 157.217   4
  -4 -12 -10 207.461 45.1629   1
  -4  12 -10 208.340 46.0642   2
  -4  12 -10 135.109 27.5035   4
  -4 -12 -11 4804.39 168.171   1
  -4  12 -11 5003.42 175.216   2
  -4 -12 -12 1628.18 100.181   1
  -4  12 -12 1650.91 104.354   2
  -4 -12 -13 87.3404 40.0329   1
  -4  12 -13 1.69773 34.7763   2
  -4 -12 -14 285.760 52.8194   1
   4 -14 -16 2336.84 127.215   1
   4  14 -16 2439.08 129.983   2
   4 -14 -15 5.22201 38.6168   1
   4  14 -15 4.52025 33.8207   2
   4 -14 -14 7525.08 221.526   1
   4  14 -14 7460.20 217.066   2
   4 -14 -13 3100.61 134.254   1
   4  14 -13 2913.46 128.978   2
   4 -14 -12 41.1982 35.3114   1
   4  14 -12 44.5902 33.0641   2
   4 -14 -11 1811.47 96.6260   1
   4  14 -11 1856.70 96.5125   2
   4 -14 -10 5297.80 165.953   1
   4  14 -10 5255.22 160.422   2
   4 -14  -9 304.860 46.0774   1
   4  14  -9 309.971 43.3338   2
   4 -14  -8 9809.00 227.126   1
   4  14  -8 10047.3 219.725   2
   4 -14  -7 606.185 54.6698   1
   4  14  -7 602.789 50.5517   2
   4 -14  -6 4351.15 137.947   1
   4  14  -6 4493.81 129.647   2
   4 -14  -5 943.132 64.0464   1
   4  14  -5 855.008 54.0107   2
   4 -14  -5 952.314 54.6784   3
   4 -14  -4 396.167 44.5597   1
   4  14  -4 437.633 41.1071   2
   4 -14  -4 384.512 27.1370   2
   4 -14  -4 407.021 36.9383   3
   4 -14  -3 8492.07 193.448   1
   4 -14  -3 8329.87 153.240   2
   4  14  -3 8755.85 174.247   2
   4 -14  -3 8811.73 171.464   3
   4 -14  -2 22126.3 363.685   1
   4  14  -2 22783.2 331.028   2
   4 -14  -2 23044.5 330.118   3
   4 -14  -1 4442.13 132.469   1
  -4 -14   1 4421.89 141.793   1
  -4  14   1 4509.78 116.129   2
   4  14  -1 4570.13 109.039   2
   4 -14  -1 4424.07 108.069   3
  -4 -14   1 4488.34 136.236   3
  -4 -14   0 4012.37 135.688   1
   4 -14   0 4143.93 126.387   1
   4  14   0 4233.44 98.9917   2
  -4  14   0 4090.33 115.411   2
   4 -14   0 4101.43 100.496   3
  -4 -14   0 3956.03 129.226   3
  -4 -14  -1 6484.67 175.786   1
  -4  14  -1 6284.85 152.617   2
   4  14   1 6420.60 121.962   2
   4 -14   1 6659.49 130.814   3
  -4 -14  -1 6419.93 170.401   3
  -4  14  -2 333.796 38.9509   2
   4  14   2 292.142 23.5152   2
  -4 -14  -2 379.148 48.5599   1
  -4  14  -2 337.528 39.1196   4
  -4 -14  -2 340.155 43.5586   3
   4 -14   2 327.485 29.3092   3
   4  14   3 234.244 18.3877   2
  -4  14  -3 230.289 35.5552   2
  -4 -14  -3 198.145 39.1048   1
  -4  14  -3 195.833 30.0105   4
  -4 -14  -3 194.861 38.0828   3
   4 -14   3 190.828 23.8394   3
  -4  14  -4 5679.56 157.713   2
  -4 -14  -4 5476.30 166.034   1
  -4  14  -4 5401.72 139.901   4
  -4 -14  -4 5415.60 163.033   3
  -4  14  -5 212.089 39.2467   2
  -4 -14  -5 263.143 43.9242   1
  -4  14  -5 261.325 33.4588   4
  -4 -14  -5 265.894 47.7579   3
  -4  14  -6 7145.51 189.537   2
  -4 -14  -6 6839.83 191.132   1
  -4  14  -6 6585.42 158.217   4
  -4 -14  -6 6526.07 188.058   3
  -4  14  -7 1167.68 78.8057   2
  -4 -14  -7 990.511 75.8628   1
  -4  14  -7 1111.54 62.3226   4
  -4 -14  -7 1056.35 76.9872   3
  -4  14  -8 6557.36 192.560   2
  -4 -14  -8 6135.36 188.846   1
  -4  14  -8 6229.58 151.984   4
  -4 -14  -8 6131.22 188.889   3
  -4 -14  -9 1687.23 99.2292   1
  -4  14  -9 1773.87 101.573   2
  -4 -14  -9 1609.57 98.4856   3
  -4 -14 -10 1880.68 107.680   1
  -4  14 -10 2115.45 115.130   2
  -4 -14 -11 252.623 50.7991   1
  -4  14 -11 233.600 47.7334   2
  -4 -14 -12 2490.90 129.052   1
  -4  14 -12 2653.43 134.457   2
   4 -16 -14 67.2016 43.2499   1
   4  16 -14 113.090 44.0296   2
   4 -16 -13 3620.43 155.197   1
   4  16 -13 3585.62 149.566   2
   4 -16 -12 286.629 52.1415   1
   4  16 -12 263.463 49.9926   2
   4 -16 -11 9073.74 242.089   1
   4  16 -11 9237.08 236.228   2
   4 -16 -10 203.498 45.2522   1
   4  16 -10 216.378 43.4530   2
   4 -16  -9 1883.78 102.454   1
   4  16  -9 1731.37 92.7092   2
   4 -16  -8 171.524 42.4641   1
   4  16  -8 208.946 41.5075   2
   4 -16  -7 3006.64 123.937   1
   4  16  -7 3245.82 118.309   2
   4 -16  -6-16.8238 30.1809   1
   4  16  -6-1.04840 24.6989   2
   4 -16  -5 12563.8 266.677   1
   4  16  -5 12740.3 245.310   2
   4 -16  -5 12586.0 240.969   3
   4 -16  -4 983.872 68.5472   1
   4  16  -4 999.942 59.7528   2
   4 -16  -4 1048.61 60.8087   3
   4 -16  -3 4134.55 138.897   1
   4  16  -3 4152.43 118.117   2
   4 -16  -3 4028.97 116.399   3
   4 -16  -2 2002.59 95.7302   1
  -4 -16   2 2164.89 105.127   1
   4  16  -2 1643.32 69.5764   2
   4 -16  -2 1571.88 69.1923   3
  -4 -16   2 2047.41 95.9486   3
   4 -16  -1 163.231 37.5533   1
  -4 -16   1 97.3502 41.7646   1
   4  16  -1 152.607 27.3503   2
   4 -16  -1 72.3034 23.2076   3
  -4 -16   1 95.9892 35.0630   3
  -4 -16   0 2355.69 111.771   1
   4 -16   0 2321.24 102.392   1
   4  16   0 2279.62 74.7121   2
  -4  16   0 2542.02 93.7891   2
   4 -16   0 2442.72 82.3289   3
  -4 -16   0 2354.11 105.987   3
  -4 -16  -1 9250.92 231.719   1
   4 -16   1 9225.06 215.997   1
  -4  16  -1 9494.96 203.209   2
  -4 -16  -1 9393.11 224.621   3
   4 -16   1 9412.42 177.478   3
  -4  16  -2 680.222 56.1090   2
  -4 -16  -2 550.424 58.7915   1
  -4  16  -2 632.824 51.0222   4
   4 -16   2 633.990 41.2782   3
  -4 -16  -2 678.836 62.4115   3
  -4  16  -3 3329.68 121.342   2
  -4 -16  -3 3398.21 136.207   1
  -4  16  -3 3318.46 113.815   4
  -4 -16  -3 3084.99 126.219   3
  -4  16  -4 1235.94 76.8477   2
  -4 -16  -4 1258.39 84.0700   1
  -4  16  -4 1280.71 70.1098   4
  -4 -16  -4 1343.60 85.3654   3
  -4  16  -5 2125.17 102.818   2
  -4 -16  -5 2081.47 110.111   1
  -4  16  -5 1953.08 85.5411   4
  -4 -16  -5 2120.86 108.347   3
  -4  16  -6 175.745 42.0380   2
  -4 -16  -6 241.525 49.6233   1
  -4  16  -6 153.091 33.8498   4
  -4 -16  -6 212.728 45.6817   3
  -4 -16  -7 562.548 63.0515   1
  -4  16  -7 534.906 60.7075   2
  -4 -16  -7 604.348 64.8420   3
  -4 -16  -8 64.4186 38.0932   1
  -4  16  -8 19.6718 37.4399   2
  -4 -16  -8 114.728 39.7438   3
  -4 -16  -9 6649.53 213.531   1
  -4  16  -9 7223.97 216.801   2
  -4 -16  -9 7108.35 218.000   3
  -4 -16 -10 11.3956 41.1617   1
  -4  16 -10-4.53048 35.8124   2
   4  18 -12 374.354 57.9596   2
   4 -18 -11 120.437 44.9509   1
   4  18 -11 149.827 45.1689   2
   4 -18 -10 2239.42 120.872   1
   4  18 -10 2274.88 114.181   2
   4 -18  -9 714.983 69.6982   1
   4  18  -9 613.009 61.3771   2
   4 -18  -8 5384.67 182.995   1
   4  18  -8 5309.62 167.187   2
   4 -18  -7 165.104 42.9690   1
   4  18  -7 217.319 39.8360   2
   4 -18  -6 3167.75 133.945   1
   4  18  -6 3161.41 120.143   2
   4 -18  -5 72.5123 38.9958   1
   4  18  -5 83.6181 33.1255   2
   4 -18  -4 546.302 60.2062   1
   4  18  -4 638.118 53.6023   2
   4 -18  -4 665.328 53.9814   3
   4 -18  -3 543.847 58.2414   1
  -4 -18   3 733.899 72.1817   1
   4  18  -3 691.486 50.7079   2
  -4 -18   3 684.569 62.6118   3
   4 -18  -3 600.877 48.5413   3
  -4 -18   2 6925.02 207.060   1
   4 -18  -2 6954.19 195.644   1
   4 -18  -2 7061.41 165.732   3
  -4 -18   2 6820.22 191.679   3
   4 -18  -1 908.163 74.5437   1
  -4 -18   1 919.461 78.2462   1
  -4 -18   1 905.261 70.8376   3
   4 -18   0 2342.16 111.632   1
  -4 -18   0 2616.76 126.447   1
  -4 -18   0 2466.79 114.640   3
  -4  18  -1 156.117 31.5150   2
  -4 -18  -1 182.660 47.2046   1
   4 -18   1 170.536 42.8075   1
  -4  18  -1 158.881 36.8088   4
  -4 -18  -1 150.970 40.7664   3
  -4 -18  -2 58.0610 37.8878   1
   4 -18   2 135.278 45.2159   1
  -4  18  -2 50.7592 30.1050   2
  -4  18  -2 29.8808 27.1841   4
  -4 -18  -2 134.479 42.8422   3
   4 -18   3 479.764 60.0961   1
  -4 -18  -3 356.195 53.8853   1
  -4  18  -3 322.518 46.2186   2
  -4  18  -3 381.127 46.5788   4
  -4 -18  -3 336.961 49.7839   3
  -4  18  -4 1040.18 74.4304   2
  -4 -18  -4 1144.87 89.0627   1
  -4  18  -4 1250.09 73.5019   4
  -4 -18  -4 1073.08 82.6050   3
  -4 -18  -5 59.7632 37.2546   1
  -4  18  -5 110.194 35.1181   2
  -4 -18  -5 102.940 36.0171   3
  -4 -18  -6 9159.20 253.215   1
  -4  18  -6 9064.60 238.017   2
  -4 -18  -6 8945.28 247.577   3
  -4 -18  -7 109.511 38.4621   1
  -4  18  -7 65.9437 35.4822   2
  -4 -18  -7 125.381 43.4936   3
  -4  18  -8 1572.95 103.576   2
  -4 -18  -8 1336.17 97.2629   3
   4  20 -10 37.2648 38.5250   2
   4  20  -9 469.326 58.4855   2
   4 -20  -8 382.687 62.1377   1
   4  20  -8 210.649 47.5763   2
   4 -20  -7 196.483 48.6862   1
   4  20  -7 243.149 46.5936   2
   4 -20  -6 504.043 66.7380   1
   4  20  -6 516.159 56.9889   2
   4 -20  -5 2177.93 118.274   1
  -4 -20   5 2237.56 114.336   3
  -4 -20   4 103.935 53.3619   1
   4 -20  -4 47.1184 36.6734   1
  -4 -20   4 71.8857 37.2104   3
   4 -20  -3 2062.70 113.341   1
  -4 -20   3 2210.04 124.378   1
  -4 -20   3 2273.41 114.479   3
   4 -20  -2 398.210 59.0998   1
  -4 -20   2 360.765 64.6921   1
  -4 -20   2 303.219 52.0604   3
  -4 -20   1 364.253 61.2794   1
   4 -20  -1 385.095 56.1482   1
  -4 -20   1 351.797 53.4982   3
   4 -20   0 648.578 72.5227   1
  -4 -20   0 565.263 72.5545   1
  -4 -20   0 559.094 65.8636   3
   4 -20   1 2117.93 114.335   1
  -4 -20  -1 1938.71 116.523   1
  -4  20  -1 2059.33 103.601   4
  -4 -20  -1 2018.32 111.918   3
   4 -20   2 19.3415 36.1833   1
  -4 -20  -2 30.7571 38.6239   1
  -4  20  -2 37.8315 34.9491   4
  -4 -20  -2 24.7574 33.9517   3
   4 -20   3 2080.00 112.497   1
  -4  20  -3 2052.05 104.575   2
  -4 -20  -3 2179.12 118.574   3
  -4  20  -4 517.945 61.2099   2
   4 -20   4 617.012 70.7255   1
  -4 -20  -4 599.333 70.4484   3
  -4  20  -5 1683.37 101.938   2
  -4 -20  -5 1708.52 108.395   3
  -4  20  -6 148.458 46.3130   2
  -4  20  -7 1408.09 99.8502   2
  -4 -22   5 718.403 75.6855   3
  -4 -22   4 20.7512 39.8864   3
  -4 -22   3 450.332 63.7609   3
  -4 -22   2 2374.47 123.602   3
   4 -22  -1 8.14947 38.6387   1
  -4 -22   1 35.9035 38.6807   3
   4 -22   0 2127.29 123.177   1
  -4 -22   0 2309.82 124.039   3
   4 -22   1 1224.62 95.9086   1
  -4 -22  -1 1111.59 92.0134   3
   5   1 -22 341.131 53.7849   2
   5   1 -21 2125.81 106.101   2
   5  -1 -21 2197.41 104.845   2
  -5   1  21 2228.98 122.463   5
  -5  -1  21 2220.80 120.433   5
   5   1 -20 6203.77 179.965   2
   5  -1 -20 6199.69 171.734   2
  -5   1  20 6347.24 200.285   5
  -5  -1  20 6589.16 202.686   5
   5   1 -19-37.0135 29.2630   2
   5  -1 -19 58.1547 28.8563   2
  -5   1  19 6.24803 35.2862   5
   5   1 -18 1215.27 73.2658   2
   5  -1 -18 1345.51 73.0637   2
  -5   1  18 1248.48 83.4372   5
   5   1 -17 3027.08 110.225   2
   5  -1 -17 3081.38 106.211   2
  -5   1  17 3133.97 123.534   5
   5   1 -16 507.689 45.7001   2
   5  -1 -16 462.604 42.0961   2
  -5   1  16 479.541 53.8571   5
   5   1 -15 3809.87 115.865   2
   5  -1 -15 3908.24 110.546   2
  -5   1  15 3837.76 126.920   5
  -5  -1  15 3428.38 94.1174   4
   5   1 -14 2914.88 97.7444   2
   5  -1 -14 3123.74 94.8823   2
  -5   1  14 2904.98 106.127   5
  -5  -1  14 2893.62 80.5505   4
   5   1 -13 147.229 26.2456   2
   5  -1 -13 148.706 24.9611   2
  -5   1  13 201.400 31.7050   5
  -5   1  13 160.078 23.8921   4
  -5  -1  13 167.509 20.5156   4
   5  -1 -12 8921.02 183.012   1
   5  -1 -12 8851.54 164.466   2
   5   1 -12 9146.02 173.891   2
  -5   1  12 8717.51 158.368   4
  -5  -1  12 8786.07 146.674   4
   5  -1 -11 19.3855 18.7185   1
   5  -1 -11 32.1483 17.4758   2
   5   1 -11 19.7673 17.7500   2
  -5   1  11-0.18237 14.5484   2
  -5  -1  11 29.4186 12.5286   4
   5  -1 -10 50824.3 630.792   1
   5   1 -10 50363.2 619.258   2
   5  -1 -10 50210.0 608.173   2
  -5   1  10 50331.6 609.268   2
  -5  -1  10 50727.6 620.442   2
  -5  -1   9 8831.83 161.160   1
  -5   1   9 9051.12 162.498   1
   5  -1  -9 8872.73 161.807   1
   5  -1  -9 8525.80 147.277   2
   5   1  -9 8575.24 154.799   2
  -5  -1   9 8712.80 156.803   2
   5  -1  -8 9457.00 154.593   2
   5   1  -8 9661.83 162.928   2
   5  -1  -8 10049.2 166.652   1
  -5   1   8 10085.1 167.039   1
  -5  -1   8 10105.0 167.875   1
  -5   1   8 9760.19 166.820   5
  -5  -1   8 9780.63 163.336   2
   5   1  -7 7778.79 136.149   2
   5  -1  -7 8182.54 137.860   1
  -5  -1   7 8212.72 139.482   1
  -5   1   7 8293.91 138.613   1
  -5   1   7 7840.11 137.626   5
   5  -1  -7 7679.95 130.517   2
   5  -1  -6 16738.2 225.889   1
  -5   1   6 16947.4 226.525   1
  -5   1   6 16541.9 227.704   5
   5   1  -6 16349.5 230.137   2
   5  -1  -5 1776.03 46.9315   1
  -5   1   5 1773.37 46.6873   1
  -5   1   5 1732.80 48.8403   5
  -5  -1   5 1711.09 39.7234   4
  -5   1   4 161543. 1751.66   1
   5  -1  -4 165197. 1752.16   1
  -5   1   4 160864. 1756.57   5
  -5  -1   4 163311. 1750.78   4
  -5   1   4 162603. 1762.66   4
   5   1  -4 160089. 1751.49   4
  -5   1   3 2808.10 48.2911   1
  -5   1   3 2855.81 53.0821   5
  -5   1   3 2812.10 61.9231   4
   5  -1  -3 2931.86 53.2132   5
   5   1  -3 2766.72 56.3869   4
  -5  -1   3 2905.74 57.7145   4
   5  -1  -2 108340. 1169.59   5
  -5   1   2 108886. 1194.64   4
   5   1  -2 107028. 1190.23   4
   5  -1  -2 108423. 1195.02   4
  -5  -1   2 109087. 1189.90   4
  -5  -1   1 141630. 1553.61   4
   5  -1  -1 143133. 1556.57   4
  -5   1   1 143373. 1557.77   4
   5   1  -1 140614. 1553.81   4
  -5  -1   0 27497.0 316.584   1
   5  -1   0 28101.8 346.179   4
   5   1   0 27276.4 343.753   4
  -5   1   0 28218.8 346.042   4
  -5  -1   0 27641.8 343.834   4
  -5   1   0 26761.8 316.864   3
   5  -1   1 24463.3 311.125   2
  -5   1  -1 23509.6 269.720   1
  -5  -1  -1 23812.4 282.321   1
   5  -1   1 23666.2 270.135   1
   5   1   1 23885.4 309.965   4
   5  -1   1 24371.7 310.530   4
   5   1   1 23569.8 268.644   5
  -5   1  -1 23965.4 309.767   4
  -5   1  -1 23499.3 282.466   3
  -5  -1  -1 23536.1 309.726   4
  -5  -1  -1 24248.0 299.424   3
   5  -1   2 73467.1 839.012   2
   5   1   2 72128.1 811.131   1
  -5   1  -2 71774.0 799.408   1
  -5  -1  -2 73190.4 810.281   1
   5  -1   2 72663.7 800.018   1
  -5   1  -2 73859.4 839.655   4
   5  -1   2 75456.4 840.083   4
   5   1   2 73790.8 841.926   4
  -5  -1  -2 73244.0 840.294   4
  -5  -1  -2 71607.7 824.612   3
  -5   1  -2 72029.5 809.152   3
   5  -1   2 72408.1 810.385   3
   5  -1   3 36315.0 455.921   2
   5   1   3 36375.2 448.017   2
   5   1   3 36181.6 430.388   1
  -5   1  -3 35846.7 421.537   1
  -5  -1  -3 35425.3 428.935   1
   5  -1   3 35831.4 421.949   1
   5   1   3 37420.0 460.525   4
   5  -1   3 36561.5 455.863   4
   5  -1   3 36325.3 430.543   3
  -5  -1  -3 36278.7 458.724   4
  -5   1  -3 35800.8 454.768   4
   5   1   3 35984.2 443.471   3
   5   1   4 30782.6 401.908   2
   5  -1   4 31509.0 410.144   2
   5   1   4 30621.3 387.257   1
  -5  -1  -4 31116.7 387.676   1
   5  -1   4 31532.4 382.038   1
  -5   1  -4 31013.6 380.944   1
   5  -1   4 32153.2 412.036   4
   5   1   4 32786.1 416.929   4
  -5   1  -4 30929.7 408.568   4
   5  -1   4 31361.8 388.017   3
   5   1   4 32311.2 402.791   3
  -5  -1  -4 31015.8 399.318   3
  -5  -1  -4 31464.5 414.918   4
   5   1   5 6469.05 119.999   1
  -5  -1  -5 5978.79 115.932   1
  -5   1  -5 6040.75 112.119   1
   5  -1   5 6069.34 112.626   1
   5  -1   5 6251.47 130.596   2
   5   1   5 5985.74 122.930   2
  -5  -1  -5 6202.93 133.665   4
   5  -1   5 6282.94 117.911   3
  -5   1  -5 5999.90 129.051   4
   5   1   5 6155.36 124.668   3
  -5   1  -6 3098.09 79.2672   1
   5   1   6 3111.80 82.1682   1
   5  -1   6 3201.93 80.0753   1
  -5  -1  -6 3011.32 80.9343   1
  -5   1  -6 3080.41 90.3319   2
   5   1   6 3025.31 85.2623   2
   5  -1   6 3039.33 81.3924   3
  -5  -1  -6 3108.73 93.8249   4
   5   1   6 3068.91 86.5126   3
  -5   1  -6 3083.75 90.8148   4
  -5  -1  -7 5831.06 125.075   1
   5   1   7 5828.29 125.234   1
   5  -1   7 5685.40 120.856   1
  -5   1  -7 5642.03 133.354   2
  -5  -1  -7 5916.30 138.615   4
  -5   1  -7 5754.37 134.659   4
   5  -1   7 5764.26 124.503   3
  -5  -1  -8 21968.9 324.454   1
  -5   1  -8 22632.5 341.197   2
  -5  -1  -8 22341.5 345.160   4
  -5   1  -8 22141.9 339.735   4
  -5   1  -9 12.6007 21.7061   2
  -5  -1  -9 13.6478 18.4388   1
  -5   1  -9-4.93372 20.2844   4
  -5  -1  -9 27.4487 23.0861   4
  -5   1 -10 28824.3 424.941   2
  -5  -1 -10 28374.3 411.466   1
   5   1  10 27860.1 404.094   5
  -5   1 -10 28271.0 421.341   4
  -5  -1 -10 27867.4 426.307   4
  -5   1 -11 1314.30 72.2417   2
  -5  -1 -11 1312.82 68.3641   1
   5   1  11 1325.31 67.1878   5
  -5  -1 -11 1203.59 69.7365   4
  -5   1 -11 1257.77 70.2031   4
  -5  -1 -12 286.678 38.5117   1
  -5   1 -12 389.953 46.0713   2
   5   1  12 343.284 40.3237   5
  -5   1 -12 318.682 41.6920   4
  -5  -1 -12 424.122 47.8392   4
  -5   1 -13 8677.28 206.854   2
   5   1  13 8210.30 193.799   5
  -5   1 -13 8470.55 203.355   4
  -5  -1 -13 8402.80 206.970   4
   5   1  14 2676.55 108.670   5
  -5   1 -14 2711.27 112.843   4
   5   1  15 1613.92 88.6051   5
   5   1  16 3318.90 131.969   5
   5  -1  16 3159.35 129.490   5
   5   1  17 21.5083 32.8293   5
   5  -1  17 41.3299 31.4102   5
   5  -1  18 1141.61 85.3183   5
   5   1  18 1332.17 91.8646   5
   5   3 -23 2362.42 126.220   2
   5   3 -22 140.138 39.8731   2
   5   3 -21 5231.28 175.460   2
  -5   3  21 5083.55 186.922   5
   5   3 -20 1427.11 89.2595   2
  -5   3  20 1458.56 99.0911   5
   5   3 -19 626.050 61.0600   2
   5  -3 -19 626.636 50.0026   2
  -5   3  19 650.103 66.9304   5
   5  -3 -18 9684.60 198.919   2
   5   3 -18 9276.83 222.825   2
  -5   3  18 9644.97 239.393   5
   5   3 -17 230.893 41.6685   2
   5  -3 -17 207.785 31.7461   2
  -5   3  17 202.953 42.9864   5
   5  -3 -17 216.772 41.3157   1
   5   3 -16 4152.63 131.217   2
   5  -3 -16 4243.36 114.671   2
   5  -3 -16 4344.43 141.275   1
  -5   3  16 4267.77 141.981   5
   5   3 -15 8077.77 185.111   2
   5  -3 -15 8001.79 161.076   2
   5  -3 -15 7945.87 194.025   1
  -5   3  15 8124.39 195.347   5
  -5  -3  15 7847.46 139.495   4
   5   3 -14 10040.2 207.326   2
   5  -3 -14 10082.3 182.327   2
   5  -3 -14 10289.7 215.928   1
  -5   3  14 10438.7 218.474   5
  -5  -3  14 9864.24 157.720   4
   5  -3 -13 12423.8 203.499   2
   5   3 -13 12517.3 229.682   2
   5  -3 -13 12374.8 236.273   1
  -5   3  13 12827.8 240.530   5
  -5  -3  13 12137.8 177.404   4
   5  -3 -12 12380.7 196.845   2
   5   3 -12 12298.5 221.845   2
   5  -3 -12 12251.7 226.970   1
  -5   3  12 12370.7 229.850   5
  -5  -3  12 12164.7 170.673   4
   5  -3 -11 59.0607 16.4960   2
   5   3 -11 99.3597 23.3478   2
   5  -3 -11 38.4856 21.3045   1
  -5   3  11 93.3748 27.8758   5
  -5  -3  11 50.7992 10.1388   4
   5  -3 -10 13027.3 194.149   2
   5   3 -10 13039.5 218.837   2
   5  -3 -10 12913.2 221.093   1
  -5   3  10 13024.3 224.299   5
  -5  -3  10 13172.9 167.188   4
   5   3  -9 26283.0 360.109   2
   5  -3  -9 25728.4 329.540   2
   5  -3  -9 25952.4 358.863   1
  -5   3   9 26338.1 362.751   5
  -5  -3   9 25940.6 298.161   4
   5   3  -8 3.45315 17.3881   2
  -5  -3   8 31.3849 16.5396   2
   5  -3  -8 59.2827 15.0785   2
  -5   3   8-0.88645 14.3874   1
   5  -3  -8 6.68794 15.6150   1
  -5   3   8-10.9996 20.2907   5
   5   3  -7 35004.4 434.424   2
   5  -3  -7 34367.4 427.024   1
  -5   3   7 35052.5 428.464   1
   5  -3  -7 35602.9 434.182   5
  -5   3   7 34520.3 433.484   5
  -5  -3   7 33272.5 374.064   4
  -5  -3   7 35425.1 435.041   2
   5  -3  -7 32979.4 407.466   2
   5   3  -6 4249.05 93.5695   2
   5  -3  -6 4305.09 88.3353   1
  -5   3   6 4269.86 88.0829   1
  -5  -3   6 4172.71 59.0057   4
  -5   3   6 4500.03 94.6228   5
   5  -3  -6 4420.02 92.5033   5
  -5  -3   6 4281.63 94.0536   2
   5   3  -5 2389.80 64.8778   2
  -5   3   5 2319.57 57.1030   1
   5  -3  -5 2252.09 56.2590   1
   5  -3  -5 2382.99 61.7372   5
  -5  -3   5 2338.30 41.0905   4
   5   3  -5 2166.75 40.1406   4
  -5   3   5 2348.73 62.3811   5
   5  -3  -4 49337.8 558.898   1
  -5   3   4 49483.9 559.682   1
   5  -3  -4 49932.6 570.630   5
   5   3  -4 47189.9 546.776   4
  -5   3   4 49171.5 571.434   5
   5   3  -4 51118.5 578.456   2
  -5  -3   4 49167.4 547.060   4
   5  -3  -3 21262.5 253.916   1
  -5   3   3 21095.3 253.938   1
   5   3  -3 20970.8 258.670   4
   5  -3  -3 21722.9 269.145   5
  -5  -3   3 21337.2 258.417   4
  -5   3   2 9011.16 117.870   1
   5  -3  -2 9170.21 117.573   1
   5   3  -2 9270.59 135.512   4
  -5   3   2 9346.03 147.274   4
  -5  -3   2 9506.20 135.790   4
   5  -3  -1 1194.03 25.3510   1
   5  -3  -1 1294.05 46.1885   4
  -5   3   1 1310.40 46.3059   4
  -5  -3   1 1304.48 42.7979   4
   5   3  -1 1278.27 42.6736   4
   5  -3   0 6795.19 122.959   2
  -5  -3   0 7073.04 112.980   1
  -5   3   0 6930.32 122.430   4
   5  -3   0 6946.93 122.668   4
  -5  -3   0 6762.29 93.3043   5
  -5  -3   0 6830.84 121.195   4
   5   3   0 6949.86 121.099   4
   5  -3   1 27376.0 355.165   2
  -5  -3  -1 27110.5 337.311   1
   5  -3   1 28585.5 353.547   4
  -5  -3  -1 26738.0 315.241   5
  -5   3  -1 27136.1 351.087   4
   5   3   1 27170.3 352.621   4
  -5  -3  -1 27445.2 354.316   4
  -5  -3  -1 27282.4 351.259   3
   5  -3   2 5982.28 120.061   2
  -5  -3  -2 5913.90 107.005   1
   5   3   2 6061.27 108.733   1
   5  -3   2 5912.92 90.5224   1
  -5   3  -2 6011.82 116.882   4
   5  -3   2 6187.75 117.424   4
   5   3   2 5986.52 93.7963   5
  -5  -3  -2 6100.55 121.665   4
   5   3   2 6235.74 120.760   4
  -5  -3  -2 6047.90 117.678   3
   5  -3   2 5895.12 86.1080   3
   5  -3   3 15198.3 232.399   2
  -5   3  -3 14946.0 232.226   2
   5  -3   3 15046.9 197.191   1
  -5  -3  -3 15041.6 215.772   1
   5   3   3 15178.9 217.218   1
   5  -3   3 14977.3 225.782   4
   5   3   3 14969.3 199.770   5
  -5   3  -3 14921.2 225.131   4
  -5  -3  -3 15009.4 232.443   4
   5  -3   3 14841.4 192.692   3
  -5  -3  -3 14843.4 226.931   3
   5   3   3 15221.4 232.048   4
   5   3   4 1130.33 44.1756   2
  -5   3  -4 1256.55 59.5320   2
  -5  -3  -4 1180.77 46.9329   1
   5  -3   4 1130.57 39.3846   1
   5   3   4 1209.74 47.7828   1
   5   3   4 1150.32 40.5861   5
  -5   3  -4 1229.27 52.0050   4
   5  -3   4 1181.94 50.0349   4
  -5  -3  -4 1147.53 54.0679   4
   5  -3   4 1137.99 37.6836   3
  -5  -3  -4 1234.39 53.0308   3
   5   3   4 1224.68 52.3213   3
   5   3   5 16669.6 240.064   2
  -5   3  -5 16727.4 263.845   2
   5   3   5 16924.4 249.242   1
  -5  -3  -5 16493.4 246.362   1
   5  -3   5 16764.1 232.447   1
   5   3   5 16288.0 232.914   5
   5  -3   5 16888.1 255.130   4
  -5  -3  -5 16699.7 264.254   4
   5  -3   5 16614.4 228.514   3
  -5   3  -5 16561.4 254.619   4
  -5  -3  -5 16382.1 255.908   3
   5   3   6 1181.20 48.8520   2
  -5   3  -6 1274.51 61.0544   2
  -5  -3  -6 1273.60 53.9536   1
   5  -3   6 1244.82 48.3063   1
   5   3   6 1262.19 54.0029   1
   5   3   6 1386.27 52.0656   5
  -5   3  -6 1224.25 56.1398   4
   5  -3   6 1260.63 47.7107   3
  -5  -3  -6 1259.79 59.7976   4
   5   3   7 22868.2 321.211   2
  -5   3  -7 23424.7 350.981   2
  -5  -3  -7 22617.9 331.814   1
   5  -3   7 23194.7 320.287   1
   5   3   7 23392.8 322.479   5
   5  -3   7 22817.1 316.381   3
  -5  -3  -7 23251.0 351.546   4
  -5   3  -7 22431.6 335.093   4
  -5   3  -8 2564.65 93.7453   2
  -5  -3  -8 2462.34 84.1295   1
   5   3   8 2425.92 78.3108   5
  -5   3  -8 2434.66 85.2315   4
  -5  -3  -8 2428.80 91.8212   4
   5  -3   8 2340.99 75.6384   3
  -5   3  -9 2365.13 93.4393   2
  -5  -3  -9 2206.46 83.7485   1
   5   3   9 2210.81 78.8769   5
  -5  -3  -9 2280.43 92.8643   4
  -5   3  -9 2164.11 83.4103   4
  -5  -3 -10 540.613 46.5087   1
  -5   3 -10 595.471 51.8813   2
   5   3  10 490.708 41.3774   5
  -5  -3 -10 441.371 48.0546   4
  -5   3 -10 500.528 44.5850   4
  -5   3 -11 12915.5 260.595   2
  -5  -3 -11 13201.1 252.030   1
   5   3  11 13098.1 243.069   5
  -5   3 -11 13221.1 250.528   4
  -5  -3 -11 13053.0 261.955   4
  -5   3 -12 4991.88 152.799   2
  -5  -3 -12 4926.82 145.696   1
   5   3  12 5026.70 141.459   5
  -5   3 -12 4978.70 143.669   4
  -5   3 -13 21487.0 380.677   2
  -5  -3 -13 21452.7 369.711   1
   5   3  13 21657.2 362.068   5
  -5   3 -13 21510.1 363.470   4
  -5   3 -14 1087.32 77.5545   2
  -5  -3 -14 1118.84 74.0889   1
   5   3  14 1109.05 71.7358   5
  -5   3 -14 1043.64 69.6764   4
  -5   3 -15 1224.77 84.5130   2
  -5  -3 -15 1145.47 80.7626   1
   5   3  15 1093.15 74.4960   5
  -5   3 -15 1084.81 74.2500   4
  -5   3 -16 1330.78 90.7009   2
   5   3  16 1386.76 86.9598   5
  -5   3 -16 1179.56 79.8027   4
   5   3  17 46.4462 34.3741   5
   5   3  18 1948.82 109.462   5
   5   5 -22 678.431 76.6522   2
   5   5 -21 117.020 41.0176   2
  -5   5  21 199.572 54.3895   5
   5   5 -20 6990.26 207.013   2
  -5   5  20 6953.97 214.719   5
   5  -5 -20 7423.68 221.183   1
   5   5 -19 175.867 42.8075   2
  -5   5  19 93.0140 40.4550   5
   5  -5 -19 70.9592 35.3063   1
   5   5 -18 5415.29 169.568   2
  -5   5  18 5473.07 176.778   5
   5  -5 -18 5566.93 177.475   1
   5   5 -17 394.022 48.3185   2
   5  -5 -17 435.290 36.0746   2
  -5   5  17 351.160 51.2284   5
   5  -5 -17 444.816 54.9970   1
   5  -5 -16 1909.69 68.8948   2
   5   5 -16 1707.05 88.2070   2
  -5   5  16 1850.36 95.7278   5
   5  -5 -16 1738.65 92.2471   1
   5   5 -15 5881.73 160.956   2
   5  -5 -15 5779.06 123.864   2
  -5   5  15 5819.38 165.327   5
   5  -5 -15 5828.85 164.257   1
   5   5 -14 419.143 45.0856   2
   5  -5 -14 365.465 28.7024   2
  -5  -5  14 397.143 20.2896   4
  -5   5  14 363.258 44.4469   5
   5  -5 -14 413.805 44.9563   1
   5  -5 -13 308.214 26.4552   2
   5   5 -13 289.724 37.8326   2
  -5  -5  13 235.413 14.3801   4
  -5   5  13 284.903 39.8313   5
   5  -5 -13 266.975 39.0440   1
   5  -5 -12 41519.2 510.791   2
   5   5 -12 42598.6 570.141   2
  -5  -5  12 42491.7 467.779   4
  -5   5  12 42465.9 574.607   5
   5  -5 -12 42458.2 571.909   1
   5  -5 -11 33.7807 13.7247   2
   5   5 -11 51.0173 22.1396   2
  -5   5  11 49.5585 26.2546   5
   5  -5 -11 42.6384 21.4182   1
   5   5 -10 28737.1 401.699   2
   5  -5 -10 27781.2 349.219   2
  -5   5  10 28759.9 405.219   5
   5  -5 -10 28352.7 398.605   1
   5   5  -9 3682.40 101.300   2
   5  -5  -9 3603.30 73.4446   2
   5  -5  -9 3718.43 100.558   1
  -5   5   9 3737.94 104.520   5
   5   5  -8 4979.76 117.253   2
   5  -5  -8 5089.71 114.522   1
  -5   5   8 5112.65 116.091   1
  -5   5   8 5218.19 119.830   5
   5  -5  -8 4865.54 88.0207   2
   5   5  -7 4546.36 107.040   2
  -5   5   7 4744.31 104.857   1
   5  -5  -7 4613.90 104.473   1
   5  -5  -7 4599.40 108.126   5
  -5   5   7 4645.53 109.474   5
  -5  -5   7 4569.71 107.530   2
   5   5  -6 36573.6 460.434   2
  -5   5   6 35710.4 452.258   1
   5  -5  -6 35319.3 449.916   1
  -5   5   6 36952.8 463.433   5
   5  -5  -6 36468.7 460.701   5
  -5  -5   6 36619.7 460.932   2
   5   5  -5 3201.53 80.4236   2
  -5   5   5 3338.89 76.6819   1
   5  -5  -5 3282.72 75.6411   1
   5  -5  -5 3375.46 82.9771   5
   5   5  -5 2953.50 50.2116   4
  -5  -5   5 3327.09 82.2371   2
   5   5  -4 3314.24 78.9709   2
   5  -5  -4 3333.96 72.8176   1
  -5   5   4 3410.76 73.2744   1
   5  -5  -4 3380.91 81.1090   5
  -5   5   4 3212.53 66.2728   3
   5   5  -4 3147.62 58.7055   4
  -5  -5   4 3202.80 59.0199   4
   5  -5  -3 10433.1 150.224   1
  -5   5   3 10272.4 150.773   1
   5   5  -3 10716.5 163.122   2
  -5  -5   3 10306.7 145.638   4
   5   5  -3 10271.3 145.394   4
  -5   5   3 10177.9 139.333   3
   5  -5  -2 11215.1 155.133   1
   5  -5  -2 11209.7 168.975   2
  -5  -5   2 11085.9 161.945   4
  -5   5   2 10733.2 138.032   3
   5   5  -2 11573.5 168.853   2
   5   5  -2 11562.4 162.827   4
   5  -5  -1 648.555 33.9337   2
   5  -5  -1 590.855 25.4711   1
  -5   5   1 610.952 35.2965   4
  -5  -5   1 660.962 32.9378   4
   5   5  -1 618.369 31.4005   4
   5  -5   0 13717.3 207.888   2
  -5  -5   0 13596.4 204.751   1
  -5   5   0 13899.0 209.678   4
   5   5   0 13978.3 205.085   4
  -5  -5   0 13442.3 203.654   4
   5  -5   1 3629.53 89.1532   2
  -5  -5  -1 3626.12 86.0160   1
  -5  -5  -1 3587.46 72.1201   5
  -5   5  -1 3351.57 84.2065   4
   5  -5   1 3574.76 86.3058   4
  -5  -5  -1 3517.65 87.8556   4
   5   5   1 3639.70 88.1062   4
  -5  -5  -1 3498.29 90.8160   3
  -5   5  -2 11235.9 187.953   2
   5  -5   2 10804.2 185.347   2
  -5  -5  -2 10699.9 177.153   1
  -5   5  -2 10931.3 180.227   4
   5  -5   2 11048.6 180.451   4
  -5  -5  -2 10730.9 158.302   5
   5  -5   2 10773.5 129.393   3
  -5  -5  -2 10766.8 184.479   4
  -5  -5  -2 10376.2 184.719   3
   5   5   2 11260.5 186.653   4
  -5   5  -3 24537.1 347.827   2
  -5  -5  -3 24513.2 334.735   1
   5   5   3 25103.9 337.288   1
  -5  -5  -3 24205.3 312.611   5
   5  -5   3 25389.8 336.493   4
  -5   5  -3 24411.1 333.747   4
   5  -5   3 24363.6 286.162   3
  -5  -5  -3 24680.5 346.449   3
  -5  -5  -3 23983.2 344.658   4
   5   5   4 3029.94 72.3688   2
  -5   5  -4 3193.13 94.2911   2
  -5  -5  -4 3002.49 85.5032   1
   5   5   4 3287.89 89.5962   1
   5  -5   4 3081.52 85.7205   4
  -5  -5  -4 3055.73 74.3986   5
   5   5   4 3157.47 76.4738   5
  -5   5  -4 3204.29 86.6769   4
   5  -5   4 2979.03 60.3430   3
  -5  -5  -4 3148.50 92.7746   3
  -5  -5  -4 3146.37 93.5174   4
  -5   5  -5 827.586 50.1942   2
   5   5   5 829.907 37.4131   2
   5  -5   5 885.411 39.4031   1
  -5  -5  -5 888.806 47.4085   1
  -5   5  -5 883.773 46.1984   4
   5   5   5 867.213 41.6979   5
   5  -5   5 899.271 33.8646   3
  -5  -5  -5 889.341 51.4706   4
  -5  -5  -5 956.059 52.7128   3
  -5   5  -6 108.151 27.1816   2
   5   5   6 73.2341 15.1353   2
  -5  -5  -6 86.7004 21.8850   1
   5  -5   6 65.9877 16.9778   1
   5   5   6 67.4081 17.4175   5
  -5  -5  -6 82.5589 23.5775   3
  -5  -5  -6 81.8787 25.7945   4
   5  -5   6 68.7155 14.6091   3
  -5   5  -6 46.0538 19.2548   4
   5   5   7 8879.88 156.281   2
  -5   5  -7 9437.91 194.499   2
   5  -5   7 8927.12 164.411   1
  -5  -5  -7 9374.63 183.352   1
   5   5   7 9003.85 167.638   5
   5  -5   7 8932.08 153.502   3
  -5   5  -7 9329.95 177.657   4
  -5  -5  -7 9233.81 192.722   4
  -5  -5  -7 8913.10 187.737   3
  -5   5  -8 7583.19 175.589   2
   5   5   8 6882.04 136.178   2
  -5  -5  -8 7309.57 163.001   1
   5   5   8 7103.41 150.730   5
  -5   5  -8 7453.58 157.947   4
   5  -5   8 7086.62 138.469   3
  -5   5  -9 2252.75 94.8116   2
   5   5   9 2224.64 72.5568   2
  -5  -5  -9 2256.99 89.1467   1
   5   5   9 2271.03 82.7772   5
  -5   5  -9 2157.35 82.3090   4
  -5   5 -10 26461.8 420.889   2
  -5  -5 -10 26334.9 405.942   1
   5   5  10 26274.1 390.229   5
  -5   5 -10 25903.7 392.314   4
  -5   5 -11 3145.14 120.663   2
  -5  -5 -11 3194.02 115.604   1
   5   5  11 3188.05 108.053   5
  -5   5 -11 3176.46 107.586   4
  -5   5 -12 1192.65 78.8233   2
  -5  -5 -12 1169.03 73.0077   1
   5   5  12 1280.21 72.1012   5
  -5   5 -12 1268.08 70.8829   4
  -5   5 -13 1300.43 84.9399   2
  -5  -5 -13 1261.79 77.1885   1
   5   5  13 1268.97 75.2028   5
  -5   5 -13 1286.91 73.1288   4
  -5   5 -14 2695.06 123.452   2
  -5  -5 -14 2808.25 119.545   1
   5   5  14 2793.20 114.355   5
  -5   5 -14 2698.15 107.915   4
  -5   5 -15 1046.04 81.6132   2
  -5  -5 -15 1028.34 79.0606   1
   5   5  15 1034.99 75.8590   5
  -5   5 -15 1077.52 71.3361   4
  -5   5 -16 4721.90 175.203   2
   5   5  16 4744.80 161.796   5
  -5  -5 -16 4621.91 167.016   1
   5   5  17 599.681 66.1514   5
  -5  -5 -17 497.647 62.5625   1
  -5   5 -17 462.499 61.6244   2
   5   7 -21 5826.01 198.344   2
   5   7 -20 303.878 54.9182   2
  -5   7  20 241.915 54.4067   5
   5  -7 -20 426.056 63.2355   1
   5   7 -19 151.366 43.4888   2
  -5   7  19 186.794 49.9351   5
   5  -7 -19 153.138 42.5521   1
   5   7 -18 154.417 41.9258   2
  -5   7  18 111.548 46.8678   5
   5  -7 -18 160.644 43.2672   1
   5   7 -17 6793.33 192.256   2
  -5   7  17 6571.03 194.768   5
   5  -7 -17 6204.51 187.615   1
   5   7 -16 250.442 41.7053   2
  -5   7  16 335.485 49.7173   5
   5  -7 -16 233.019 45.7028   1
   5  -7 -15 11236.0 177.464   2
   5   7 -15 11252.8 245.353   2
  -5   7  15 11260.9 250.187   5
   5  -7 -15 11596.5 251.482   1
   5   7 -14 4251.19 135.966   2
   5  -7 -14 4107.98 87.5846   2
  -5   7  14 4049.32 136.243   5
   5  -7 -14 4248.23 138.385   1
   5   7 -13 33250.0 485.462   2
   5  -7 -13 32054.0 396.228   2
  -5   7  13 32198.2 484.843   5
   5  -7 -13 32974.3 484.286   1
   5  -7 -12 5995.66 102.730   2
   5   7 -12 6147.58 156.342   2
  -5   7  12 5929.16 157.167   5
   5  -7 -12 5790.57 152.174   1
   5  -7 -11 2891.96 61.8064   2
   5   7 -11 2977.13 101.756   2
  -5   7  11 2822.58 102.282   5
   5  -7 -11 2920.19 99.6825   1
   5  -7 -10-3.02803 8.82119   2
   5   7 -10 17.2215 22.2019   2
  -5   7  10 28.8347 26.9752   5
   5  -7 -10 39.5464 23.5315   1
   5   7  -9 16013.9 263.169   2
   5  -7  -9 15328.8 200.359   2
   5  -7  -9 15961.7 259.785   1
  -5   7   9 15840.2 264.728   5
   5   7  -8 382.472 36.0365   2
   5  -7  -8 368.552 33.8451   1
  -5   7   8 372.080 38.7408   5
   5  -7  -8 390.563 20.6911   2
   5  -7  -7 35585.6 461.407   1
   5   7  -7 35545.8 466.351   2
  -5   7   7 34675.2 454.011   3
  -5   7   6 4378.88 102.982   1
   5  -7  -6 3976.47 97.3652   1
   5   7  -6 4203.28 103.473   2
  -5   7   6 4180.83 94.5799   3
   5   7  -6 3839.81 59.6436   4
  -5   7   5 115.408 20.1182   1
   5  -7  -5 133.469 15.8423   2
   5  -7  -5 150.945 22.3781   1
   5   7  -5 138.892 24.2939   2
  -5  -7   5 163.471 25.0545   2
  -5   7   5 137.358 18.0005   3
   5   7  -5 130.274 11.8204   4
   5  -7  -4 804.495 33.6328   2
   5   7  -4 775.857 41.0188   2
   5  -7  -4 805.035 39.0063   1
  -5   7   4 766.457 38.6363   1
   5  -7  -4 874.057 46.3879   5
   5   7  -4 792.310 29.5903   4
  -5   7   4 819.668 33.5573   3
   5  -7  -3 11402.6 177.390   1
   5  -7  -3 11411.8 172.664   2
   5   7  -3 11835.9 181.459   2
   5   7  -3 11329.3 165.739   4
  -5   7   3 11121.6 159.697   3
   5  -7  -2 1621.78 52.8326   1
   5   7  -2 1703.32 54.0529   2
   5  -7  -2 1615.30 53.3955   2
   5   7  -2 1597.19 51.2014   4
   5  -7  -1 25409.6 327.192   1
   5  -7  -1 25205.9 338.229   2
   5   7  -1 25700.6 337.051   4
   5   7  -1 25960.2 328.393   2
   5  -7   0 3532.07 89.2567   2
  -5  -7   0 3681.95 95.7502   1
  -5   7   0 3541.90 92.0626   4
   5  -7   0 3599.10 52.5781   3
   5   7   0 3805.10 79.5359   2
   5   7   0 3816.24 91.7586   4
   5  -7   1 1503.57 58.7570   2
  -5   7  -1 1496.39 59.7179   2
  -5  -7  -1 1529.15 61.4118   1
  -5   7  -1 1704.57 62.0194   4
  -5  -7  -1 1517.72 53.1160   5
  -5  -7  -1 1530.01 63.7476   3
   5   7   1 1557.36 59.2825   4
  -5   7  -2 5828.05 130.442   2
  -5  -7  -2 5671.29 127.358   1
  -5   7  -2 5632.09 121.480   4
  -5  -7  -2 5618.88 112.310   5
  -5  -7  -2 5727.49 133.357   3
  -5   7  -3 8572.96 171.160   2
  -5  -7  -3 8553.23 166.538   1
  -5   7  -3 8599.24 160.209   4
  -5  -7  -3 8291.17 147.732   5
  -5  -7  -3 8507.29 172.809   3
  -5   7  -4 11376.1 211.046   2
  -5  -7  -4 11061.4 201.919   1
  -5  -7  -4 11408.1 186.659   5
  -5   7  -4 11016.1 193.728   4
  -5  -7  -4 11324.9 212.157   3
  -5   7  -5 26870.0 395.213   2
   5   7   5 25723.9 333.832   2
  -5  -7  -5 26967.3 386.327   1
  -5  -7  -5 26489.0 361.392   5
  -5   7  -5 26953.7 372.354   4
  -5  -7  -5 27228.5 396.980   3
  -5  -7  -6 390.371 38.5787   1
  -5   7  -6 420.355 41.3452   2
   5   7   6 343.469 24.6078   2
  -5   7  -6 367.142 33.1651   4
  -5  -7  -6 461.505 45.2436   3
   5   7   7 26188.9 342.781   2
  -5   7  -7 27334.3 414.270   2
  -5  -7  -7 26851.7 400.047   1
  -5   7  -7 26753.1 381.501   4
   5   7   7 26970.1 380.385   5
  -5  -7  -7 26445.5 408.030   3
   5   7   8 1820.28 57.8712   2
  -5   7  -8 2013.50 90.6783   2
  -5  -7  -8 1924.82 83.4974   1
   5   7   8 1961.09 77.7976   5
  -5   7  -8 1880.59 75.2418   4
  -5   7  -9 2929.96 113.425   2
  -5  -7  -9 2748.09 104.884   1
   5   7   9 2792.29 96.2399   5
  -5   7  -9 2728.30 92.8953   4
  -5   7 -10 138.656 34.4100   2
  -5  -7 -10 50.7523 26.0156   1
   5   7  10 116.883 31.6393   5
  -5   7 -10 106.084 24.1092   4
  -5   7 -11 19091.5 354.359   2
  -5  -7 -11 18950.6 340.825   1
   5   7  11 18896.3 322.924   5
  -5   7 -11 18839.0 315.731   4
  -5   7 -12 2432.40 113.991   2
  -5  -7 -12 2318.82 106.024   1
   5   7  12 2430.78 101.583   5
  -5   7 -12 2378.99 94.7462   4
  -5   7 -13 17077.8 344.303   2
  -5  -7 -13 16552.3 327.894   1
   5   7  13 16659.4 313.813   5
  -5   7 -13 16648.9 301.453   4
  -5  -7 -14 5.87827 31.6186   1
  -5   7 -14 48.5177 36.3266   2
   5   7  14-4.35829 32.3108   5
  -5   7 -14 48.6291 25.2777   4
  -5   7 -15 3009.76 139.466   2
   5   7  15 2968.89 126.305   5
  -5  -7 -15 2702.49 127.013   1
   5   7  16-1.90155 39.1005   5
  -5  -7 -16 31.9361 36.2887   1
  -5   7 -16 9.10073 41.2014   2
   5   9 -19 878.416 78.6221   2
  -5   9  19 970.433 87.4989   5
   5  -9 -19 880.769 79.8995   1
   5   9 -18 8638.28 236.535   2
  -5   9  18 8367.02 236.573   5
   5  -9 -18 8567.95 236.600   1
   5   9 -17-39.5709 34.1755   2
  -5   9  17-0.90347 40.2759   5
   5  -9 -17 2.74724 31.2727   1
   5   9 -16 50.6898 36.9307   2
  -5   9  16 32.6075 41.2716   5
   5  -9 -16 61.3545 33.9889   1
   5   9 -15 810.867 67.2312   2
  -5   9  15 923.592 72.4608   5
   5  -9 -15 664.008 60.1365   1
   5   9 -14 12221.7 260.153   2
  -5   9  14 12044.0 261.093   5
   5  -9 -14 11996.4 258.080   1
   5   9 -13 6494.36 175.858   2
  -5   9  13 6801.94 181.737   5
   5  -9 -13 6771.44 178.288   1
   5   9 -12 4964.26 145.616   2
   5  -9 -12 4662.85 69.7675   2
  -5   9  12 5008.94 148.274   5
   5  -9 -12 4765.69 142.352   1
   5  -9 -11 547.379 49.0903   1
   5  -9 -11 582.904 18.7422   2
   5   9 -11 595.997 51.1851   2
   5  -9 -10 13362.6 249.709   1
   5  -9 -10 13560.5 165.514   2
   5   9 -10 13879.9 253.950   2
   5  -9  -9 763.209 51.7419   1
   5  -9  -9 735.740 23.4911   2
   5   9  -9 823.485 54.5468   2
   5  -9  -9 770.560 23.4372   2
   5  -9  -8 1867.33 76.6966   1
   5   9  -8 2029.63 78.8483   2
   5  -9  -8 1877.10 42.4240   2
   5  -9  -7 7554.58 160.358   1
   5  -9  -7 7202.88 111.239   2
   5   9  -7 7738.53 160.845   2
   5   9  -7 7529.62 100.648   4
   5  -9  -6 14923.9 243.988   1
   5   9  -6 15200.5 243.249   2
   5  -9  -6 14263.4 195.512   2
  -5   9   6 14882.0 231.113   3
   5   9  -6 14472.5 188.723   4
   5  -9  -5 6197.63 131.725   1
   5   9  -5 5976.40 130.625   2
   5  -9  -5 5642.76 102.005   2
   5   9  -5 5783.61 99.7255   4
  -5   9   5 5859.80 119.242   3
   5  -9  -4 35724.7 461.594   1
   5   9  -4 36138.1 459.312   2
   5  -9  -4 34771.4 431.244   2
   5   9  -4 35381.2 429.565   4
  -5  -9   4 36229.7 460.180   2
  -5   9   4 34599.1 438.465   3
   5  -9  -3 2290.87 73.3225   1
   5  -9  -3 2305.28 64.3594   2
   5   9  -3 2245.24 69.2279   2
   5   9  -3 2287.06 63.4718   4
   5  -9  -2 9552.19 168.651   1
   5  -9  -2 9520.72 161.984   2
   5   9  -2 9533.74 160.925   2
   5  -9  -2 9427.36 142.056   3
   5   9  -2 9690.46 162.429   4
   5  -9  -1 269.285 27.3886   1
   5   9  -1 240.261 22.0566   2
   5  -9  -1 263.876 26.0998   2
   5   9  -1 309.235 26.9456   4
   5  -9  -1 284.928 18.0812   3
  -5   9   0 1659.57 63.7809   2
   5   9   0 1519.11 50.1915   2
  -5  -9   0 1592.25 68.6169   1
  -5   9   0 1600.34 64.6397   4
   5  -9   0 1571.75 38.7526   3
  -5   9  -1 5288.44 125.855   2
   5   9   1 5273.82 99.8368   2
  -5  -9  -1 5364.60 132.497   1
  -5   9  -1 5333.73 123.258   4
   5  -9   1 5333.20 82.1131   3
  -5  -9  -1 5272.85 133.518   3
  -5   9  -2 30001.4 412.147   2
  -5  -9  -2 28587.9 412.531   1
  -5   9  -2 29291.7 400.461   4
  -5  -9  -2 28476.3 390.952   5
  -5  -9  -2 29661.7 422.689   3
   5   9   2 28763.8 358.838   2
  -5   9  -3 4914.14 127.515   2
  -5  -9  -3 4546.50 125.395   1
  -5   9  -3 4642.72 114.785   4
   5   9   3 4668.93 87.8849   2
  -5  -9  -3 4766.04 130.734   3
  -5   9  -4 9414.53 194.445   2
  -5  -9  -4 9193.34 191.176   1
  -5   9  -4 9120.80 177.040   4
  -5  -9  -4 9148.81 196.231   3
   5   9   5 1812.58 49.6695   2
  -5   9  -5 1957.65 84.5701   2
  -5  -9  -5 1840.99 79.9972   1
  -5   9  -5 1912.66 72.4162   4
  -5  -9  -5 1827.78 82.3082   3
   5   9   6 3016.26 66.8230   2
  -5   9  -6 3232.78 112.691   2
  -5  -9  -6 3157.34 108.289   1
  -5   9  -6 3085.78 95.3226   4
  -5  -9  -6 3361.13 115.878   3
   5   9   7 1599.72 46.1734   2
  -5   9  -7 1542.83 80.6283   2
  -5  -9  -7 1574.82 79.9855   1
  -5   9  -7 1572.00 66.9021   4
  -5  -9  -7 1570.57 80.3752   3
  -5   9  -8 3512.37 126.140   2
  -5  -9  -8 3236.10 116.434   1
  -5   9  -8 3376.95 103.812   4
  -5  -9  -8 3349.09 122.734   3
  -5  -9  -9 27.6234 29.6933   1
  -5   9  -9 23.2475 28.3324   2
  -5   9  -9 12.2722 18.9297   4
  -5  -9 -10 9171.06 220.017   1
  -5   9 -10 9357.86 229.787   2
  -5   9 -10 9130.41 192.735   4
  -5  -9 -11 293.862 45.0541   1
  -5   9 -11 366.510 53.8733   2
  -5   9 -11 338.540 38.8915   4
  -5  -9 -12 952.488 73.5355   1
  -5   9 -12 927.861 76.7843   2
  -5   9 -12 908.828 59.0333   4
  -5   9 -13 1928.10 112.135   2
   5   9  13 1451.23 88.4464   5
  -5  -9 -13 1583.99 97.6159   1
  -5   9 -14 2319.65 131.933   2
   5   9  14 2383.60 113.427   5
  -5  -9 -14 2381.85 120.680   1
   5   9  15 113.482 47.8534   5
  -5  -9 -15 41.5984 37.9073   1
   5   9  16 2354.56 121.641   5
   5  11 -18 703.401 73.5652   2
  -5  11  18 764.991 81.6589   5
   5 -11 -18 660.157 71.0662   1
   5  11 -17 3276.99 144.114   2
  -5  11  17 3521.90 152.037   5
   5 -11 -17 3312.27 143.885   1
   5 -11 -16 2554.51 122.170   1
   5  11 -16 2600.91 123.858   2
   5 -11 -15 11129.2 265.431   1
   5  11 -15 11690.5 268.605   2
   5 -11 -14 237.217 42.9695   1
   5  11 -14 234.676 46.5411   2
   5 -11 -13 2562.62 111.488   1
   5  11 -13 2609.00 111.889   2
   5 -11 -12 37.0796 28.0281   1
   5  11 -12 140.118 35.8112   2
   5 -11 -11 330.985 43.6664   1
   5  11 -11 298.693 42.3058   2
   5 -11 -10 5660.59 155.265   1
   5  11 -10 5831.07 157.922   2
   5 -11  -9 3489.33 115.767   1
   5  11  -9 3464.02 114.921   2
   5  11  -8 664.233 50.1532   2
   5 -11  -8 570.101 20.1108   2
   5 -11  -8 674.297 51.7673   1
   5  11  -8 622.913 21.3096   4
   5  11  -8 594.143 20.7570   4
   5 -11  -7 6843.54 159.286   1
   5  11  -7 6830.44 156.929   2
   5 -11  -7 6446.19 101.710   2
   5  11  -7 6639.75 105.151   4
   5 -11  -6 2710.85 92.7943   1
   5  11  -6 2867.85 92.7727   2
   5 -11  -6 2642.60 60.9517   2
   5  11  -6 2709.30 63.8908   4
   5 -11  -5 5977.35 141.965   1
   5  11  -5 6068.78 137.211   2
   5 -11  -5 5635.91 105.694   2
   5  11  -5 5848.91 109.903   4
   5 -11  -4 251.812 30.7906   1
   5 -11  -4 279.736 23.4275   2
   5  11  -4 305.597 31.6984   2
   5  11  -4 238.863 22.7922   4
   5 -11  -3 5244.80 126.837   1
   5  11  -3 5212.76 117.602   2
   5 -11  -3 5025.94 107.891   2
   5 -11  -3 5214.99 106.736   3
   5  11  -3 5026.93 110.478   4
   5 -11  -2 374.709 35.7768   1
   5  11  -2 304.343 28.1038   2
   5 -11  -2 339.465 28.4496   2
   5  11  -2 347.689 30.0919   4
   5 -11  -2 368.009 25.8780   3
   5 -11  -1 31035.4 429.982   1
   5  11  -1 31562.7 407.985   2
   5 -11  -1 31900.8 389.759   3
   5  11   0 1872.76 58.8403   2
  -5  11   0 1976.50 74.1943   2
   5 -11   0 1946.78 73.7610   1
  -5 -11   0 1821.25 80.8569   1
  -5  11   0 1811.93 73.4288   4
   5 -11   0 1874.29 51.0121   3
  -5 -11   0 1887.85 81.8982   3
  -5  11  -1 3999.64 111.446   2
   5  11   1 3737.09 83.6934   2
  -5 -11  -1 3797.08 119.128   1
  -5  11  -1 3864.26 109.243   4
   5 -11   1 3835.20 75.1099   3
  -5 -11  -1 3735.03 117.423   3
  -5  11  -2 2285.46 86.7648   2
   5  11   2 2194.83 58.7998   2
  -5 -11  -2 2237.13 91.6473   1
  -5  11  -2 2107.54 79.5567   4
  -5 -11  -2 2251.44 92.4817   3
   5 -11   2 2273.41 54.0364   3
  -5  11  -3 2654.55 96.5956   2
   5  11   3 2587.48 60.9695   2
  -5 -11  -3 2628.50 100.389   1
  -5  11  -3 2546.93 87.1813   4
  -5 -11  -3 2427.05 98.0766   3
  -5  11  -4 2242.93 91.0807   2
   5  11   4 1984.86 49.1923   2
  -5 -11  -4 1806.71 84.7141   1
  -5  11  -4 1960.37 76.5889   4
  -5 -11  -4 2028.49 90.6580   3
   5  11   5 32887.2 395.647   2
   5  11   5 34357.7 394.999   2
  -5  11  -5 34720.2 500.298   2
  -5 -11  -5 33033.0 496.242   1
  -5  11  -5 33870.8 468.241   4
  -5 -11  -5 33639.8 503.053   3
  -5  11  -6 130.648 32.4634   2
   5  11   6 150.765 13.7937   2
  -5 -11  -6 166.620 34.9421   1
  -5  11  -6 216.471 31.4814   4
  -5 -11  -6 113.868 33.3786   3
  -5  11  -7 4861.96 151.662   2
  -5 -11  -7 4711.66 147.586   1
  -5  11  -7 4813.36 127.975   4
  -5 -11  -7 4654.31 151.135   3
  -5  11  -8 2650.72 114.888   2
  -5 -11  -8 2566.40 109.591   1
  -5  11  -8 2450.76 90.6755   4
  -5 -11  -8 2732.23 116.712   3
  -5  11  -9 538.782 58.2085   2
  -5 -11  -9 479.938 53.2437   1
  -5  11  -9 603.034 47.3978   4
  -5 -11 -10 4680.32 158.687   1
  -5  11 -10 4797.39 165.045   2
  -5  11 -10 4770.42 133.113   4
  -5 -11 -11 1427.10 89.8435   1
  -5  11 -11 1649.47 100.099   2
  -5  11 -11 1471.51 73.0282   4
  -5  11 -12-24.8626 35.6681   2
  -5 -11 -12-53.4930 36.5307   1
  -5  11 -13 4007.97 163.624   2
  -5 -11 -13 3655.45 150.722   1
  -5 -11 -14 253.999 49.2844   1
   5  13 -17 1.04834 36.9733   2
   5 -13 -17 73.3507 42.3080   1
   5  13 -16 340.285 53.9096   2
   5 -13 -16 314.401 56.0167   1
   5  13 -15 725.280 71.7757   2
   5 -13 -15 553.558 66.3784   1
   5  13 -14 8897.12 233.162   2
   5 -13 -14 8802.46 233.494   1
   5  13 -13 1490.45 89.9888   2
   5 -13 -13 1383.87 89.4325   1
   5  13 -12 10990.4 248.933   2
   5 -13 -12 10217.6 244.185   1
   5  13 -11 93.3062 31.3294   2
   5 -13 -11 123.071 36.2919   1
   5  13 -10 1570.14 83.1762   2
   5 -13 -10 1467.01 82.2686   1
   5  13  -9 4119.25 132.443   2
   5 -13  -9 4008.13 134.672   1
   5  13  -8 1155.91 69.5505   2
   5  13  -8 1111.78 37.0950   4
   5 -13  -8 1180.40 71.6352   1
   5 -13  -7 809.407 59.1224   1
   5  13  -7 822.773 57.8211   2
   5 -13  -6 31490.2 455.717   1
   5 -13  -6 29741.4 371.901   2
   5  13  -6 31562.7 443.810   2
   5  13  -6 30226.6 387.283   4
   5 -13  -5 2831.97 102.056   1
   5  13  -5 2722.66 92.6107   2
   5 -13  -5 2680.26 69.7059   2
   5  13  -5 2731.71 76.3049   4
   5 -13  -4 25333.5 383.173   1
   5  13  -4 25890.6 365.262   2
   5 -13  -4 23480.3 327.596   2
   5  13  -4 24448.9 340.918   4
   5 -13  -3 3738.56 114.977   1
   5  13  -3 3715.75 102.451   2
   5 -13  -3 3399.95 90.9398   2
   5 -13  -3 3691.25 94.9690   3
   5 -13  -2 893.314 57.4680   1
   5  13  -2 1006.00 50.3722   2
   5 -13  -2 922.784 44.6862   3
  -5 -13   1 3175.28 115.968   1
   5 -13  -1 3211.88 104.616   1
   5  13  -1 3134.63 85.8447   2
   5 -13  -1 3220.95 81.0907   3
  -5 -13   0 7168.32 179.473   1
   5 -13   0 6525.16 157.006   1
  -5  13   0 6902.32 155.930   2
   5  13   0 6970.12 133.218   2
   5 -13   0 6839.30 125.443   3
  -5 -13   0 7030.30 175.287   3
  -5  13  -1 4356.32 123.857   2
   5  13   1 4348.30 95.9611   2
  -5 -13  -1 4407.74 139.485   1
  -5  13  -1 4283.27 124.239   4
   5 -13   1 4501.04 92.3515   3
  -5 -13  -1 4557.27 138.969   3
   5  13   2 15008.6 213.067   2
  -5  13  -2 15130.1 270.667   2
  -5 -13  -2 14522.7 284.099   1
  -5  13  -2 14620.0 261.021   4
  -5 -13  -2 14880.5 285.642   3
   5 -13   2 15104.3 212.398   3
   5  13   3 494.714 26.8403   2
  -5 -13  -3 496.289 53.0157   1
  -5  13  -3 457.114 46.0544   2
  -5  13  -3 479.975 43.0602   4
  -5 -13  -3 491.913 51.3716   3
   5 -13   3 469.337 28.1840   3
  -5  13  -4 5881.96 160.369   2
  -5 -13  -4 5556.31 163.341   1
  -5  13  -4 5593.24 142.761   4
  -5 -13  -4 5768.45 166.476   3
  -5  13  -5 2861.22 113.632   2
  -5 -13  -5 2987.45 119.531   1
  -5  13  -5 2934.30 100.553   4
  -5 -13  -5 3030.52 120.392   3
  -5  13  -6 14.7635 28.5213   2
  -5 -13  -6 68.7912 34.3978   1
  -5  13  -6 51.6179 24.0118   4
  -5 -13  -6 35.5345 29.5340   3
  -5  13  -7 1802.57 95.5086   2
  -5 -13  -7 1588.80 91.3227   1
  -5  13  -7 1536.95 74.1260   4
  -5 -13  -7 1793.01 98.0939   3
  -5  13  -8 5650.74 175.924   2
  -5 -13  -8 5409.48 172.365   1
  -5  13  -8 5460.75 143.498   4
  -5 -13  -8 5181.69 171.472   3
  -5 -13  -9 93.2660 37.7635   1
  -5  13  -9 62.3049 37.0274   2
  -5 -13  -9 90.5273 36.5822   3
  -5  13  -9 82.2753 26.6175   4
  -5 -13 -10 3466.68 142.925   1
  -5  13 -10 3520.45 146.567   2
  -5 -13 -11 1274.63 92.6430   1
  -5  13 -11 1338.01 94.4758   2
  -5 -13 -12 63.2458 40.1444   1
  -5  13 -12 32.5211 36.8291   2
  -5 -13 -13 1355.65 99.7545   1
   5 -15 -15 6505.03 210.697   1
   5  15 -15 6472.94 208.831   2
   5 -15 -14 924.689 81.3194   1
   5  15 -14 780.464 74.2129   2
   5 -15 -13 910.320 78.2547   1
   5  15 -13 978.853 78.2901   2
   5 -15 -12 1596.42 97.4736   1
   5  15 -12 1530.14 94.7287   2
   5 -15 -11 186.956 46.2863   1
   5  15 -11 113.610 37.4554   2
   5 -15 -10 1306.24 84.2452   1
   5  15 -10 1265.33 79.9462   2
   5 -15  -9 5019.97 160.053   1
   5  15  -9 4587.57 146.998   2
   5 -15  -8 143.659 36.2956   1
   5  15  -8 199.824 38.1421   2
   5 -15  -7 3449.47 125.976   1
   5  15  -7 3572.44 120.860   2
   5 -15  -6 4988.11 152.199   1
   5  15  -6 4909.73 140.526   2
   5 -15  -5 428.903 48.8854   1
   5  15  -5 519.731 46.8142   2
   5 -15  -4 133.373 34.8479   1
   5  15  -4 176.446 30.7740   2
   5 -15  -3 3662.11 124.062   1
   5  15  -3 3918.56 111.295   2
   5 -15  -3 3947.56 106.504   3
   5 -15  -2 147.432 34.9647   1
  -5 -15   2 96.8914 39.4646   1
   5  15  -2 130.112 25.3530   2
   5 -15  -2 94.3800 20.6295   3
   5 -15  -1 251.906 39.7074   1
  -5 -15   1 185.634 44.7234   1
   5  15  -1 138.884 22.9340   2
  -5 -15   1 172.592 38.4400   3
   5 -15  -1 197.862 25.7598   3
   5 -15   0 1608.44 81.3435   1
  -5 -15   0 1660.21 92.8351   1
   5  15   0 1718.17 63.1086   2
   5 -15   0 1721.96 61.9982   3
  -5 -15   0 1787.81 91.9900   3
  -5  15  -1 1698.70 80.2824   2
   5  15   1 1704.16 58.3881   2
  -5 -15  -1 1719.47 93.4664   1
   5 -15   1 1700.40 83.7581   1
  -5  15  -1 1850.69 85.0323   4
   5 -15   1 1806.36 60.8839   3
  -5 -15  -1 1719.98 90.6993   3
  -5 -15  -2 515.535 55.3616   1
  -5  15  -2 438.981 46.8440   2
  -5  15  -2 508.225 48.0893   4
  -5 -15  -2 429.093 50.4081   3
  -5  15  -3 3093.20 115.626   2
  -5 -15  -3 2745.17 119.343   1
  -5  15  -3 3031.40 108.273   4
  -5 -15  -3 2876.81 119.913   3
  -5 -15  -4 247.991 45.5643   1
  -5  15  -4 228.871 41.8003   2
  -5  15  -4 287.591 37.8088   4
  -5 -15  -4 264.181 47.0038   3
  -5  15  -5 1680.75 91.5942   2
  -5 -15  -5 1622.55 95.8482   1
  -5  15  -5 1638.05 79.2275   4
  -5 -15  -5 1683.56 95.9499   3
  -5  15  -6 265.414 47.2810   2
  -5 -15  -6 326.062 49.4425   1
  -5  15  -6 240.658 36.1517   4
  -5 -15  -6 321.936 49.7586   3
  -5  15  -7 3047.57 129.327   2
  -5 -15  -7 2777.15 128.083   1
  -5  15  -7 2732.01 101.951   4
  -5 -15  -7 2945.48 131.312   3
  -5 -15  -8 1242.07 89.2348   1
  -5  15  -8 1413.58 93.2284   2
  -5 -15  -8 1248.95 89.8591   3
  -5 -15  -9 34.4063 36.3985   1
  -5  15  -9 30.7608 40.0782   2
  -5 -15  -9-13.6241 36.0313   3
  -5  15 -10 820.376 79.0216   2
  -5 -15 -10 844.979 79.5153   1
  -5 -15 -11 119.337 46.9985   1
   5 -17 -13 1548.78 103.436   1
   5  17 -13 1214.50 91.0381   2
   5 -17 -12 3531.67 150.317   1
   5  17 -12 3615.72 147.174   2
   5 -17 -11 1206.07 88.6730   1
   5  17 -11 1071.56 82.3261   2
   5 -17 -10 1355.84 91.2147   1
   5  17 -10 1357.02 86.5909   2
   5 -17  -9 3034.91 132.863   1
   5  17  -9 3030.59 125.894   2
   5 -17  -8 49.0944 32.9763   1
   5  17  -8 80.8806 35.5089   2
   5 -17  -7 3679.02 139.792   1
   5  17  -7 3682.03 129.878   2
   5 -17  -6 4239.63 149.618   1
   5  17  -6 4249.49 135.477   2
   5 -17  -5 244.841 43.5162   1
   5  17  -5 312.182 41.0359   2
   5 -17  -4 8248.47 210.552   1
   5  17  -4 8359.88 186.559   2
  -5 -17   3 2915.92 129.714   1
   5 -17  -3 2978.90 120.922   1
   5  17  -3 3031.18 101.873   2
   5 -17  -3 3026.33 98.8265   3
   5 -17  -2 370.653 48.5749   1
  -5 -17   2 267.421 52.1262   1
   5  17  -2 333.351 35.7989   2
  -5 -17   2 375.459 50.5909   3
   5 -17  -2 327.743 34.4087   3
  -5 -17   1 7123.01 205.003   1
   5 -17  -1 6966.90 188.658   1
  -5 -17   1 6838.30 193.351   3
   5 -17   0 291.726 44.1664   1
  -5 -17   0 347.753 51.7293   1
  -5  17   0 380.776 47.1355   4
  -5 -17   0 406.619 50.4650   3
   5 -17   1 96.4055 35.3493   1
  -5 -17  -1 104.463 39.8349   1
  -5  17  -1 134.853 35.7158   2
  -5  17  -1 142.397 35.8635   4
  -5 -17  -1 42.2663 33.9913   3
  -5  17  -2 2796.58 111.757   2
   5 -17   2 2723.08 114.416   1
  -5 -17  -2 2840.77 130.007   1
  -5  17  -2 2753.34 110.154   4
  -5 -17  -2 2799.67 123.554   3
  -5 -17  -3-1.04267 35.4557   1
  -5  17  -3 9.09111 28.5948   2
  -5  17  -3 11.1940 26.3890   4
  -5 -17  -3-9.49553 33.6995   3
  -5  17  -4 3587.72 136.521   2
  -5 -17  -4 3712.98 150.719   1
  -5  17  -4 3693.48 126.620   4
  -5 -17  -4 3556.75 145.306   3
  -5  17  -5 2580.16 117.942   2
  -5 -17  -5 2584.60 128.335   1
  -5  17  -5 2485.32 103.671   4
  -5 -17  -5 2652.04 127.100   3
  -5 -17  -6 18.7329 40.1444   1
  -5  17  -6-25.4797 38.8107   2
  -5 -17  -6-6.83661 36.2615   3
  -5 -17  -7 2266.93 124.405   1
  -5  17  -7 2142.59 116.189   2
  -5 -17  -7 2363.35 126.075   3
  -5 -17  -8 3839.28 161.969   1
  -5  17  -8 3611.42 152.659   2
  -5 -17  -8 3660.69 156.777   3
  -5  17  -9 27.9140 37.3996   2
   5  19 -11-14.0222 35.7447   2
   5 -19 -10 740.266 76.4776   1
   5  19 -10 711.892 70.2839   2
   5 -19  -9 704.558 71.4839   1
   5  19  -9 748.243 70.6229   2
   5 -19  -8 139.104 45.4357   1
   5  19  -8 190.309 41.4282   2
   5 -19  -7 1827.74 107.210   1
   5  19  -7 1912.38 97.6176   2
   5 -19  -6 999.810 80.9548   1
   5  19  -6 1034.12 71.2608   2
   5 -19  -5 251.017 47.0234   1
   5  19  -5 215.360 40.2732   2
   5 -19  -4 2582.37 122.118   1
  -5 -19   4 2691.41 133.925   1
  -5 -19   4 2669.33 122.272   3
   5 -19  -3 781.619 71.0834   1
  -5 -19   3 726.692 76.8977   1
  -5 -19   3 747.101 69.0585   3
   5 -19  -2 346.171 54.4157   1
  -5 -19   2 214.760 50.6585   1
  -5 -19   2 235.095 46.3260   3
  -5 -19   1 2442.66 125.958   1
   5 -19  -1 2315.46 113.109   1
  -5 -19   1 2307.97 116.798   3
   5 -19   0 816.087 71.4527   1
  -5 -19   0 797.921 81.0878   1
  -5  19   0 874.641 70.9311   4
  -5 -19   0 906.089 76.8465   3
   5 -19   1 112.275 43.0455   1
  -5 -19  -1 197.854 51.3517   1
  -5  19  -1 134.242 39.7569   4
  -5 -19  -1 187.879 49.0125   3
   5 -19   2 1790.06 101.224   1
  -5 -19  -2 1588.35 105.799   1
  -5  19  -2 1759.80 94.8252   4
  -5 -19  -2 1897.86 110.401   3
  -5 -19  -3 323.238 56.0127   1
  -5  19  -3 250.547 45.0211   2
   5 -19   3 292.627 54.3369   1
  -5  19  -3 371.789 47.2595   4
  -5 -19  -3 278.400 51.3206   3
  -5 -19  -4 1543.86 106.515   1
   5 -19   4 1744.92 101.508   1
  -5  19  -4 1590.81 98.2442   2
  -5 -19  -4 1569.80 103.203   3
  -5  19  -5 3357.54 141.110   2
  -5 -19  -5 3348.92 151.172   3
  -5  19  -6 706.785 71.0906   2
  -5  19  -7 993.911 82.7459   2
   5  21 -10 124.033 47.5024   2
   5  21  -9 937.618 78.6607   2
   5  21  -8 34.8353 34.3776   2
   5 -21  -6 37.4539 40.4112   1
  -5 -21   6 107.066 44.7854   3
   5 -21  -5 48.3752 44.5692   1
  -5 -21   5-19.6982 39.7754   3
   5 -21  -4 867.620 78.7340   1
  -5 -21   4 805.204 76.7506   3
   5 -21  -3 1361.14 97.4521   1
  -5 -21   3 1339.69 97.1300   3
   5 -21  -2 769.899 76.4832   1
  -5 -21   2 826.615 78.1079   3
   5 -21  -1 2170.94 118.501   1
  -5 -21   1 2345.95 124.068   3
   5 -21   0 10.3665 36.8212   1
  -5  21   0 53.0199 37.7028   4
  -5 -21   0-33.9411 38.2951   3
   5 -21   1 1181.62 90.1440   1
  -5  21  -1 960.836 77.1223   4
  -5 -21  -1 945.618 81.7873   3
   5 -21   2 483.690 62.5839   1
  -5 -21  -2 622.413 71.9003   3
   5 -21   3 607.406 70.2438   1
   5 -21   4 450.370 63.4923   1
  -5  21  -5 3193.97 145.719   2
   5 -21   5 2988.48 144.987   1
   6   0 -22 5696.41 176.867   2
   6   0 -21-50.9850 31.2699   2
  -6   0  21-0.37586 36.9150   5
   6   0 -20 613.451 57.2916   2
  -6   0  20 690.524 70.6028   5
   6   0 -19 12.6844 26.4966   2
  -6   0  19 35.1811 34.2868   5
   6   0 -18 303.370 39.4621   2
  -6   0  18 282.463 47.5229   5
   6   0 -17-8.53385 22.3478   2
  -6   0  17 15.6250 31.4637   5
   6   0 -16 15363.4 272.199   2
   6   0 -15 3.22399 21.2640   2
   6   0 -14 6373.91 146.173   2
  -6   0  14 6292.66 129.995   4
   6   0 -13 19.1422 20.9078   2
  -6   0  13 5.86194 13.3906   4
   6   0 -12 6140.34 133.781   2
   6   0 -11 15.3024 16.9149   2
   6   0 -10 5924.50 123.016   2
   6   0  -9 1.31524 16.3962   2
  -6   0   9 17.6573 14.5195   1
   6   0  -8 10277.8 169.293   2
  -6   0   8 10736.8 173.981   1
   6   0  -7 27.2142 18.1689   2
  -6   0   7 24.7657 14.2694   1
  -6   0   6 28012.2 348.326   1
  -6   0   5-0.66346 11.0884   1
  -6   0   5 14.0663 12.1216   4
  -6   0   5 9.32413 12.3307   5
   6   0  -4 111212. 1227.20   4
  -6   0   4 110806. 1213.08   5
  -6   0   4 112545. 1227.04   4
   6   0  -3 7.88344 14.2081   4
  -6   0   3 29.8551 8.66916   5
  -6   0   3 22.4970 13.1302   4
   6   0  -2 224.450 21.4934   4
  -6   0   2 180.890 19.9643   4
  -6   0   1 30.3284 6.74195   1
   6   0  -1 79.4323 18.7487   4
  -6   0   1 36.9439 17.9281   4
  -6   0   0 20558.0 238.956   1
  -6   0   0 21271.3 282.828   4
   6   0   0 21616.0 283.551   4
  -6   0  -1-3.35145 7.18730   1
   6   0   1 8.84816 7.83780   1
   6   0   1-8.13724 15.6517   4
  -6   0  -1 5.13313 11.9673   3
  -6   0  -1 29.6358 16.6231   4
   6   0   2 23472.5 316.857   2
   6   0   2 22759.5 281.074   1
  -6   0  -2 23087.4 280.330   1
   6   0   2 24597.0 322.887   4
  -6   0  -2 23312.5 297.059   3
  -6   0  -2 23228.9 320.349   4
  -6   0  -3-8.79174 10.9659   1
   6   0   3 32.9382 11.6732   1
   6   0   3 21.4911 15.1424   2
   6   0   3 10.9738 12.0831   3
  -6   0  -3 17.6407 14.3023   3
  -6   0  -3 6.56846 19.9085   4
   6   0   3 16.5381 15.7231   4
  -6   0  -4 16060.5 222.381   1
   6   0   4 16209.6 223.709   1
   6   0   4 16121.0 248.807   2
  -6   0  -4 16405.6 255.109   4
   6   0   4 16593.4 237.018   3
  -6   0  -5-5.28258 11.6584   1
   6   0   5 22.9055 13.7777   1
  -6   0  -5 10.4344 19.4700   4
   6   0   5 34.5034 15.8340   3
   6   0   6 21800.2 305.313   1
  -6   0  -6 21968.5 304.214   1
   6   0   6 22286.2 316.591   3
  -6   0  -6 22515.1 335.699   4
  -6   0  -7-10.5034 15.2030   1
   6   0   7-18.2210 16.3156   1
  -6   0  -7 4.28274 19.7678   4
  -6   0  -8 5972.04 133.467   1
  -6   0  -8 5994.74 149.832   4
  -6   0  -9 42.0430 20.6487   1
  -6   0  -9 3.96699 23.7385   4
  -6   0 -10 17964.3 315.219   4
  -6   0 -11 1.87349 25.9671   4
  -6   0 -12 26144.7 427.282   4
   6   0  13 0.08006 24.1483   5
  -6   0 -13-2.16090 28.5623   4
   6   0  14 6593.89 178.541   5
  -6   0 -14 6660.61 190.241   4
   6   0  15 18.4951 27.5340   5
   6   0  16 775.097 69.8830   5
   6   0  17-31.5787 34.2058   5
   6   2 -23 373.614 56.7394   2
   6   2 -22 305.654 50.0305   2
   6   2 -21 4117.02 151.507   2
  -6   2  21 4447.47 171.082   5
   6   2 -20 218.524 39.9264   2
   6  -2 -20 254.672 40.0905   2
  -6   2  20 235.783 50.6184   5
   6   2 -19 8563.98 211.485   2
   6  -2 -19 8565.85 195.314   2
  -6   2  19 8375.67 226.356   5
   6   2 -18 438.008 48.1909   2
   6  -2 -18 421.209 41.6297   2
  -6   2  18 387.553 53.1516   5
   6   2 -17 7588.57 186.337   2
   6  -2 -17 7720.54 172.125   2
  -6   2  17 7952.25 203.712   5
   6  -2 -16 223.906 31.2338   2
   6   2 -16 247.936 37.2220   2
  -6   2  16 188.623 40.5778   5
   6  -2 -15 60.1065 22.9254   2
   6   2 -15 47.5733 22.5501   2
   6  -2 -15 23.2777 28.6043   1
  -6   2  15 65.9748 32.5756   5
  -6  -2  15 75.9503 17.5852   4
   6  -2 -14 193.187 26.6434   2
   6   2 -14 221.607 34.2694   2
   6  -2 -14 190.921 33.3675   1
  -6   2  14 197.179 35.5471   5
  -6  -2  14 213.697 21.7207   4
   6  -2 -13 20256.1 297.266   2
   6   2 -13 20332.8 316.834   2
   6  -2 -13 20646.0 328.094   1
  -6   2  13 20233.9 327.398   5
  -6  -2  13 19736.6 266.864   4
   6  -2 -12 863.165 44.2607   2
   6   2 -12 782.131 48.6072   2
   6  -2 -12 836.305 51.9499   1
  -6   2  12 857.175 54.1643   5
  -6  -2  12 860.523 34.1191   4
   6   2 -11 35561.0 472.990   2
   6  -2 -11 34995.2 451.642   2
   6  -2 -11 36439.2 478.139   1
  -6   2  11 37033.6 483.072   5
  -6  -2  11 34900.0 419.870   4
   6  -2 -10 3638.75 87.3687   2
   6   2 -10 3669.04 98.2228   2
   6  -2 -10 3909.62 101.659   1
  -6   2  10 4019.42 104.681   5
   6  -2  -9 1139.42 45.2042   2
   6   2  -9 1189.20 53.2697   2
  -6  -2   9 1204.70 52.5529   1
  -6   2   9 1322.26 54.0927   1
   6  -2  -9 1201.91 51.6982   1
  -6   2   9 1117.87 52.2021   5
  -6  -2   9 1115.82 52.9459   2
   6   2  -8 208.100 25.0473   2
   6  -2  -8 221.392 23.3578   2
  -6   2   8 223.238 26.5671   5
  -6   2   8 221.168 23.3110   1
   6  -2  -8 226.192 24.0548   1
   6   2  -7 510.270 33.8803   2
  -6   2   7 539.850 30.7998   1
   6  -2  -7 449.474 29.1919   1
  -6   2   7 436.109 30.7631   5
  -6  -2   7 392.917 18.8943   4
  -6   2   6 1067.87 39.0052   1
   6  -2  -6 1157.70 40.5242   1
  -6   2   6 1131.01 43.0855   5
  -6  -2   6 1198.72 32.0661   4
   6   2  -6 1183.25 47.5325   2
   6  -2  -5 82053.2 906.915   1
  -6   2   5 82632.4 907.749   1
   6   2  -5 78726.9 898.292   4
  -6  -2   5 82634.4 899.262   4
   6  -2  -5 82639.3 915.390   5
  -6   2   5 81411.1 916.118   5
   6  -2  -4 1148.50 31.9982   1
  -6   2   4 1079.93 31.2544   1
  -6   2   4 1146.72 38.2914   5
  -6  -2   4 1087.86 34.8840   4
  -6   2   4 1232.26 44.0597   4
   6  -2  -4 1145.90 37.3008   5
   6   2  -4 1158.90 35.4756   4
  -6   2   3 88198.3 990.360   1
   6  -2  -3 92465.6 990.447   1
   6   2  -3 91766.6 1015.97   4
   6  -2  -3 92876.5 1007.39   5
  -6  -2   3 92571.9 1015.81   4
  -6   2   3 95242.3 1031.24   4
   6   2  -2 995.839 39.2637   4
   6  -2  -2 981.535 31.1734   5
   6  -2  -2 1089.11 44.3684   4
  -6   2   2 1053.42 42.6162   4
  -6  -2   2 1010.30 39.3568   4
  -6   2   1 57071.9 663.492   4
   6  -2  -1 57504.8 663.183   4
   6   2  -1 55791.1 657.287   4
  -6  -2   1 55639.2 656.360   4
  -6  -2   0 916.142 31.5051   1
   6   2   0 975.495 42.8314   4
   6  -2   0 915.335 41.4535   4
  -6   2   0 842.426 40.8165   4
  -6  -2   0 918.234 42.0848   4
  -6   2   0 862.769 25.0992   3
   6  -2   1 78470.1 897.104   2
  -6  -2  -1 76257.7 862.119   1
   6  -2   1 76365.6 836.949   1
   6   2   1 77335.5 863.498   1
  -6   2  -1 78404.9 893.805   4
   6  -2   1 79613.4 895.938   4
   6   2   1 77680.8 839.042   5
   6   2   1 78408.8 895.693   4
  -6  -2  -1 76153.4 882.647   3
   6  -2   2 1353.48 54.1883   2
  -6  -2  -2 1370.14 42.8810   1
   6   2   2 1357.39 43.1796   1
   6  -2   2 1342.31 34.0098   1
  -6   2  -2 1307.13 52.5209   4
   6  -2   2 1431.13 55.0874   4
   6   2   2 1359.54 54.4041   4
   6   2   2 1311.56 34.0660   5
  -6  -2  -2 1350.20 50.1299   3
  -6  -2  -2 1341.24 55.0204   4
   6  -2   3 62863.7 739.898   2
   6   2   3 60503.5 723.113   2
   6   2   3 60988.5 707.803   1
  -6  -2  -3 61696.4 707.613   1
   6  -2   3 59801.5 688.886   1
   6   2   3 61103.4 690.074   5
  -6   2  -3 61195.2 735.668   4
   6  -2   3 63890.2 738.311   4
  -6  -2  -3 62344.8 741.807   4
  -6  -2  -3 60782.6 725.216   3
   6  -2   3 61331.5 696.520   3
   6   2   4 1482.36 55.8228   2
   6   2   4 1547.65 52.7560   1
   6  -2   4 1513.60 45.6132   1
  -6  -2  -4 1492.57 51.1473   1
   6   2   4 1545.68 46.7236   5
   6  -2   4 1518.56 48.2107   3
  -6  -2  -4 1449.61 61.7355   4
  -6  -2  -4 1466.76 57.5431   3
   6   2   4 1557.06 59.0238   3
  -6   2  -4 1557.60 61.5581   4
   6   2   5 1218.11 51.9476   2
   6   2   5 1296.37 50.7408   1
  -6  -2  -5 1281.96 50.2071   1
   6  -2   5 1294.07 45.9107   1
   6   2   5 1245.10 45.5832   5
   6  -2   5 1291.28 47.5611   3
  -6   2  -5 1282.78 58.3937   4
  -6  -2  -5 1214.91 59.5340   4
  -6  -2  -5 1306.08 56.0132   3
  -6  -2  -6 259.583 26.7866   1
   6  -2   6 267.063 24.4798   1
   6   2   6 276.383 26.0364   1
   6   2   6 308.451 27.6286   5
  -6   2  -6 289.718 32.5037   4
  -6  -2  -6 270.256 33.2348   4
   6  -2   6 279.304 25.8688   3
  -6  -2  -7 24669.9 351.014   1
   6  -2   7 24326.5 339.970   1
   6   2   7 25311.1 341.520   5
  -6  -2  -7 24502.1 375.563   4
   6  -2   7 24843.5 344.205   3
  -6   2  -7 24962.2 368.634   4
  -6  -2  -8 6726.55 147.592   1
   6   2   8 6647.93 140.047   5
  -6   2  -8 6727.19 158.112   4
  -6  -2  -8 6698.65 162.655   4
  -6  -2  -9 22505.3 342.467   1
   6   2   9 22423.4 332.735   5
  -6   2  -9 22166.5 354.042   4
  -6  -2  -9 22289.8 363.817   4
  -6  -2 -10 10796.9 213.221   1
   6   2  10 10589.0 204.680   5
  -6   2 -10 10783.1 223.074   4
  -6  -2 -10 10477.5 227.361   4
  -6  -2 -11 8737.98 193.420   1
   6   2  11 8865.94 188.523   5
  -6   2 -11 8580.58 200.018   4
  -6  -2 -11 8708.86 208.338   4
  -6  -2 -12 2417.17 98.6059   1
   6   2  12 2227.10 92.8901   5
  -6   2 -12 2370.23 102.042   4
  -6  -2 -12 2291.36 104.334   4
  -6  -2 -13 2581.43 106.778   1
   6   2  13 2621.86 105.421   5
  -6   2 -13 2584.48 110.177   4
   6   2  14 22.2379 28.2829   5
  -6   2 -14-11.1312 28.2469   4
   6   2  15 5630.49 170.336   5
  -6   2 -15 5713.30 176.411   4
   6   2  16 46.5587 31.2716   5
   6  -2  17 4507.43 163.389   5
   6   4 -22 5379.15 185.426   2
   6   4 -21 638.009 67.0279   2
  -6   4  21 771.584 79.3134   5
   6   4 -20 686.756 66.1939   2
  -6   4  20 903.388 80.0388   5
   6   4 -19 30.9079 29.4881   2
  -6   4  19 66.5995 40.0124   5
   6  -4 -19 16.5094 30.9642   1
   6   4 -18 574.533 58.5554   2
   6  -4 -18 605.433 46.6691   2
  -6   4  18 561.685 60.8609   5
   6  -4 -18 490.408 56.9961   1
   6   4 -17 2795.05 112.294   2
   6  -4 -17 2652.47 89.2086   2
  -6   4  17 2688.10 116.153   5
   6  -4 -17 2623.74 114.147   1
   6   4 -16 23717.0 391.091   2
   6  -4 -16 24092.5 348.478   2
  -6   4  16 23649.5 401.875   5
   6  -4 -16 24096.7 401.212   1
   6   4 -15 5558.89 152.957   2
   6  -4 -15 5607.71 127.037   2
   6  -4 -15 5631.57 157.240   1
  -6   4  15 5724.09 160.549   5
   6  -4 -14 27527.1 372.807   2
   6   4 -14 27695.7 416.538   2
   6  -4 -14 27343.9 419.962   1
  -6   4  14 27248.3 423.289   5
  -6  -4  14 27238.9 330.618   4
   6  -4 -13 6499.95 130.067   2
   6   4 -13 6617.82 157.821   2
   6  -4 -13 6678.24 161.199   1
  -6   4  13 6432.91 160.749   5
  -6  -4  13 6419.77 98.1801   4
   6  -4 -12 1492.84 54.3594   2
   6   4 -12 1447.51 67.6438   2
   6  -4 -12 1516.90 69.6238   1
  -6   4  12 1506.55 70.7395   5
  -6  -4  12 1528.47 34.2369   4
   6   4 -11 6011.57 139.994   2
   6  -4 -11 5943.79 114.462   2
   6  -4 -11 6214.18 141.133   1
  -6   4  11 6029.88 143.306   5
  -6  -4  11 5825.41 79.9345   4
   6   4 -10 10046.8 188.326   2
   6  -4 -10 9815.75 157.456   2
   6  -4 -10 9930.37 184.899   1
  -6   4  10 9813.72 187.223   5
   6   4  -9 7511.76 152.619   2
   6  -4  -9 7898.45 150.985   1
  -6   4   9 7859.38 155.112   5
   6  -4  -9 7421.07 128.294   2
   6   4  -8 98246.7 1130.29   2
   6  -4  -8 96419.7 1118.38   1
  -6   4   8 98429.5 1121.52   1
   6  -4  -8 98211.4 1128.11   5
  -6   4   8 99233.5 1129.70   5
   6   4  -7 3117.35 84.5719   2
   6  -4  -7 3129.30 77.8224   1
  -6   4   7 3178.22 79.0019   1
   6  -4  -7 3201.78 83.9585   5
  -6   4   7 3095.58 83.1978   5
  -6  -4   7 3027.19 45.8843   4
   6   4  -6 11593.4 183.841   2
   6  -4  -6 11303.3 169.593   1
  -6   4   6 11351.7 171.357   1
  -6   4   6 11512.9 180.275   5
   6  -4  -6 11442.0 179.751   5
   6   4  -6 10294.9 137.361   4
  -6  -4   6 11132.1 138.516   4
  -6   4   5 631.417 30.3673   1
   6  -4  -5 596.365 29.4633   1
   6   4  -5 584.784 22.4834   4
   6  -4  -5 654.522 34.4018   5
   6   4  -5 611.551 37.0265   2
  -6  -4   5 590.239 22.8838   4
   6  -4  -4 6947.46 108.511   1
  -6   4   4 6836.23 108.658   1
   6   4  -4 6543.68 104.930   4
   6  -4  -4 7264.12 122.865   5
   6   4  -4 7044.50 127.255   2
  -6  -4   4 6807.55 105.943   4
   6  -4  -3 29835.0 348.326   1
  -6   4   3 29281.7 349.031   1
  -6   4   3 30398.0 384.906   4
   6   4  -3 29475.4 360.977   4
   6  -4  -3 30232.8 370.259   5
  -6  -4   3 30018.8 361.975   4
   6  -4  -2 6225.29 90.1136   1
  -6   4   2 6327.47 121.955   4
   6   4  -2 6378.22 111.564   4
  -6  -4   2 6498.89 112.450   4
   6  -4  -1 85.2977 10.3208   1
   6  -4  -1 51.4197 18.3356   2
  -6   4   1 63.8752 19.7632   4
  -6  -4   1 80.0840 18.2849   4
   6   4  -1 39.6719 14.7733   4
   6  -4   0 30555.3 392.548   2
  -6  -4   0 30153.1 376.160   1
  -6  -4   0 29310.1 347.177   5
   6  -4   0 30814.2 391.859   4
  -6   4   0 29799.1 388.922   4
  -6  -4   0 30008.7 387.571   4
   6   4   0 30135.1 386.092   4
   6  -4   1 509.135 35.3768   2
  -6  -4  -1 486.120 30.4875   1
   6  -4   1 542.263 35.5682   4
  -6  -4  -1 500.817 22.6898   5
  -6   4  -1 502.996 35.3091   4
  -6  -4  -1 455.161 35.4236   4
  -6  -4  -1 566.721 38.5416   3
   6   4   1 544.977 36.0609   4
  -6  -4  -2 5650.37 110.485   1
   6  -4   2 5124.22 86.5842   1
   6   4   2 5466.55 110.160   1
  -6  -4  -2 5343.28 90.6455   5
   6  -4   2 5856.85 121.070   4
  -6   4  -2 5601.44 119.842   4
  -6  -4  -2 5401.20 119.320   3
  -6  -4  -2 5654.68 123.071   4
   6   4   2 5812.47 122.964   4
   6   4   3 27289.2 356.847   1
  -6  -4  -3 26822.9 354.523   1
   6  -4   3 26297.5 325.568   1
  -6   4  -3 27017.5 367.458   4
   6   4   3 26285.5 330.620   5
   6  -4   3 26672.8 365.907   4
   6  -4   3 26642.5 315.951   3
  -6  -4  -3 27851.6 377.531   4
  -6  -4  -3 26736.3 369.634   3
   6   4   4 1578.98 55.0433   2
  -6  -4  -4 1583.77 58.5922   1
   6  -4   4 1576.11 47.7437   1
  -6   4  -4 1572.89 66.7364   2
   6   4   4 1589.54 59.3511   1
   6   4   4 1558.49 49.6317   5
  -6   4  -4 1574.57 63.4737   4
   6  -4   4 1594.17 43.8053   3
  -6  -4  -4 1676.67 69.5034   4
  -6  -4  -4 1660.23 65.7652   3
  -6   4  -5 7044.55 155.375   2
   6   4   5 6627.45 131.071   2
  -6  -4  -5 6748.83 138.978   1
   6  -4   5 6913.41 123.466   1
   6   4   5 6785.28 125.128   5
  -6   4  -5 6896.98 146.438   4
  -6  -4  -5 6808.78 149.658   3
  -6  -4  -5 6841.59 153.718   4
   6  -4   5 6784.42 117.121   3
  -6   4  -6 17894.5 295.162   2
   6   4   6 17269.3 260.811   2
   6  -4   6 17790.7 254.824   1
  -6  -4  -6 17859.0 274.964   1
   6   4   6 17987.0 259.214   5
  -6  -4  -6 17739.5 295.205   4
   6  -4   6 17561.1 247.923   3
  -6  -4  -6 17490.1 285.789   3
  -6   4  -6 17811.8 282.135   4
  -6   4  -7 4249.80 124.524   2
  -6  -4  -7 4012.38 109.621   1
   6  -4   7 3989.67 98.1119   1
   6   4   7 4060.46 100.830   5
  -6  -4  -7 3926.44 120.977   4
   6  -4   7 3957.98 94.5064   3
  -6   4  -7 4047.30 113.600   4
  -6   4  -8 828.546 57.2415   2
  -6  -4  -8 826.314 52.2059   1
   6   4   8 840.706 47.1583   5
   6  -4   8 836.883 44.7404   3
  -6  -4  -8 767.427 57.7029   4
  -6   4  -8 870.670 54.3073   4
  -6   4  -9 4551.14 138.471   2
  -6  -4  -9 4304.09 124.026   1
   6   4   9 4502.75 117.210   5
  -6  -4  -9 4327.07 135.815   4
  -6   4  -9 4355.42 126.462   4
  -6   4 -10 9379.24 214.620   2
  -6  -4 -10 9203.94 198.845   1
   6   4  10 9033.00 186.175   5
  -6   4 -10 9031.80 198.393   4
  -6  -4 -10 8917.09 210.642   4
  -6   4 -11 2551.76 109.265   2
  -6  -4 -11 2491.42 100.141   1
   6   4  11 2366.14 91.8316   5
  -6   4 -11 2270.10 96.3919   4
  -6   4 -12 9787.65 234.674   2
  -6  -4 -12 9545.71 219.049   1
   6   4  12 9779.78 209.900   5
  -6   4 -12 9802.10 219.115   4
  -6   4 -13 1139.99 79.7357   2
  -6  -4 -13 1070.64 72.8036   1
   6   4  13 1129.73 69.6215   5
  -6   4 -13 990.569 69.6325   4
  -6   4 -14 7263.55 207.591   2
  -6  -4 -14 6933.32 192.945   1
   6   4  14 7040.83 185.485   5
  -6   4 -14 6829.57 187.129   4
  -6  -4 -15-12.8894 31.4450   1
   6   4  15 77.0041 35.1348   5
  -6   4 -15-6.44783 34.2748   4
   6   4  16 40.6074 35.1739   5
  -6  -4 -16 18.4660 36.6931   1
   6   6 -21 532.828 62.6589   2
   6   6 -20 413.590 54.6473   2
  -6   6  20 335.102 56.8043   5
   6  -6 -20 479.449 64.4257   1
   6   6 -19 3740.15 145.845   2
  -6   6  19 3941.59 154.850   5
   6  -6 -19 3615.21 148.445   1
   6   6 -18 785.582 68.6462   2
  -6   6  18 726.537 70.1544   5
   6  -6 -18 781.816 69.5517   1
   6   6 -17 63.0235 30.9189   2
  -6   6  17 37.3089 34.3864   5
   6  -6 -17 28.5947 28.8584   1
   6   6 -16 5208.60 157.284   2
   6  -6 -16 4979.50 113.415   2
  -6   6  16 5114.94 160.351   5
   6  -6 -16 5049.84 159.137   1
   6  -6 -15 290.876 26.7923   2
   6   6 -15 389.476 48.3469   2
  -6   6  15 287.135 43.8268   5
   6  -6 -15 277.161 41.0079   1
   6  -6 -14 8139.31 146.633   2
   6   6 -14 8587.33 196.569   2
  -6   6  14 8493.49 201.186   5
   6  -6 -14 8372.05 197.317   1
   6  -6 -13 46080.0 555.804   2
   6   6 -13 46325.0 627.026   2
  -6   6  13 46750.7 634.078   5
   6  -6 -13 45994.1 627.399   1
   6  -6 -12 286.887 23.1839   2
   6   6 -12 298.742 37.2667   2
  -6   6  12 185.808 33.1963   5
   6  -6 -12 293.548 37.7387   1
   6   6 -11 10119.1 201.121   2
   6  -6 -11 9831.00 153.994   2
  -6   6  11 10138.1 203.162   5
   6  -6 -11 9847.51 197.060   1
   6   6 -10 9990.00 193.734   2
   6  -6 -10 9574.52 148.795   2
   6  -6 -10 9967.61 190.634   1
  -6   6  10 9767.99 195.080   5
   6   6  -9 395.992 36.6438   2
   6  -6  -9 358.658 33.2573   1
  -6   6   9 423.784 39.7543   5
   6  -6  -9 353.807 23.3834   2
   6   6  -8 23888.4 342.088   2
  -6   6   8 23250.0 341.219   5
   6  -6  -8 23299.0 330.944   1
  -6   6   7 13645.2 212.352   1
   6  -6  -7 12795.7 208.519   1
   6   6  -7 13125.4 217.960   2
   6   6  -6 16847.3 248.787   2
   6  -6  -6 16464.9 237.046   1
  -6   6   6 16604.9 237.941   1
   6  -6  -6 17006.1 250.983   5
   6   6  -6 15197.9 192.284   4
  -6   6   6 16185.6 228.751   3
   6   6  -5 45955.5 552.324   2
   6  -6  -5 44699.3 535.851   1
  -6   6   5 44872.5 538.081   1
   6   6  -5 43181.0 505.951   4
   6  -6  -5 46574.5 555.809   5
  -6   6   5 44105.5 524.590   3
   6   6  -4 10505.9 171.672   2
  -6   6   4 10059.7 158.495   1
   6  -6  -4 10439.3 159.074   1
   6  -6  -4 10730.1 175.986   5
  -6  -6   4 10398.8 148.736   4
  -6   6   4 9945.76 146.615   3
   6   6  -4 9909.95 147.440   4
   6  -6  -3 7096.74 117.853   1
   6  -6  -3 7139.17 128.163   2
   6   6  -3 7059.31 129.933   2
  -6   6   3 6871.18 102.842   3
   6   6  -3 7116.30 119.151   4
  -6  -6   3 7231.70 119.766   4
   6  -6  -2 6986.68 129.327   2
   6  -6  -2 6968.14 113.040   1
  -6   6   2 7169.27 139.222   4
   6   6  -2 6981.68 123.328   4
  -6  -6   2 6978.12 123.505   4
  -6   6   2 6694.04 91.2316   3
   6  -6  -1 1759.03 60.7921   2
   6  -6  -1 1732.15 47.2278   1
  -6   6   1 1813.89 63.4502   4
   6   6  -1 1803.33 58.4964   4
  -6  -6   1 1688.50 57.4642   4
   6  -6   0 213.968 25.3882   2
  -6  -6   0 244.898 28.5530   1
  -6   6   0 247.210 27.1283   4
   6   6   0 244.923 25.0385   4
  -6  -6   0 236.582 26.3251   4
  -6  -6  -1 4845.99 109.666   1
  -6   6  -1 4768.88 110.351   4
  -6  -6  -1 4836.58 92.7656   5
  -6  -6  -1 4668.64 110.908   4
  -6  -6  -1 4705.33 116.070   3
   6   6   1 4817.51 111.906   4
  -6  -6  -2 22955.0 321.170   1
  -6   6  -2 22664.6 322.763   4
  -6  -6  -2 22322.0 292.735   5
  -6  -6  -2 22540.8 327.646   4
  -6  -6  -2 22281.6 331.615   3
  -6   6  -3 5738.17 134.668   2
  -6  -6  -3 5439.53 122.951   1
  -6   6  -3 5293.35 122.985   4
  -6  -6  -3 5418.91 105.470   5
  -6  -6  -3 5580.97 132.526   3
   6  -6   3 5465.91 77.9100   3
  -6  -6  -3 5696.92 132.805   4
  -6   6  -4 137.931 28.6602   2
  -6  -6  -4 193.450 26.5831   1
  -6   6  -4 155.763 25.0663   4
  -6  -6  -4 135.621 18.7131   5
   6  -6   4 153.992 13.6113   3
  -6  -6  -4 128.115 25.6097   3
  -6  -6  -4 183.751 30.9018   4
  -6   6  -5 1443.11 70.5405   2
   6   6   5 1347.80 50.5410   2
   6  -6   5 1463.17 52.5675   1
  -6  -6  -5 1404.86 62.7781   1
  -6   6  -5 1419.64 62.0670   4
  -6  -6  -5 1471.19 69.6193   3
  -6  -6  -5 1561.36 71.8526   4
   6  -6   5 1408.23 42.3492   3
   6   6   6 8189.84 147.764   2
  -6   6  -6 8283.47 185.050   2
   6  -6   6 8290.76 151.695   1
  -6  -6  -6 8029.80 170.773   1
  -6   6  -6 8049.19 168.901   4
   6   6   6 8279.39 156.864   5
   6  -6   6 8173.03 135.043   3
  -6  -6  -6 8123.17 181.005   3
  -6  -6  -6 8455.90 185.863   4
   6   6   7 167.930 22.4985   2
  -6   6  -7 236.736 37.5798   2
  -6  -6  -7 199.359 33.7088   1
   6   6   7 241.442 29.8509   5
   6  -6   7 205.986 22.4835   3
  -6  -6  -7 181.384 32.2839   3
  -6   6  -7 204.725 30.2458   4
   6   6   8 263.550 27.1813   2
  -6  -6  -8 266.517 34.8125   1
  -6   6  -8 367.313 43.6228   2
   6   6   8 330.283 34.5742   5
   6  -6   8 231.046 24.7915   3
  -6   6  -8 285.356 34.0073   4
  -6   6  -9 8166.49 199.860   2
  -6  -6  -9 8113.72 186.579   1
   6   6   9 8155.05 173.077   5
  -6   6  -9 8150.89 180.755   4
  -6   6 -10 3529.13 129.814   2
  -6  -6 -10 3287.65 116.813   1
   6   6  10 3492.69 110.577   5
  -6   6 -10 3370.42 112.900   4
  -6   6 -11 4121.24 145.657   2
  -6  -6 -11 4175.42 136.751   1
   6   6  11 3879.54 123.330   5
  -6   6 -11 4187.04 130.428   4
  -6   6 -12 10562.4 253.180   2
  -6  -6 -12 10605.3 240.229   1
   6   6  12 10244.0 222.006   5
  -6   6 -12 10403.6 227.021   4
  -6   6 -13 2418.67 118.067   2
  -6  -6 -13 2203.77 107.375   1
   6   6  13 2493.71 104.222   5
  -6   6 -13 2508.37 105.382   4
  -6   6 -14 3048.23 137.414   2
  -6  -6 -14 3050.49 130.938   1
   6   6  14 2920.30 118.427   5
  -6   6 -14 3085.57 121.434   4
  -6   6 -15 1425.72 98.2029   2
   6   6  15 1341.27 84.5168   5
  -6  -6 -15 1402.80 91.7984   1
  -6  -6 -16-24.4265 37.8919   1
   6   8 -20 365.119 53.4161   2
  -6   8  20 338.913 58.6181   5
   6  -8 -20 301.106 54.8155   1
   6   8 -19 2561.51 125.617   2
  -6   8  19 2540.47 128.666   5
   6  -8 -19 2719.54 130.081   1
   6   8 -18 1958.72 108.102   2
  -6   8  18 2010.39 111.092   5
   6  -8 -18 1845.93 107.642   1
   6   8 -17 3471.78 137.112   2
  -6   8  17 3751.06 145.637   5
   6  -8 -17 3856.68 144.860   1
   6   8 -16 5464.67 168.475   2
  -6   8  16 5282.33 169.716   5
   6  -8 -16 5158.99 164.526   1
   6   8 -15 40.4991 28.6066   2
  -6   8  15 99.6156 38.9391   5
   6  -8 -15 42.8828 29.3854   1
   6   8 -14 2684.08 108.875   2
   6  -8 -14 2463.52 61.8424   2
  -6   8  14 2544.39 109.654   5
   6  -8 -14 2600.60 106.746   1
   6  -8 -13 1724.18 48.3480   2
   6   8 -13 1697.88 85.0074   2
  -6   8  13 1639.17 85.9923   5
   6  -8 -13 1579.91 81.5655   1
   6  -8 -12 2379.71 56.0105   2
   6   8 -12 2409.78 96.4983   2
  -6   8  12 2396.16 99.8169   5
   6  -8 -12 2191.96 91.7499   1
   6   8 -11 26082.2 399.857   2
   6  -8 -11 26067.2 319.834   2
  -6   8  11 26029.3 404.286   5
   6  -8 -11 26312.1 396.246   1
   6   8 -10 2493.73 92.4173   2
   6  -8 -10 2287.20 53.6003   2
   6  -8 -10 2398.10 88.6391   1
  -6   8  10 2375.73 92.5875   5
   6  -8  -9 585.481 44.0802   1
   6   8  -9 494.660 42.5340   2
   6  -8  -9 586.654 27.2289   2
   6  -8  -8 23609.3 345.032   1
   6   8  -8 23704.4 351.862   2
   6   8  -7 1369.90 61.5592   2
   6  -8  -7 1231.08 56.3828   1
   6   8  -7 1129.16 26.0394   4
  -6   8   7 1177.11 51.0139   3
  -6   8   6 412.585 33.9087   1
   6  -8  -6 416.295 33.1896   1
   6  -8  -6 448.845 26.3475   2
   6   8  -6 483.445 37.1217   2
  -6   8   6 412.850 29.7895   3
   6   8  -6 415.265 19.5785   4
  -6   8   5 1896.63 65.2665   1
   6  -8  -5 1685.52 61.0663   1
   6  -8  -5 1650.98 52.0608   2
   6   8  -5 1845.43 66.6670   2
  -6   8   5 1670.91 53.7269   3
   6   8  -5 1641.09 45.4078   4
   6  -8  -4 2535.56 72.3204   1
   6  -8  -4 2543.60 68.2466   2
   6   8  -4 2567.76 76.0319   2
  -6   8   4 2404.69 60.7543   3
   6   8  -4 2503.43 62.2365   4
   6  -8  -3 16366.0 237.514   1
   6  -8  -3 15866.2 236.287   2
   6   8  -3 16719.8 244.111   2
   6   8  -3 16239.5 231.230   4
   6  -8  -2 29038.9 374.433   1
   6  -8  -2 28528.2 382.730   2
   6   8  -2 29445.8 378.974   2
   6   8  -2 29579.5 380.397   4
   6  -8  -1 292.831 27.8527   2
   6   8  -1 296.696 26.1559   2
   6  -8  -1 293.205 25.0664   1
  -6   8   1 314.502 32.1970   4
   6   8  -1 288.123 27.0197   4
  -6  -8   0 383.482 36.4602   1
  -6   8   0 445.077 36.7140   4
   6   8   0 426.640 28.5419   2
  -6  -8  -1 12174.5 214.453   1
  -6   8  -1 11948.1 208.795   4
  -6  -8  -1 11926.5 192.292   5
  -6  -8  -1 12147.8 221.409   3
  -6   8  -2 737.285 47.9592   2
  -6  -8  -2 740.417 46.9890   1
  -6  -8  -2 738.132 39.1162   5
  -6   8  -2 750.968 45.2115   4
  -6  -8  -2 826.105 53.2654   3
  -6  -8  -3 102.909 27.0076   1
  -6   8  -3 123.629 28.1460   2
  -6   8  -3 128.158 25.4406   4
  -6  -8  -3 72.3914 17.1311   5
  -6  -8  -3 84.7553 27.5146   3
  -6   8  -4 19988.9 320.204   2
  -6  -8  -4 19336.9 308.305   1
  -6  -8  -4 19075.4 283.206   5
  -6   8  -4 19341.3 300.497   4
  -6  -8  -4 19479.6 319.908   3
   6   8   5 557.772 32.2625   2
  -6   8  -5 649.885 50.1992   2
  -6  -8  -5 605.460 46.6168   1
  -6   8  -5 617.701 44.2087   4
  -6  -8  -5 591.123 49.5903   3
   6   8   6 20982.0 283.063   2
  -6   8  -6 21229.8 350.764   2
  -6  -8  -6 20367.8 334.614   1
  -6   8  -6 20223.7 320.014   4
  -6  -8  -6 20947.1 348.451   3
  -6   8  -7 4568.78 140.805   2
   6   8   7 4289.82 94.8774   2
  -6  -8  -7 4310.12 129.547   1
  -6   8  -7 4450.72 122.528   4
  -6  -8  -7 4388.54 136.432   3
   6  -8   7 4300.15 90.9733   3
  -6  -8  -8 48.9327 25.2663   1
  -6   8  -8 54.6199 31.8553   2
  -6  -8  -8 60.1134 33.3604   3
  -6   8  -8 12.2184 19.9438   4
  -6  -8  -9 1684.14 85.8243   1
  -6   8  -9 1692.39 91.2689   2
  -6   8  -9 1694.46 76.8609   4
  -6   8 -10 3590.34 136.891   2
  -6  -8 -10 3611.23 129.060   1
   6   8  10 3498.71 116.788   5
  -6   8 -10 3438.06 114.425   4
  -6  -8 -11 332.563 46.7900   1
  -6   8 -11 396.218 55.0484   2
   6   8  11 372.096 46.9146   5
  -6   8 -11 291.426 37.2279   4
  -6   8 -12 4671.19 164.913   2
  -6  -8 -12 4140.50 147.695   1
   6   8  12 4183.68 137.912   5
  -6   8 -12 4207.97 134.925   4
  -6   8 -13 1836.67 108.566   2
  -6  -8 -13 1767.74 100.027   1
   6   8  13 1866.76 95.1295   5
  -6   8 -13 1660.30 87.1774   4
  -6   8 -14 2191.61 120.409   2
   6   8  14 2035.40 104.217   5
  -6  -8 -14 1942.50 109.154   1
  -6  -8 -15 864.440 77.0265   1
   6  10 -19 3136.35 144.418   2
  -6  10  19 3507.11 155.877   5
   6 -10 -19 3032.61 143.393   1
   6  10 -18 533.931 66.1682   2
  -6  10  18 513.738 66.6815   5
   6 -10 -18 481.539 62.8460   1
   6  10 -17 537.282 62.1910   2
  -6  10  17 512.950 65.4378   5
   6 -10 -17 451.804 55.6474   1
   6  10 -16 6859.12 198.661   2
  -6  10  16 6953.84 205.156   5
   6 -10 -16 6891.87 200.254   1
   6  10 -15 2000.92 101.227   2
  -6  10  15 2146.42 109.142   5
   6 -10 -15 2019.43 102.089   1
   6  10 -14 4613.16 151.595   2
  -6  10  14 4375.82 151.864   5
   6 -10 -14 4377.29 147.898   1
   6  10 -13 986.464 68.9977   2
   6 -10 -13 867.754 64.4954   1
   6  10 -12 57.6725 31.7450   2
   6 -10 -12 25.6267 26.6540   1
   6 -10 -11 2227.88 43.0117   2
   6  10 -11 2202.89 94.1914   2
   6 -10 -11 2111.14 92.5436   1
   6  10 -10 7918.13 182.193   2
   6 -10 -10 7612.24 109.985   2
   6 -10 -10 7625.96 108.938   2
   6 -10 -10 7628.55 179.384   1
   6 -10  -9 909.875 30.5018   2
   6  10  -9 907.248 57.9272   2
   6 -10  -9 837.117 55.2671   1
   6 -10  -8 597.947 26.8254   2
   6  10  -8 673.711 48.5881   2
   6 -10  -8 687.739 48.5901   1
   6  10  -8 582.014 17.2467   4
   6 -10  -7 9064.68 180.882   1
   6  10  -7 8973.95 180.345   2
   6 -10  -7 8510.90 135.277   2
   6  10  -7 8549.37 122.887   4
   6 -10  -6 26277.5 373.656   1
   6  10  -6 27004.1 377.139   2
   6 -10  -6 25059.8 328.475   2
  -6  10   6 26151.1 355.916   3
   6  10  -6 25562.7 319.293   4
   6 -10  -5 10456.7 190.087   1
   6  10  -5 10683.6 192.110   2
   6 -10  -5 9985.62 163.518   2
   6  10  -5 10159.3 158.642   4
  -6  10   5 10298.0 172.574   3
   6 -10  -4 730.301 43.8440   1
   6  10  -4 756.832 44.1891   2
   6 -10  -4 743.531 37.6982   2
   6  10  -4 731.006 35.8684   4
   6 -10  -3 3084.96 88.6840   1
   6 -10  -3 2999.44 82.2187   2
   6  10  -3 3142.83 86.7416   2
   6  10  -3 3139.64 82.2344   4
   6 -10  -2 18707.5 280.110   1
   6  10  -2 18617.6 272.783   2
   6  10  -2 19108.4 279.029   4
   6  10  -1 37.1790 16.4906   2
   6 -10  -1 33.6198 18.5930   1
  -6 -10   1 83.8056 26.8593   1
  -6  10   1 61.5177 23.0279   4
   6  10   0 9999.83 165.824   2
  -6 -10   0 10217.1 203.699   1
  -6  10   0 10303.2 196.186   4
   6 -10   0 10158.2 134.486   3
  -6 -10   0 10240.9 207.213   3
  -6  10  -1 2255.64 83.4122   2
   6  10   1 2360.18 64.8226   2
  -6 -10  -1 2322.06 88.3100   1
  -6  10  -1 2327.44 83.4361   4
   6 -10   1 2315.38 42.4196   3
  -6 -10  -1 2285.55 89.9144   3
  -6  10  -2 1466.71 70.9642   2
  -6 -10  -2 1595.52 75.2339   1
  -6  10  -2 1585.55 68.3198   4
   6 -10   2 1621.92 32.8034   3
   6  10   2 1519.93 51.0204   2
  -6 -10  -2 1674.39 78.2814   3
  -6  10  -3 16730.2 287.305   2
  -6 -10  -3 16261.7 285.068   1
  -6  10  -3 16386.3 270.864   4
  -6 -10  -3 15909.2 289.497   3
   6  10   3 16448.3 227.791   2
  -6  10  -4 7071.49 171.742   2
  -6 -10  -4 6769.67 166.407   1
  -6  10  -4 6859.19 156.233   4
   6  10   4 6780.36 118.135   2
  -6 -10  -4 6577.83 170.503   3
  -6 -10  -5 113.568 30.6676   1
  -6  10  -5 146.453 33.5526   2
   6  10   5 141.412 18.0886   2
  -6  10  -5 168.489 28.3067   4
  -6 -10  -5 167.367 35.6700   3
  -6  10  -6 10181.8 226.680   2
  -6 -10  -6 10180.8 220.706   1
  -6  10  -6 9869.91 200.845   4
  -6 -10  -6 10249.0 228.753   3
  -6 -10  -7 487.183 50.6200   1
  -6  10  -7 496.054 53.2844   2
  -6 -10  -7 484.038 51.4166   3
  -6  10  -7 488.076 43.0560   4
  -6  10  -8 1538.72 88.5959   2
  -6 -10  -8 1313.46 78.4174   1
  -6  10  -8 1332.68 68.3035   4
  -6 -10  -8 1417.73 84.3139   3
  -6 -10  -9 4251.42 144.814   1
  -6  10  -9 4509.43 155.206   2
  -6  10  -9 4489.64 131.073   4
  -6 -10 -10 2705.34 118.817   1
  -6  10 -10 2880.96 128.438   2
  -6  10 -10 2803.83 103.775   4
  -6 -10 -11 1705.73 98.4313   1
  -6  10 -11 1823.97 105.019   2
  -6  10 -11 1669.09 81.8001   4
  -6 -10 -12 7736.60 217.420   1
  -6  10 -12 7936.19 229.546   2
  -6 -10 -13 543.022 63.5474   1
  -6  10 -13 472.671 65.2951   2
  -6 -10 -14 2688.43 132.245   1
   6 -12 -18 5.40214 37.2318   1
   6  12 -18 34.3607 41.2560   2
   6 -12 -17 3207.76 141.997   1
   6  12 -17 3180.74 144.014   2
   6 -12 -16 1361.95 91.6822   1
   6  12 -16 1367.84 92.2366   2
   6 -12 -15 5400.33 175.937   1
   6  12 -15 5364.37 177.170   2
   6 -12 -14 256.347 45.6375   1
   6  12 -14 170.705 41.0534   2
   6 -12 -13 7755.30 205.334   1
   6  12 -13 7714.61 204.127   2
   6 -12 -12 753.690 64.1071   1
   6  12 -12 805.180 64.8867   2
   6 -12 -11 6485.51 175.228   1
   6  12 -11 6451.40 175.797   2
   6 -12 -10 150.454 34.6511   1
   6  12 -10 159.479 36.0152   2
   6 -12  -9 1735.88 83.2285   1
   6  12  -9 1674.11 81.3885   2
   6 -12  -8 173.046 32.9483   1
   6 -12  -8 176.707 16.0801   2
   6  12  -8 191.659 33.2753   2
   6  12  -8 166.490 13.7939   4
   6 -12  -7 7364.02 171.423   1
   6  12  -7 7120.70 165.597   2
   6 -12  -7 6828.54 117.405   2
   6  12  -7 7026.28 116.618   4
   6 -12  -6 4202.42 120.743   1
   6  12  -6 4105.34 117.385   2
   6 -12  -6 3856.63 85.5327   2
   6  12  -6 3788.13 85.2770   4
   6 -12  -5 13292.0 238.235   1
   6  12  -5 13258.5 230.850   2
   6 -12  -5 12292.3 196.918   2
   6  12  -5 12857.5 200.456   4
   6 -12  -4 765.502 51.1655   1
   6  12  -4 788.475 47.6089   2
   6 -12  -4 740.677 39.9693   2
   6  12  -4 744.734 40.3619   4
   6 -12  -3 1478.29 67.3976   1
   6  12  -3 1425.14 60.6719   2
   6 -12  -2 7032.92 155.061   1
   6  12  -2 7040.35 142.865   2
  -6 -12   1 1308.14 72.7980   1
   6 -12  -1 1205.95 60.4762   1
   6  12  -1 1198.07 52.0048   2
   6 -12  -1 1292.76 42.3054   3
   6  12   0 1364.42 53.5373   2
  -6 -12   0 1352.34 75.7206   1
   6 -12   0 1327.13 64.4582   1
  -6  12   0 1315.82 67.8761   4
  -6 -12   0 1456.35 78.0371   3
   6 -12   0 1304.02 41.0483   3
  -6  12  -1 3771.67 115.663   2
   6  12   1 3610.53 87.1731   2
  -6 -12  -1 3765.83 124.756   1
  -6  12  -1 3767.54 114.727   4
   6 -12   1 3780.46 70.8171   3
  -6 -12  -1 3757.11 126.072   3
   6  12   2 300.209 25.3786   2
  -6 -12  -2 268.357 40.0556   1
  -6  12  -2 239.082 34.3206   2
  -6  12  -2 250.119 34.0615   4
  -6 -12  -2 305.273 43.6172   3
   6 -12   2 238.450 16.9040   3
  -6  12  -3 13574.1 260.036   2
   6  12   3 13395.7 194.317   2
  -6 -12  -3 13396.0 266.639   1
  -6  12  -3 13200.1 244.451   4
  -6 -12  -3 13338.3 267.985   3
   6 -12   3 13502.1 175.962   3
  -6  12  -4 7474.19 184.184   2
   6  12   4 7179.65 119.117   2
  -6 -12  -4 7208.21 185.055   1
  -6  12  -4 7096.98 166.403   4
  -6 -12  -4 7163.66 187.613   3
  -6 -12  -5 388.188 47.2902   1
  -6  12  -5 417.359 47.6674   2
  -6  12  -5 444.643 42.1452   4
  -6 -12  -5 375.997 47.3123   3
  -6  12  -6 4505.09 147.615   2
  -6 -12  -6 4354.19 144.553   1
  -6  12  -6 4315.84 126.276   4
  -6 -12  -6 4181.32 145.792   3
  -6  12  -7 5740.76 174.155   2
  -6 -12  -7 5457.86 168.117   1
  -6  12  -7 5820.69 150.858   4
  -6 -12  -7 5938.40 179.728   3
  -6  12  -8 1107.02 80.5080   2
  -6 -12  -8 1091.99 77.8446   1
  -6  12  -8 1120.28 65.8638   4
  -6 -12  -8 1222.40 82.0066   3
  -6  12  -9 5100.00 172.320   2
  -6 -12  -9 4594.72 160.006   1
  -6  12  -9 4562.25 135.604   4
  -6 -12  -9 4684.97 164.942   3
  -6 -12 -10 988.924 78.4216   1
  -6  12 -10 1088.01 84.7434   2
  -6  12 -10 997.500 64.3553   4
  -6 -12 -11 1922.36 108.913   1
  -6  12 -11 2090.70 117.323   2
  -6 -12 -12 2442.68 124.086   1
  -6  12 -12 2555.55 132.922   2
  -6 -12 -13 331.527 59.3493   1
   6 -14 -16 4409.01 170.557   1
   6  14 -16 4349.94 169.201   2
   6 -14 -15 163.700 47.8290   1
   6  14 -15 121.941 43.4546   2
   6 -14 -14 3961.70 152.906   1
   6  14 -14 3742.85 149.377   2
   6 -14 -13 1240.41 84.4526   1
   6  14 -13 1096.88 80.0146   2
   6 -14 -12 41.7615 35.0545   1
   6  14 -12-6.31584 29.2084   2
   6 -14 -11 453.460 51.6386   1
   6  14 -11 493.993 53.7039   2
   6 -14 -10 3883.00 138.046   1
   6  14 -10 3989.40 136.946   2
   6 -14  -9 760.054 62.7928   1
   6  14  -9 761.958 59.5889   2
   6 -14  -8 3982.69 132.327   1
   6  14  -8 3950.96 128.956   2
   6 -14  -7 1737.82 84.6549   1
   6  14  -7 1799.10 83.6371   2
   6 -14  -6 1378.75 75.2787   1
   6  14  -6 1239.41 68.5371   2
   6 -14  -5 9082.79 201.633   1
   6  14  -5 9357.14 192.954   2
   6 -14  -4 3365.42 113.652   1
   6  14  -4 3354.25 103.646   2
   6 -14  -3 1.51436 25.2633   1
   6  14  -3 68.9151 21.9386   2
   6 -14  -2 9707.48 204.521   1
  -6 -14   2 9807.86 224.746   1
   6  14  -2 9608.60 181.906   2
  -6 -14   1 1256.38 78.9251   1
   6 -14  -1 1191.63 66.7147   1
   6  14  -1 1216.90 55.8625   2
  -6 -14   1 1230.54 76.2314   3
   6 -14  -1 1240.78 47.5079   3
   6  14   0 4974.52 112.358   2
  -6 -14   0 5097.33 157.548   1
   6 -14   0 5019.77 137.424   1
  -6  14   0 5023.72 143.061   4
   6 -14   0 4900.67 98.5214   3
  -6 -14   0 4810.65 149.905   3
   6  14   1 3076.80 80.8673   2
   6 -14   1 3137.65 106.910   1
  -6 -14  -1 3154.31 122.195   1
  -6  14  -1 2985.19 107.412   4
  -6 -14  -1 3060.01 119.384   3
   6 -14   1 3044.61 70.3965   3
   6  14   2 17.6377 15.7197   2
  -6 -14  -2 8.44264 31.6712   1
  -6  14  -2 24.5885 27.2426   2
  -6  14  -2 28.0247 25.6732   4
  -6 -14  -2-7.34559 28.9587   3
  -6  14  -3 976.828 67.0289   2
  -6 -14  -3 965.189 70.6536   1
  -6  14  -3 982.905 60.9286   4
  -6 -14  -3 965.301 71.3312   3
  -6  14  -4 4314.21 142.491   2
  -6 -14  -4 4236.06 148.350   1
  -6  14  -4 4256.09 130.159   4
  -6 -14  -4 4209.68 148.814   3
  -6 -14  -5 6.56807 29.7901   1
  -6  14  -5 32.0292 30.6012   2
  -6  14  -5 6.15429 23.7800   4
  -6 -14  -5 43.6846 32.1248   3
  -6  14  -6 3998.19 144.934   2
  -6 -14  -6 4016.89 147.394   1
  -6  14  -6 3716.73 122.205   4
  -6 -14  -6 4067.28 151.399   3
  -6  14  -7 3.90934 31.7310   2
  -6 -14  -7 2.71741 33.4668   1
  -6  14  -7 5.22132 23.8193   4
  -6 -14  -7 1.93717 31.6814   3
  -6  14  -8 1250.17 88.6857   2
  -6 -14  -8 1257.46 88.3432   1
  -6  14  -8 1096.10 67.7937   4
  -6 -14  -8 1190.30 85.9927   3
  -6  14  -9 508.489 62.7373   2
  -6 -14  -9 356.963 52.9946   1
  -6 -14  -9 326.110 56.2567   3
  -6 -14 -10 706.120 71.3781   1
  -6  14 -10 916.419 81.7342   2
  -6 -14 -11 661.942 70.4571   1
   6 -16 -14 10.9578 34.7581   1
   6  16 -14 13.5977 33.7770   2
   6 -16 -13 5134.07 181.989   1
   6  16 -13 5528.42 184.605   2
   6 -16 -12 27.7145 32.7152   1
   6  16 -12 25.4479 35.1161   2
   6 -16 -11 4319.11 158.583   1
   6  16 -11 4312.91 153.619   2
   6 -16 -10 468.316 56.4226   1
   6  16 -10 470.220 55.4042   2
   6 -16  -9 859.372 70.0084   1
   6  16  -9 764.937 63.0685   2
   6 -16  -8 662.449 63.4751   1
   6  16  -8 664.369 60.3173   2
   6 -16  -7 7445.38 196.188   1
   6  16  -7 7542.96 187.269   2
   6 -16  -6 111.244 33.8002   1
   6  16  -6 105.605 31.4828   2
   6 -16  -5 7092.13 187.577   1
   6  16  -5 7208.76 173.103   2
   6 -16  -4 750.021 62.0019   1
   6  16  -4 742.512 52.9745   2
   6 -16  -3 682.595 58.2070   1
   6  16  -3 846.424 54.6680   2
   6 -16  -2 965.504 66.4867   1
  -6 -16   2 966.063 76.2876   1
   6  16  -2 907.733 52.2461   2
  -6 -16   2 1013.08 72.4279   3
  -6 -16   1 727.934 68.5149   1
   6 -16  -1 628.525 56.2042   1
   6  16  -1 642.688 43.5610   2
  -6 -16   1 669.368 62.7431   3
  -6 -16   0 876.087 73.7002   1
   6 -16   0 916.624 65.7201   1
  -6  16   0 956.961 66.5562   4
  -6 -16   0 1086.42 77.2156   3
   6 -16   1 6757.80 176.426   1
  -6 -16  -1 6960.01 200.796   1
  -6  16  -1 6673.06 176.914   4
  -6 -16  -1 6591.67 191.693   3
  -6 -16  -2 60.0482 35.3992   1
   6 -16   2 82.2034 34.4755   1
  -6  16  -2 40.7950 28.1171   4
  -6 -16  -2 43.3428 34.5054   3
  -6  16  -3 2676.72 113.151   2
  -6 -16  -3 2493.23 121.254   1
  -6  16  -3 2676.95 106.718   4
  -6 -16  -3 2778.34 124.828   3
  -6 -16  -4 94.4625 39.3198   1
  -6  16  -4 67.6950 32.0446   2
  -6  16  -4 107.753 30.4104   4
  -6 -16  -4 149.940 43.7471   3
  -6 -16  -5 771.024 71.8363   1
  -6  16  -5 709.158 66.5122   2
  -6  16  -5 708.100 57.5354   4
  -6 -16  -5 613.625 64.9992   3
  -6 -16  -6 12.9660 35.4309   1
  -6  16  -6 60.9602 35.7869   2
  -6  16  -6 9.12411 24.5000   4
  -6 -16  -6-18.1419 33.2978   3
  -6 -16  -7 1465.91 100.379   1
  -6  16  -7 1593.09 100.779   2
  -6 -16  -7 1410.38 97.7920   3
  -6 -16  -8 311.873 53.6731   1
  -6  16  -8 251.511 51.1331   2
  -6 -16  -8 300.946 56.2394   3
  -6 -16  -9 4417.60 174.585   1
  -6  16  -9 4637.22 177.358   2
   6  18 -13 32.0234 40.2351   2
   6 -18 -12 64.1847 36.8113   1
   6  18 -12 96.6554 43.0925   2
   6 -18 -11 37.2415 35.6129   1
   6  18 -11 38.4203 38.5413   2
   6 -18 -10 1599.45 101.011   1
   6  18 -10 1592.32 96.3821   2
   6 -18  -9 9.80073 33.9891   1
   6  18  -9 65.2955 38.4845   2
   6 -18  -8 10162.4 254.875   1
   6  18  -8 10357.0 241.397   2
   6 -18  -7 100.602 40.4557   1
   6  18  -7 23.8442 28.8957   2
   6 -18  -6 539.975 60.0375   1
   6  18  -6 582.044 54.4256   2
   6 -18  -5 783.318 68.1081   1
   6  18  -5 768.727 57.8505   2
   6 -18  -4 1748.48 95.6575   1
   6  18  -4 1856.83 84.5612   2
  -6 -18   3 75.2896 44.6944   1
   6 -18  -3 35.4518 32.9181   1
   6  18  -3 16.1241 22.3377   2
  -6 -18   3 106.258 39.6320   3
  -6 -18   2 4864.72 174.410   1
   6 -18  -2 4615.36 153.889   1
  -6 -18   2 4487.84 159.350   3
  -6 -18   1 320.034 56.3200   1
   6 -18  -1 276.698 46.7943   1
  -6  18   1 256.478 43.9405   4
  -6 -18   1 319.637 51.4608   3
  -6 -18   0 751.126 75.4889   1
   6 -18   0 593.512 59.6954   1
  -6  18   0 769.477 64.4171   4
  -6 -18   0 657.874 67.0223   3
   6 -18   1 53.6430 34.4121   1
  -6 -18  -1 44.1747 38.9282   1
  -6  18  -1 34.4790 30.0245   4
  -6 -18  -1 46.9148 37.5516   3
  -6 -18  -2 901.807 78.9205   1
   6 -18   2 786.499 67.1229   1
  -6  18  -2 887.772 69.5001   4
  -6 -18  -2 919.458 79.2900   3
  -6 -18  -3 2149.65 119.076   1
   6 -18   3 2159.57 105.494   1
  -6  18  -3 2170.17 101.516   4
  -6 -18  -3 1950.22 112.161   3
  -6  18  -4 4157.72 154.148   2
  -6 -18  -4 4074.30 165.107   1
  -6  18  -4 4217.99 142.068   4
  -6 -18  -4 3959.58 161.386   3
  -6 -18  -5 25.9568 35.8828   1
  -6  18  -5 73.7129 39.7423   2
  -6 -18  -5 47.2967 39.4534   3
  -6 -18  -6 3553.84 157.750   1
  -6  18  -6 4057.51 158.752   2
  -6 -18  -6 3758.51 161.955   3
  -6  18  -7 91.2022 44.7316   2
   6  20 -11 1059.51 85.2573   2
   6  20 -10 147.502 41.0369   2
   6 -20  -9 297.566 55.0808   1
   6  20  -9 343.804 53.7745   2
   6 -20  -8 17.0242 37.6893   1
   6  20  -8 52.6447 37.4807   2
   6 -20  -7 508.639 64.2958   1
   6  20  -7 534.479 59.0162   2
   6 -20  -6 6.09986 35.1797   1
   6 -20  -5 2835.09 132.213   1
  -6 -20   5 2881.75 142.794   1
  -6 -20   5 2836.58 131.509   3
   6 -20  -4 70.1174 42.3489   1
  -6 -20   4 150.555 53.7947   1
  -6 -20   4 50.9664 40.8283   3
   6 -20  -3 2730.31 127.749   1
  -6 -20   3 2972.40 145.239   1
  -6 -20   3 2706.42 129.868   3
  -6 -20   2 273.131 55.6435   1
   6 -20  -2 300.058 52.1463   1
  -6 -20   2 256.044 51.6210   3
  -6 -20   1 350.000 64.0960   1
   6 -20  -1 377.459 55.9178   1
  -6  20   1 424.705 59.2386   4
  -6 -20   1 420.770 60.3619   3
   6 -20   0 1305.03 91.3794   1
  -6 -20   0 1444.17 106.917   1
  -6  20   0 1256.31 86.2262   4
  -6 -20   0 1212.68 93.2401   3
   6 -20   1 2541.95 121.701   1
  -6  20  -1 2503.26 117.826   4
  -6 -20  -1 2484.71 128.387   3
   6 -20   2 37.3876 37.4839   1
  -6  20  -2 101.878 39.9178   4
  -6 -20  -2 17.2077 37.9550   3
   6 -20   3 2496.85 122.162   1
   6 -20   4 291.820 55.1763   1
  -6 -22   6 45.1930 43.7395   3
  -6 -22   5 1266.41 97.5603   3
  -6 -22   4 57.7433 39.7695   3
   6 -22  -3 30.5164 42.7931   1
  -6  22   2 2322.72 122.975   4
   6 -22  -2 2215.03 124.056   1
  -6  22   1 19.4347 38.3003   4
   6 -22  -1 17.4280 41.1607   1
   6 -22   0 1635.44 104.211   1
   7   1 -23 583.299 71.2151   2
   7   1 -22 859.502 73.5845   2
   7   1 -21 606.938 60.8232   2
   7  -1 -21 668.229 59.2019   2
  -7   1  21 713.154 72.1572   5
  -7  -1  21 648.524 69.4818   5
   7   1 -20 2732.69 115.068   2
   7  -1 -20 2853.05 111.988   2
  -7   1  20 2916.62 133.040   5
  -7  -1  20 2826.59 130.634   5
   7   1 -19 1915.67 92.3101   2
   7  -1 -19 2077.40 91.9353   2
  -7   1  19 2204.71 110.810   5
   7   1 -18 3144.29 116.226   2
   7  -1 -18 3302.30 112.955   2
  -7   1  18 3279.05 131.208   5
   7   1 -17 19957.2 339.488   2
   7  -1 -17 20187.9 330.084   2
  -7   1  17 20067.0 359.923   5
   7  -1 -16 1579.76 72.9159   2
   7   1 -16 1588.03 77.9913   2
  -7   1  16 1564.52 84.4750   5
   7  -1 -15 17090.8 279.762   2
   7   1 -15 16911.7 287.507   2
  -7   1  15 17167.4 304.597   5
  -7  -1  15 16602.2 248.885   4
   7  -1 -14 4546.77 117.526   2
   7   1 -14 4603.09 124.063   2
  -7   1  14 4485.98 131.546   5
  -7  -1  14 4501.26 99.0213   4
   7  -1 -13 2599.69 84.0956   2
   7   1 -13 2589.16 88.1376   2
  -7   1  13 2610.77 94.1417   5
   7   1 -12 15250.5 250.861   2
   7  -1 -12 15153.1 242.273   2
  -7   1  12 15475.9 260.254   5
   7  -1 -11 12517.2 205.671   2
   7   1 -11 12390.7 212.194   2
  -7   1  11 12439.7 217.962   5
   7   1 -10 9633.53 174.397   2
   7  -1 -10 9503.33 166.981   2
  -7   1  10 9737.05 177.238   5
   7   1  -9 6240.31 128.386   2
  -7   1   9 6248.04 127.387   1
  -7  -1   9 6404.72 129.768   1
  -7   1   9 6303.95 128.943   5
   7  -1  -9 6155.42 123.980   2
   7  -1  -8 361.411 30.2411   2
   7   1  -8 286.113 29.2351   2
  -7  -1   8 330.999 27.1459   1
  -7   1   8 368.956 27.6192   1
  -7   1   8 341.644 28.1963   5
  -7  -1   8 309.016 20.5966   4
  -7   1   7 7076.83 122.810   1
  -7  -1   7 6981.62 125.045   1
  -7  -1   7 6677.67 109.678   4
  -7   1   7 6967.01 124.602   5
   7   1  -7 6771.01 130.505   2
  -7   1   6 12475.1 176.890   1
  -7   1   6 12392.9 180.810   5
  -7   1   6 12408.7 183.607   4
  -7  -1   6 12389.8 173.036   4
  -7   1   5 32584.0 387.441   1
  -7   1   5 32587.1 391.926   5
   7   1  -5 32736.5 396.343   4
  -7   1   5 33412.9 406.323   4
  -7  -1   5 33223.3 396.892   4
  -7   1   4 30141.3 358.339   1
   7   1  -4 31529.6 382.246   4
  -7   1   4 31276.6 365.888   5
   7  -1  -4 31111.4 364.776   5
  -7  -1   4 31947.7 382.189   4
  -7   1   4 31599.7 388.979   4
  -7   1   3 2485.34 42.6511   1
   7  -1  -3 2600.56 49.3806   5
   7   1  -3 2642.23 65.2373   4
  -7   1   3 2715.24 69.6753   4
  -7  -1   3 2688.55 66.3694   4
   7  -1  -3 2605.57 67.9353   4
  -7  -1   3 2563.92 42.5266   5
   7  -1  -2 1557.65 53.6598   4
  -7  -1   2 1426.25 49.9911   4
   7  -1  -2 1495.65 32.7619   5
   7   1  -2 1533.49 52.1006   4
  -7   1   2 1441.14 51.9758   4
  -7  -1   1 34326.8 402.064   1
  -7   1   1 35968.6 445.972   4
   7   1  -1 36424.8 443.318   4
  -7  -1   1 36106.9 443.288   4
   7  -1  -1 35393.2 443.845   4
  -7  -1   0 3380.46 61.1401   1
   7   1   0 3537.02 87.7716   4
  -7   1   0 3564.00 88.9709   4
   7  -1   0 3621.76 88.9782   4
  -7   1   0 3409.79 67.2975   3
  -7  -1   0 3466.27 86.9576   4
  -7  -1  -1 62.0322 11.1262   1
   7  -1   1 60.5762 9.02422   1
  -7   1  -1 49.7539 7.65989   1
   7   1   1 122.374 14.0566   1
   7   1   1 43.5114 16.0927   4
   7   1   1 55.8745 8.24567   5
   7  -1   1 82.8315 21.0334   4
  -7  -1  -1 43.9633 20.1160   4
  -7   1  -1 71.7523 20.1552   4
  -7   1  -1 69.3401 13.3827   3
   7  -1   2 29936.3 392.041   2
   7  -1   2 28661.4 337.529   1
  -7   1  -2 28676.5 336.972   1
   7   1   2 28898.4 350.458   1
  -7  -1  -2 29115.1 349.216   1
   7   1   2 28006.6 333.835   5
  -7   1  -2 29038.8 391.167   4
  -7  -1  -2 29208.9 370.889   3
  -7  -1  -2 29369.2 392.737   4
  -7   1  -2 28777.9 355.382   3
   7   1   3 1708.26 62.5997   2
  -7  -1  -3 1668.51 48.7612   1
   7  -1   3 1683.54 45.1464   1
  -7   1  -3 1621.94 43.9650   1
   7   1   3 1599.37 48.8113   1
   7   1   3 1705.87 43.8678   5
  -7  -1  -3 1718.94 58.4007   3
  -7   1  -3 1756.23 66.9375   4
  -7   1  -3 1648.96 50.8734   3
  -7  -1  -3 1629.54 65.9134   4
   7   1   4 12099.4 184.553   1
   7  -1   4 12024.9 176.769   1
  -7  -1  -4 12269.4 183.930   1
  -7   1  -4 11918.9 175.912   1
  -7   1  -4 11997.2 212.307   4
   7  -1   4 12296.1 189.089   3
  -7  -1  -4 12168.9 197.915   3
  -7  -1  -4 12173.2 216.383   4
  -7  -1  -5 8287.42 146.857   1
   7   1   5 8172.01 146.869   1
   7  -1   5 8334.87 142.162   1
  -7  -1  -5 8417.26 175.060   4
  -7   1  -5 8294.69 171.310   4
   7  -1   5 8457.64 151.770   3
  -7  -1  -6 5617.66 119.214   1
   7   1   6 5519.51 119.275   1
   7  -1   6 5540.77 115.176   1
   7  -1   6 5648.36 122.837   3
  -7  -1  -6 5383.80 139.362   4
  -7   1  -6 5606.96 139.875   4
  -7  -1  -7 1938.03 69.2368   1
   7  -1   7 2018.23 68.7223   1
   7   1   7 1924.89 65.7187   5
  -7   1  -7 1911.50 80.9712   4
  -7  -1  -7 1848.05 81.6785   4
  -7  -1  -8 20104.2 306.155   1
   7   1   8 20199.9 299.531   5
  -7   1  -8 19940.1 331.878   4
  -7  -1  -8 20465.8 338.579   4
  -7  -1  -9 477.874 40.6716   1
   7   1   9 486.291 39.9412   5
  -7   1  -9 557.193 51.6686   4
  -7  -1  -9 526.826 50.4943   4
  -7  -1 -10 845.953 54.6436   1
   7   1  10 818.028 51.9032   5
  -7   1 -10 877.798 64.0104   4
  -7  -1 -10 834.282 61.7309   4
  -7  -1 -11 11852.1 235.125   1
   7   1  11 12219.1 232.014   5
  -7   1 -11 12050.6 255.361   4
  -7  -1 -11 11975.2 258.793   4
   7   1  12 1269.59 70.7561   5
  -7   1 -12 1302.70 79.9978   4
  -7  -1 -12 1256.84 81.0142   4
   7   1  13 3717.64 125.670   5
  -7   1 -13 3538.16 135.113   4
  -7  -1 -13 3757.45 141.950   4
   7  -1  14 1677.63 88.0717   5
   7   1  14 1502.84 83.4793   5
  -7   1 -14 1574.06 94.7845   4
  -7  -1 -14 1621.12 96.6632   4
   7   1  15 467.958 52.0653   5
   7  -1  15 419.449 51.0140   5
  -7   1 -15 496.281 60.7950   4
   7   3 -23 3719.21 153.808   2
   7   3 -22-1.20952 33.9301   2
   7   3 -21 939.965 75.3612   2
  -7   3  21 968.557 82.5411   5
   7   3 -20 2103.04 105.367   2
   7  -3 -20 2308.92 94.5476   2
  -7   3  20 2438.78 123.566   5
   7   3 -19 224.369 42.2542   2
   7  -3 -19 238.357 34.1076   2
  -7   3  19 151.714 44.5285   5
   7   3 -18 160.510 38.4687   2
   7  -3 -18 100.657 25.8887   2
  -7   3  18 116.124 80.8349   5
   7   3 -17 16706.4 310.927   2
   7  -3 -17 16862.1 281.912   2
  -7   3  17 17169.9 326.768   5
   7  -3 -16 730.920 48.1127   2
   7   3 -16 795.368 58.2681   2
   7  -3 -16 912.133 65.9359   1
  -7   3  16 764.915 63.6950   5
   7  -3 -15 18809.4 290.257   2
   7   3 -15 18831.4 318.843   2
   7  -3 -15 19560.1 332.331   1
  -7   3  15 19156.2 331.713   5
  -7  -3  15 18150.5 248.910   4
   7  -3 -14 8971.18 169.074   2
   7   3 -14 8978.39 190.844   2
   7  -3 -14 8616.82 192.038   1
  -7   3  14 8938.22 198.793   5
  -7  -3  14 8640.79 135.132   4
   7  -3 -13 6538.36 135.458   2
   7   3 -13 6409.26 152.624   2
   7  -3 -13 6501.98 156.061   1
  -7   3  13 6581.55 159.477   5
  -7  -3  13 6387.91 104.369   4
   7   3 -12 11236.9 211.611   2
   7  -3 -12 11323.3 189.047   2
   7  -3 -12 11549.5 212.755   1
  -7   3  12 11335.3 216.197   5
  -7  -3  12 11165.9 154.391   4
   7  -3 -11 7977.08 147.669   2
   7   3 -11 8233.74 168.345   2
  -7   3  11 8315.72 171.287   5
   7  -3 -11 8416.99 168.461   1
   7  -3 -10 1546.39 54.6941   2
   7   3 -10 1737.96 67.9585   2
   7  -3 -10 1696.67 64.3512   1
  -7  -3  10 1630.27 37.5145   4
  -7   3  10 1551.88 64.6884   5
   7   3  -9 15913.0 249.096   2
   7  -3  -9 15678.6 240.557   1
  -7   3   9 16817.3 245.713   1
  -7  -3   9 15522.1 194.053   4
  -7   3   9 15482.1 245.436   5
   7  -3  -9 15605.2 228.083   2
   7   3  -8 14981.9 234.051   2
   7  -3  -8 14730.1 222.153   1
  -7   3   8 15161.3 224.748   1
  -7  -3   8 14878.7 186.184   4
  -7   3   8 14808.0 229.081   5
   7  -3  -7 44712.8 537.035   1
  -7   3   7 44874.2 538.446   1
   7  -3  -7 45868.0 548.521   5
  -7   3   7 45213.6 549.079   5
  -7  -3   7 44765.1 508.068   4
   7   3  -7 43961.4 555.442   2
  -7   3   6 36378.9 434.866   1
   7  -3  -6 36344.1 433.817   1
  -7   3   6 36146.0 446.327   5
  -7  -3   6 36053.9 418.705   4
   7   3  -6 35017.5 418.203   4
   7  -3  -6 36903.8 447.265   5
   7   3  -6 36356.8 457.831   2
  -7   3   5 5439.53 93.5146   1
   7  -3  -5 5607.47 93.6628   1
   7   3  -5 5363.56 92.6503   4
  -7  -3   5 5639.31 94.3821   4
  -7   3   5 5523.21 104.107   5
   7  -3  -5 5688.85 104.791   5
  -7   3   4 2979.15 55.5558   1
   7  -3  -4 2827.96 54.1715   1
   7  -3  -4 2864.54 65.4057   5
   7   3  -4 2766.14 63.6768   4
  -7   3   4 2785.02 75.1475   4
  -7  -3   4 2819.46 64.0884   4
  -7   3   3 32160.1 370.688   1
   7   3  -3 32645.4 403.856   4
  -7   3   3 34805.3 423.525   4
   7  -3  -3 33622.4 395.773   5
  -7  -3   3 33258.4 404.363   4
  -7   3   2 762.195 40.6298   4
   7  -3  -2 852.791 41.7030   4
   7   3  -2 757.489 35.6999   4
  -7  -3   2 749.069 36.4308   4
  -7  -3   1 448.028 25.9756   1
  -7   3   1 436.279 32.5072   4
   7   3  -1 440.977 29.5082   4
  -7  -3   1 429.478 13.7849   5
   7  -3  -1 478.904 32.3282   4
  -7  -3   1 482.874 31.0020   4
   7  -3   0 4169.08 100.214   2
  -7  -3   0 4077.89 82.3002   1
   7  -3   0 4239.31 100.181   4
  -7   3   0 4166.42 99.3416   4
   7   3   0 4108.00 96.7561   4
  -7   3   0 4002.95 61.2078   3
  -7  -3   0 4151.89 97.5732   4
   7  -3   1 2444.35 76.1943   2
  -7  -3  -1 2340.18 60.7454   1
   7  -3   1 2214.13 39.9669   1
   7  -3   1 2421.31 74.3761   4
   7   3   1 2214.99 72.7002   4
  -7   3  -1 2420.49 75.1390   4
  -7  -3  -1 2377.49 74.5213   4
  -7  -3  -1 2351.89 70.8181   3
   7  -3   2 19942.5 243.723   1
  -7  -3  -2 20341.5 272.972   1
   7   3   2 20150.9 273.550   1
   7   3   2 20385.0 247.767   5
  -7   3  -2 20643.5 298.883   4
  -7  -3  -2 20287.4 300.653   4
  -7  -3  -2 20461.0 292.467   3
   7  -3   3 15339.7 202.018   1
  -7  -3  -3 15575.2 225.710   1
   7   3   3 15601.1 228.275   1
  -7   3  -3 15751.7 248.747   4
   7   3   3 15194.9 203.727   5
   7  -3   3 15303.4 204.897   3
  -7  -3  -3 15484.4 243.202   3
  -7  -3  -3 15779.7 253.909   4
   7   3   4 2223.74 72.4774   2
   7  -3   4 2213.62 56.6798   1
   7   3   4 2200.37 68.2156   1
  -7  -3  -4 2295.56 68.8257   1
  -7   3  -4 2319.59 80.2802   4
   7   3   4 2389.41 60.0567   5
  -7  -3  -4 2221.09 82.1353   4
   7  -3   4 2256.81 58.7388   3
  -7  -3  -4 2273.24 77.1450   3
   7   3   5 26432.5 365.459   1
   7  -3   5 27080.7 345.726   1
  -7  -3  -5 27992.7 368.243   1
   7   3   5 26681.3 345.280   5
   7  -3   5 26576.3 346.470   3
  -7  -3  -5 27159.8 397.638   4
  -7   3  -5 26546.4 387.455   4
  -7  -3  -5 26822.1 382.572   3
  -7  -3  -6 4275.07 107.558   1
   7  -3   6 4356.57 97.8298   1
   7   3   6 4420.11 99.1871   5
  -7  -3  -6 4442.72 118.139   3
  -7  -3  -6 4214.88 124.278   4
   7  -3   6 4318.26 98.1587   3
  -7   3  -6 4262.42 118.877   4
  -7  -3  -7 6957.34 149.554   1
   7  -3   7 6746.42 136.678   1
   7   3   7 6952.23 137.929   5
   7  -3   7 6853.67 137.425   3
  -7  -3  -7 6982.92 169.325   4
  -7   3  -7 6971.20 161.944   4
  -7  -3  -8 2069.73 78.8020   1
   7   3   8 2071.93 72.9054   5
  -7  -3  -8 2089.57 91.6467   4
  -7   3  -8 2114.49 86.8698   4
  -7  -3  -9 3877.49 115.137   1
   7   3   9 3893.37 108.008   5
  -7   3  -9 3811.92 123.057   4
  -7  -3  -9 3796.79 129.669   4
  -7  -3 -10 876.740 58.5786   1
   7   3  10 1067.98 59.9191   5
  -7  -3 -10 997.298 70.5746   4
  -7   3 -10 891.515 62.7013   4
  -7  -3 -11 18535.7 322.210   1
   7   3  11 19037.5 312.689   5
  -7   3 -11 18440.3 334.019   4
  -7  -3 -11 18321.0 346.224   4
  -7  -3 -12 3840.10 128.866   1
   7   3  12 3903.40 123.999   5
  -7   3 -12 3610.11 131.377   4
  -7  -3 -12 3780.75 141.180   4
  -7  -3 -13 9162.16 218.800   1
   7   3  13 9362.08 210.997   5
  -7   3 -13 8623.80 219.572   4
  -7  -3 -14 1218.30 79.5890   1
   7   3  14 1127.29 72.7643   5
  -7   3 -14 1034.79 76.5272   4
  -7   3 -15 1058.28 82.1864   4
  -7   3 -16 635.803 64.9115   4
   7   5 -22 635.723 70.8893   2
   7   5 -21 8.69691 34.7287   2
  -7   5  21 49.1063 40.3002   5
   7   5 -20 2152.30 112.782   2
  -7   5  20 2252.67 119.605   5
   7  -5 -20 2421.36 123.336   1
   7   5 -19 307.408 50.6030   2
  -7   5  19 226.506 47.1471   5
   7  -5 -19 300.228 50.7424   1
   7  -5 -18 4359.70 117.000   2
   7   5 -18 4066.97 144.199   2
  -7   5  18 4276.44 153.881   5
   7  -5 -18 4283.18 151.328   1
   7  -5 -17 72.1043 22.4466   2
   7   5 -17 94.2381 34.6109   2
  -7   5  17 72.6798 37.8980   5
   7  -5 -17 124.364 36.6189   1
   7   5 -16 5306.16 155.829   2
   7  -5 -16 5540.48 126.528   2
  -7   5  16 5491.29 164.007   5
   7  -5 -16 5408.00 159.701   1
   7  -5 -15 2924.83 85.1353   2
   7   5 -15 2844.65 108.166   2
  -7   5  15 2832.38 111.542   5
   7  -5 -15 2830.25 109.835   1
   7  -5 -14 14929.1 230.182   2
   7   5 -14 14574.2 272.218   2
  -7   5  14 14349.4 275.417   5
   7  -5 -14 14784.5 274.437   1
   7  -5 -13 118.594 19.8621   2
   7   5 -13 186.965 33.2819   2
  -7   5  13 119.480 31.0240   5
   7  -5 -13 92.6805 26.8532   1
   7   5 -12 21617.8 339.278   2
   7  -5 -12 21218.2 294.095   2
  -7   5  12 21860.8 343.776   5
   7  -5 -12 21092.3 334.950   1
   7  -5 -11 56.7236 14.9655   2
   7   5 -11 31.8878 21.1810   2
   7  -5 -11 111.604 25.1816   1
  -7   5  11 12.9528 22.6975   5
   7   5 -10 7572.01 162.266   2
   7  -5 -10 7773.51 157.619   1
  -7   5  10 7874.81 164.864   5
   7  -5 -10 7677.16 134.543   2
   7   5  -9 2012.21 74.2858   2
   7  -5  -9 1967.32 69.0504   1
  -7   5   9 1998.64 73.7600   5
   7   5  -8 41.5011 18.5719   2
   7  -5  -8 70.8872 19.6687   1
  -7   5   8 65.7986 17.3503   1
  -7   5   8 112.164 27.7023   5
  -7  -5   8 74.5798 6.93943   4
   7   5  -7 7728.25 149.586   2
   7  -5  -7 7487.83 135.805   1
  -7   5   7 7620.44 137.317   1
   7   5  -7 7109.90 101.225   4
  -7   5   7 7744.84 147.780   5
   7  -5  -7 7715.24 147.574   5
  -7  -5   7 7581.72 102.590   4
   7   5  -6 229542. 2477.35   2
  -7   5   6 229536. 2454.48   1
   7  -5  -6 224577. 2450.65   1
   7   5  -6 217253. 2421.31   4
   7  -5  -6 233267. 2473.21   5
  -7  -5   6 227446. 2422.62   4
   7   5  -5 46.6742 22.0510   2
  -7   5   5 35.8581 13.9749   1
   7  -5  -5 140.883 17.5521   1
   7  -5  -5 22.9634 17.4565   5
   7   5  -5 61.5560 11.9287   4
  -7  -5   5 66.2516 14.0720   4
   7  -5  -4 11992.2 167.083   1
  -7   5   4 11576.4 167.506   1
   7   5  -4 11636.9 170.239   4
   7  -5  -4 12311.9 187.783   5
  -7  -5   4 12135.6 172.910   4
   7  -5  -3 3905.12 70.3960   1
   7   5  -3 3830.03 83.6597   4
  -7   5   3 3854.35 97.1647   4
  -7  -5   3 3826.96 83.5336   4
   7  -5  -2 8039.59 146.516   2
   7  -5  -2 7786.09 112.348   1
  -7   5   2 7981.99 150.224   4
  -7  -5   2 7903.57 139.152   4
   7   5  -2 8017.52 139.679   4
   7  -5  -1 9112.42 164.771   2
  -7  -5   1 9085.86 155.578   1
   7  -5  -1 9108.54 124.062   1
  -7   5   1 9233.35 168.495   4
   7   5  -1 9204.40 159.539   4
  -7  -5   1 9098.75 159.427   4
  -7   5   0 60296.1 724.903   4
  -7  -5   0 59593.3 673.589   5
  -7  -5   0 59890.2 719.869   4
   7   5   0 60329.9 720.650   4
  -7  -5  -1 745.575 40.4070   1
  -7   5  -1 714.413 43.9776   4
  -7  -5  -1 746.428 28.9072   5
  -7  -5  -1 712.406 43.4284   4
  -7  -5  -1 753.657 45.8808   3
  -7  -5  -2 234.083 25.9437   1
  -7   5  -2 262.648 30.6117   4
  -7  -5  -2 236.836 18.9146   5
  -7  -5  -2 278.824 31.6451   3
  -7  -5  -2 221.986 28.1379   4
  -7  -5  -3 2563.44 77.8728   1
   7   5   3 2554.92 78.6939   1
   7  -5   3 2541.46 59.8018   1
  -7   5  -3 2582.56 84.0717   4
  -7  -5  -3 2576.88 85.6980   3
   7  -5   3 2666.04 50.0858   3
  -7  -5  -3 2729.41 90.1987   4
   7   5   4 16983.6 254.323   2
   7  -5   4 17007.1 234.100   1
  -7  -5  -4 17258.5 265.031   1
  -7   5  -4 17169.6 273.838   4
   7  -5   4 17128.7 220.398   3
  -7  -5  -4 17394.5 285.947   4
  -7  -5  -4 17250.4 280.666   3
   7   5   5 119.980 20.6629   2
  -7  -5  -5 118.255 23.0169   1
   7  -5   5 131.441 18.7667   1
   7   5   5 141.726 19.2943   5
   7  -5   5 146.616 16.7837   3
  -7  -5  -5 176.428 30.9856   4
  -7  -5  -5 150.923 28.3024   3
  -7   5  -5 120.133 27.0056   4
  -7  -5  -6 382.975 35.5913   1
   7  -5   6 413.583 30.3413   1
   7   5   6 402.436 31.7283   5
  -7  -5  -6 346.864 37.8039   3
   7  -5   6 388.935 26.5343   3
  -7  -5  -6 399.759 41.6126   4
  -7   5  -6 386.015 37.5071   4
  -7   5  -7 1541.80 78.9615   2
   7  -5   7 1341.18 55.3069   1
  -7  -5  -7 1413.54 67.2061   1
   7   5   7 1380.86 58.6698   5
   7  -5   7 1338.88 51.5870   3
  -7  -5  -7 1379.84 74.9061   4
  -7  -5  -7 1358.25 70.3228   3
  -7   5  -7 1341.54 68.4205   4
  -7   5  -8 12752.0 258.668   2
  -7  -5  -8 13115.8 241.537   1
   7   5   8 13048.6 223.477   5
   7  -5   8 13157.0 213.305   3
  -7  -5  -8 13223.3 263.298   4
  -7   5  -8 12591.7 243.599   4
  -7  -5  -9 303.007 37.1429   1
  -7   5  -9 343.140 47.2183   2
   7   5   9 306.347 34.0779   5
  -7  -5  -9 266.741 42.0218   4
  -7   5  -9 282.347 38.3525   4
  -7   5 -10 11321.0 252.002   2
  -7  -5 -10 11654.6 236.366   1
   7   5  10 11453.8 219.929   5
  -7   5 -10 11267.4 236.093   4
  -7  -5 -11 163.070 36.0567   1
   7   5  11 101.525 26.9233   5
  -7   5 -11 111.961 31.9322   4
  -7  -5 -12 1861.81 93.4360   1
   7   5  12 1864.32 85.6929   5
  -7   5 -12 1890.61 94.0226   4
  -7  -5 -13 725.184 63.4924   1
   7   5  13 680.335 56.0998   5
  -7   5 -13 637.829 58.6487   4
  -7  -5 -14 1765.77 98.5458   1
   7   5  14 1865.66 93.5247   5
  -7   5 -14 1993.20 100.789   4
  -7  -5 -15 64.6329 32.2197   1
  -7   5 -15 235.796 46.1061   4
  -7  -5 -16 5850.43 194.029   1
   7   7 -21 2095.83 119.177   2
   7   7 -20 2281.93 118.929   2
  -7   7  20 2384.17 126.237   5
   7  -7 -20 2255.24 118.647   1
   7   7 -19 196.308 47.2229   2
  -7   7  19 78.6066 40.0632   5
   7  -7 -19 95.6349 38.5648   1
   7   7 -18 1096.43 79.8410   2
  -7   7  18 1282.51 90.1158   5
   7  -7 -18 1116.03 83.0671   1
   7   7 -17 9555.80 231.679   2
  -7   7  17 8987.38 231.557   5
   7  -7 -17 9061.39 228.173   1
   7   7 -16 1114.74 76.2986   2
  -7   7  16 1333.27 83.9278   5
   7  -7 -16 1072.70 72.6212   1
   7  -7 -15 6627.65 128.046   2
   7   7 -15 6983.24 182.311   2
  -7   7  15 6503.70 181.192   5
   7  -7 -15 6745.20 179.986   1
   7  -7 -14 8653.82 147.943   2
   7   7 -14 8393.87 199.652   2
  -7   7  14 8267.88 201.166   5
   7  -7 -14 8343.55 197.575   1
   7  -7 -13 14593.6 212.334   2
   7   7 -13 14388.0 272.348   2
  -7   7  13 14130.2 273.990   5
   7  -7 -13 14458.1 269.314   1
   7   7 -12 300.412 38.7193   2
   7  -7 -12 359.302 25.3562   2
  -7   7  12 296.378 40.8085   5
   7  -7 -12 329.197 38.7684   1
   7   7 -11 9576.35 200.735   2
   7  -7 -11 9688.23 153.763   2
  -7   7  11 10163.8 206.535   5
   7  -7 -11 10029.2 198.804   1
   7   7 -10 11.3976 22.2876   2
   7  -7 -10 47.1450 15.1660   2
  -7   7  10 61.7342 29.2726   5
   7  -7 -10 35.9277 21.0817   1
   7   7  -9 28573.7 406.778   2
   7  -7  -9 27914.1 393.478   1
  -7   7   9 28080.1 406.712   5
   7  -7  -8 3073.82 88.2541   1
   7   7  -8 3051.61 94.3708   2
  -7   7   8 2984.73 84.4390   3
   7   7  -7 27588.6 374.115   2
   7  -7  -7 26778.8 357.754   1
  -7   7   7 27585.5 360.892   1
   7   7  -7 24937.7 300.759   4
  -7   7   7 26246.8 347.594   3
   7  -7  -6 24.2753 16.5005   1
  -7   7   6 26.7252 16.6908   1
   7   7  -6 5.46871 19.4168   2
  -7   7   6 27.6123 12.3698   3
   7   7  -6 26.9808 9.83187   4
   7   7  -5 363.420 33.0062   2
   7  -7  -5 323.354 26.8370   1
  -7   7   5 327.156 26.9931   1
   7   7  -5 303.892 20.5815   4
  -7   7   5 305.826 21.7086   3
   7  -7  -4 1748.41 59.9444   2
   7   7  -4 1878.64 65.1108   2
   7  -7  -4 1744.57 54.3075   1
   7  -7  -4 1873.80 67.1256   5
  -7   7   4 1652.92 44.7676   3
  -7  -7   4 1739.93 52.3612   4
   7   7  -4 1702.78 51.7849   4
   7  -7  -3 16272.7 242.027   2
   7  -7  -3 15972.3 222.302   1
  -7   7   3 16037.4 254.513   4
   7   7  -3 16626.2 242.507   2
  -7  -7   3 16401.7 231.475   4
   7   7  -3 15938.5 229.844   4
  -7   7   3 15504.0 198.512   3
   7  -7  -2 1143.49 51.0545   2
   7  -7  -2 1205.71 41.8729   1
  -7   7   2 1230.90 57.6074   4
   7   7  -2 1140.15 47.4081   4
  -7  -7   2 1123.64 48.2016   4
   7   7  -2 1236.67 50.7734   2
   7  -7  -1 21404.2 279.205   1
  -7  -7   1 21673.1 315.032   1
  -7   7   1 21993.7 319.964   4
  -7  -7   1 21820.4 308.227   4
   7   7  -1 21965.4 308.426   4
  -7  -7   0 182.780 28.0254   1
  -7  -7   0 168.837 20.8234   5
  -7   7   0 179.971 26.9070   4
  -7  -7   0 172.183 26.2340   4
  -7  -7  -1 46.7195 20.4853   1
  -7  -7  -1 24.8029 12.9736   5
  -7   7  -1 6.05249 18.1654   4
  -7  -7  -1 12.6027 20.9213   3
  -7  -7  -1 26.6122 18.4831   4
  -7  -7  -2 3146.52 93.4604   1
  -7   7  -2 3272.49 96.7722   4
  -7  -7  -2 3131.95 76.4543   5
  -7  -7  -2 3124.66 100.395   3
  -7  -7  -2 3141.37 97.6841   4
  -7  -7  -3 350.741 35.2236   1
  -7  -7  -3 364.725 27.8977   5
  -7   7  -3 369.282 36.0052   4
  -7  -7  -3 356.311 37.5248   4
  -7  -7  -3 396.520 41.0395   3
  -7  -7  -4 519.286 40.6390   1
  -7  -7  -4 459.714 31.0395   5
  -7   7  -4 508.098 40.8682   4
   7  -7   4 546.620 20.0060   3
  -7  -7  -4 570.543 45.7839   4
  -7  -7  -4 471.096 43.9372   3
  -7   7  -5 23573.1 369.551   2
   7   7   5 22131.0 313.540   2
   7  -7   5 22483.3 312.227   1
  -7  -7  -5 22663.0 347.784   1
  -7   7  -5 22837.9 348.393   4
   7  -7   5 22865.0 281.051   3
  -7  -7  -5 23014.2 365.262   3
  -7  -7  -5 23452.0 366.994   4
   7   7   6 5146.68 115.313   2
  -7   7  -6 5634.94 154.907   2
   7  -7   6 5370.89 118.358   1
  -7  -7  -6 5505.50 141.803   1
  -7   7  -6 5725.72 142.421   4
   7  -7   6 5686.07 101.266   3
  -7  -7  -6 5735.88 154.194   3
  -7  -7  -7 314.738 38.1382   1
  -7   7  -7 245.805 40.0050   2
   7   7   7 241.825 26.5143   2
  -7   7  -7 227.790 34.3917   4
  -7  -7  -7 396.848 45.8614   3
   7  -7   7 269.273 22.6629   3
  -7  -7  -8 510.123 47.8027   1
  -7   7  -8 659.036 58.7656   2
   7   7   8 659.542 48.1882   5
  -7   7  -8 558.360 47.9515   4
  -7   7  -9 834.850 66.8519   2
  -7  -7  -9 861.128 60.3187   1
   7   7   9 878.274 57.4159   5
  -7   7  -9 837.118 57.4666   4
  -7   7 -10 6669.66 191.903   2
  -7  -7 -10 6508.15 175.403   1
   7   7  10 6458.95 159.963   5
  -7   7 -10 6569.26 170.124   4
  -7   7 -11 5597.71 178.986   2
  -7  -7 -11 5158.55 159.247   1
   7   7  11 5423.54 149.102   5
  -7   7 -11 5100.41 153.344   4
  -7  -7 -12 171.553 41.4496   1
  -7   7 -12 172.688 44.9605   2
   7   7  12 169.816 40.2898   5
  -7   7 -12 88.0542 31.0147   4
  -7   7 -13 4113.43 160.892   2
  -7  -7 -13 3618.84 142.206   1
   7   7  13 4034.89 137.660   5
  -7   7 -13 4019.31 141.044   4
  -7  -7 -14 201.165 45.5903   1
  -7  -7 -15 150.729 43.7509   1
   7   9 -20 2886.42 138.708   2
   7  -9 -20 2747.09 135.566   1
   7   9 -19 330.532 62.9032   2
  -7   9  19 372.142 63.0861   5
   7  -9 -19 382.328 54.8376   1
   7   9 -18 3358.23 140.329   2
  -7   9  18 3237.23 142.984   5
   7  -9 -18 3434.29 143.301   1
   7   9 -17 306.730 50.4249   2
  -7   9  17 343.136 58.1095   5
   7  -9 -17 302.064 48.0870   1
   7   9 -16 1016.21 75.4323   2
  -7   9  16 994.753 77.3102   5
   7  -9 -16 1057.23 77.3749   1
   7   9 -15 587.982 57.6274   2
  -7   9  15 523.997 60.8485   5
   7  -9 -15 594.376 58.5161   1
   7   9 -14 16460.2 313.543   2
  -7   9  14 16322.9 317.067   5
   7  -9 -14 16731.4 312.117   1
   7  -9 -13 1499.94 44.3083   2
   7   9 -13 1450.91 80.6307   2
  -7   9  13 1587.25 87.0202   5
   7  -9 -13 1388.93 77.0794   1
   7  -9 -12 17468.6 305.693   1
   7   9 -12 17523.4 311.601   2
   7  -9 -12 17255.7 229.021   2
   7  -9 -11 4370.11 128.381   1
   7   9 -11 4485.91 134.221   2
   7  -9 -11 4429.24 84.4637   2
   7  -9 -10 3672.50 113.629   1
   7   9 -10 3659.64 116.672   2
   7  -9 -10 3845.14 78.2110   2
   7   9  -9 469.276 42.5234   2
   7  -9  -9 583.313 44.1540   1
   7   9  -8 1327.39 65.8602   2
   7  -9  -8 1250.54 59.8281   1
   7   9  -8 1154.20 24.9417   4
   7   9  -7 3998.89 111.294   2
   7  -9  -7 3539.31 82.2198   2
   7  -9  -7 3869.58 103.912   1
   7   9  -7 3495.04 65.5196   4
  -7   9   7 3743.12 95.1595   3
   7  -9  -6 7741.56 152.167   1
   7  -9  -6 7452.84 134.554   2
   7   9  -6 7932.59 160.810   2
  -7   9   6 7335.56 137.011   3
   7   9  -6 7389.77 119.666   4
   7  -9  -5 5539.85 120.507   1
   7  -9  -5 5529.67 113.681   2
   7   9  -5 5698.43 129.010   2
  -7   9   5 5353.65 106.246   3
   7   9  -5 5354.71 102.537   4
   7  -9  -4 31344.4 403.206   1
   7  -9  -4 30136.5 398.650   2
   7   9  -4 31106.6 412.979   2
  -7   9   4 29861.7 373.654   3
   7   9  -4 30351.9 388.116   4
   7  -9  -3 83.4447 19.0257   1
   7   9  -3 46.9278 20.6767   2
   7  -9  -3 86.1341 19.6041   2
   7   9  -3 83.3600 17.6465   4
   7   9  -2 9370.77 166.785   2
   7  -9  -2 9678.33 163.713   1
  -7   9   2 9609.00 188.134   4
   7   9  -2 9433.06 170.378   4
  -7  -9   1 1707.83 73.3811   1
   7  -9  -1 1628.23 57.2189   1
  -7   9   1 1587.67 68.6790   4
   7   9  -1 1623.81 58.8417   2
  -7  -9   0 9242.43 188.233   1
   7  -9   0 9267.84 159.451   1
  -7   9   0 9549.36 187.760   4
   7   9   0 9427.74 161.166   2
  -7  -9   0 9096.44 193.685   3
  -7  -9  -1 121.762 27.5876   1
  -7  -9  -1 166.966 22.9137   5
  -7   9  -1 134.053 24.6090   4
  -7  -9  -1 104.053 27.2987   3
  -7  -9  -2 26584.8 394.262   1
  -7  -9  -2 26549.0 362.223   5
  -7   9  -2 26709.4 388.803   4
  -7  -9  -2 26219.9 404.972   3
  -7  -9  -3 997.710 59.1015   1
  -7  -9  -3 933.867 47.0228   5
  -7   9  -3 916.365 54.9321   4
  -7  -9  -3 882.906 58.6835   3
  -7   9  -4 7729.58 180.741   2
  -7  -9  -4 7296.81 169.230   1
  -7   9  -4 7254.05 163.472   4
   7  -9   4 6967.58 89.4496   3
  -7  -9  -4 7438.11 179.787   3
   7   9   5 408.299 29.3567   2
  -7   9  -5 402.602 45.2274   2
  -7  -9  -5 419.902 43.8727   1
  -7   9  -5 501.235 43.4949   4
   7  -9   5 469.626 19.7562   3
  -7  -9  -5 406.156 44.0179   3
  -7   9  -6 1.54158 29.7870   2
  -7  -9  -6 37.5678 25.5222   1
  -7  -9  -6 21.4822 27.0748   3
  -7   9  -6 3.62671 21.5117   4
  -7  -9  -7 487.085 48.5838   1
  -7   9  -7 536.848 56.9368   2
  -7  -9  -7 574.483 56.5550   3
  -7   9  -7 533.277 46.9184   4
  -7  -9  -8 15157.5 295.385   1
  -7   9  -8 16127.3 316.540   2
  -7  -9  -8 15569.0 309.612   3
  -7   9  -8 15617.2 283.740   4
  -7  -9  -9 27.9033 28.6637   1
  -7   9  -9 84.6637 38.4802   2
  -7   9  -9 73.6798 28.2124   4
  -7  -9 -10 10787.0 247.150   1
  -7   9 -10 11263.7 265.562   2
  -7   9 -10 10506.5 228.003   4
  -7   9 -11 561.342 64.7940   2
  -7  -9 -11 562.917 57.0952   1
  -7   9 -11 497.939 50.3839   4
  -7   9 -12 50.8789 39.5704   2
  -7  -9 -12 29.0030 30.7614   1
  -7   9 -12-17.6109 31.8151   4
  -7  -9 -13 370.376 55.8781   1
  -7   9 -13 384.070 61.5314   2
  -7  -9 -14 2197.76 118.803   1
   7 -11 -19-11.5405 38.8832   1
   7  11 -18 76.1511 43.9396   2
  -7  11  18 211.507 55.0164   5
   7 -11 -18 68.4562 41.3564   1
   7 -11 -17 6285.72 196.605   1
   7  11 -17 6300.93 197.442   2
   7 -11 -16 324.011 53.4222   1
   7  11 -16 304.663 50.5984   2
   7 -11 -15 4011.15 146.046   1
   7  11 -15 3924.70 145.387   2
   7 -11 -14 447.229 53.0809   1
   7  11 -14 490.659 56.3837   2
   7 -11 -13 1677.20 88.9935   1
   7  11 -13 1764.89 92.4080   2
   7 -11 -12 319.366 42.0943   1
   7  11 -12 376.225 47.9107   2
   7 -11 -11 1352.32 74.8502   1
   7  11 -11 1469.20 80.4853   2
   7 -11 -11 1337.13 36.2079   2
   7 -11 -10 207.545 34.8639   1
   7  11 -10 194.774 34.2699   2
   7 -11 -10 256.367 19.8471   2
   7 -11  -9 11211.9 221.058   1
   7  11  -9 11335.2 225.469   2
   7 -11  -9 10501.5 159.383   2
   7 -11  -8 130.897 29.0343   1
   7 -11  -8 129.815 16.7293   2
   7  11  -8 133.517 29.5037   2
   7  11  -8 104.777 11.7430   4
   7 -11  -7 2594.51 90.1524   1
   7 -11  -7 2333.45 64.8294   2
   7  11  -7 2454.31 89.6796   2
   7  11  -7 2349.07 56.6040   4
   7 -11  -6 2892.87 94.5681   1
   7  11  -6 2990.53 97.9890   2
   7 -11  -6 2879.18 76.6568   2
  -7  11   6 2951.69 83.7418   3
   7  11  -6 2863.67 70.3568   4
   7 -11  -5 1120.32 57.6370   1
   7  11  -5 1187.97 58.9913   2
   7 -11  -5 990.955 45.8538   2
   7  11  -5 1082.34 44.9683   4
   7 -11  -4 571.296 41.3732   1
   7 -11  -4 559.151 36.7458   2
   7  11  -4 573.047 42.6166   2
   7  11  -4 539.080 34.7998   4
   7  11  -3 5614.51 127.231   2
   7 -11  -3 5611.00 129.364   1
   7  11  -2 2141.40 72.9797   2
  -7  11   2 2180.62 86.9426   4
   7 -11  -2 2215.10 76.8571   1
   7  11  -1 13182.8 212.859   2
  -7 -11   1 12896.2 248.491   1
   7 -11  -1 13427.8 222.548   1
  -7  11   1 13535.4 245.575   4
   7  11   0 1270.39 52.3019   2
   7 -11   0 1265.43 58.1575   1
  -7 -11   0 1334.26 71.6417   1
  -7  11   0 1356.18 67.7018   4
  -7 -11   0 1323.85 73.7542   3
   7  11   1 7989.25 144.848   2
  -7 -11  -1 8121.85 187.785   1
  -7  11  -1 8307.73 180.828   4
  -7 -11  -1 8371.18 194.230   3
   7  11   2 739.047 39.5777   2
  -7 -11  -2 644.217 56.4882   1
  -7  11  -2 778.935 54.1291   4
  -7 -11  -2 754.795 60.0350   3
  -7  11  -3 3270.00 114.806   2
  -7 -11  -3 3125.48 113.525   1
  -7  11  -3 3393.77 110.591   4
  -7 -11  -3 3270.32 119.157   3
   7  11   3 3326.32 81.2686   2
   7  11   4 23.2194 16.1579   2
  -7 -11  -4-7.67812 27.0785   1
  -7  11  -4-40.4294 28.1204   2
  -7  11  -4 12.5928 20.9830   4
  -7 -11  -4 23.3930 27.5045   3
  -7  11  -5 19628.4 348.269   2
  -7 -11  -5 19033.9 338.073   1
  -7  11  -5 19053.6 319.906   4
   7  11   5 19693.7 265.313   2
  -7 -11  -5 19052.0 349.519   3
  -7 -11  -6 30.3401 28.6178   1
  -7  11  -6 98.2875 36.6856   2
  -7  11  -6 89.7904 27.7685   4
  -7 -11  -6 104.466 36.9214   3
  -7  11  -7 176.892 41.1832   2
  -7 -11  -7 173.040 38.7388   1
  -7 -11  -7 152.624 38.1991   3
  -7  11  -7 162.439 32.1011   4
  -7 -11  -8 717.314 64.6790   1
  -7  11  -8 741.813 68.8967   2
  -7  11  -8 746.918 58.3888   4
  -7 -11  -8 690.708 65.0842   3
  -7 -11  -9 167.302 42.0955   1
  -7  11  -9 140.186 41.7243   2
  -7  11  -9 182.099 35.0775   4
  -7 -11 -10 254.794 46.1699   1
  -7  11 -10 322.402 54.0768   2
  -7  11 -10 327.443 42.9604   4
  -7 -11 -11 4479.16 163.541   1
  -7  11 -11 4716.88 175.350   2
  -7 -11 -12 1440.36 94.9165   1
  -7  11 -12 1511.87 103.864   2
  -7 -11 -13 5654.90 193.591   1
   7 -13 -17 258.916 53.6474   1
   7  13 -17 181.158 48.2008   2
   7 -13 -16 21.5049 34.3168   1
   7  13 -16 31.3464 36.5976   2
   7 -13 -15 1164.64 84.6154   1
   7  13 -15 1161.00 85.4069   2
   7 -13 -14 4491.22 157.586   1
   7  13 -14 4619.10 160.972   2
   7 -13 -13 9.03421 29.9689   1
   7  13 -13 72.0040 35.8254   2
   7 -13 -12 4822.36 155.146   1
   7  13 -12 4834.12 157.339   2
   7 -13 -11 32.3564 27.4599   1
   7  13 -11 48.4412 29.1827   2
   7 -13 -10 1504.56 81.9325   1
   7  13 -10 1533.61 82.3317   2
   7 -13  -9 36.8564 27.0473   1
   7  13  -9 31.5699 27.6278   2
   7 -13  -8 1637.67 80.9336   1
   7  13  -8 1577.89 79.0113   2
   7 -13  -7 7561.50 178.860   1
   7  13  -7 7587.90 176.896   2
   7 -13  -6 8730.28 189.177   1
   7  13  -6 8462.16 184.227   2
   7 -13  -6 8533.51 153.558   2
   7  13  -6 8416.87 149.860   4
   7 -13  -5 164.082 31.6186   1
   7  13  -5 159.676 28.3237   2
   7  13  -5 130.752 20.5160   4
   7 -13  -4 2514.84 92.1344   1
   7  13  -4 2558.74 87.9884   2
   7 -13  -3 6958.96 160.887   1
   7  13  -3 7177.56 154.090   2
  -7 -13   2 1068.86 71.5060   1
   7 -13  -2 1023.20 59.8067   1
   7  13  -2 1079.43 53.9947   2
   7  13  -1 933.783 48.4538   2
  -7 -13   1 828.714 64.0454   1
   7 -13  -1 857.959 53.3343   1
  -7  13   1 888.985 60.4229   4
  -7 -13   1 869.722 63.8344   3
   7  13   0 8507.75 158.360   2
   7 -13   0 8475.40 178.039   1
  -7 -13   0 8613.16 205.720   1
  -7  13   0 8293.41 190.406   4
  -7 -13   0 8350.42 203.304   3
   7  13   1 2541.45 74.9645   2
   7 -13   1 2834.36 96.1167   1
  -7 -13  -1 2568.96 108.710   1
  -7  13  -1 2744.46 103.552   4
  -7 -13  -1 2660.36 112.056   3
   7  13   2 18415.9 260.249   2
  -7 -13  -2 18216.7 333.344   1
  -7  13  -2 17991.7 313.349   4
  -7 -13  -2 18386.7 339.513   3
  -7  13  -3 1372.99 78.4962   2
   7  13   3 1281.14 47.8282   2
  -7 -13  -3 1255.92 77.5545   1
  -7  13  -3 1293.94 71.0817   4
  -7 -13  -3 1192.88 78.7695   3
  -7 -13  -4 93.6803 36.6031   1
  -7  13  -4 104.996 36.3139   2
  -7  13  -4 84.1287 30.6188   4
  -7 -13  -4 77.2995 33.7077   3
  -7  13  -5 1371.30 84.5279   2
  -7 -13  -5 1345.89 83.6725   1
  -7  13  -5 1263.15 71.3556   4
  -7 -13  -5 1245.15 82.5392   3
  -7 -13  -6 190.863 41.2810   1
  -7  13  -6 194.967 44.5224   2
  -7  13  -6 172.040 32.3863   4
  -7 -13  -6 232.590 47.5696   3
  -7  13  -7 1177.84 84.3707   2
  -7 -13  -7 1147.30 80.4606   1
  -7  13  -7 1166.60 70.0064   4
  -7 -13  -7 1231.07 86.7559   3
  -7  13  -8 2857.12 130.431   2
  -7 -13  -8 2490.72 118.451   1
  -7  13  -8 2674.23 106.689   4
  -7 -13  -8 2833.28 130.336   3
  -7 -13  -9 219.946 46.6476   1
  -7  13  -9 241.992 51.6356   2
  -7 -13  -9 328.967 55.3197   3
  -7  13  -9 295.725 40.6219   4
  -7 -13 -10 2704.25 130.033   1
  -7  13 -10 2940.42 140.292   2
  -7 -13 -11 375.912 59.1643   1
   7 -15 -16 62.3790 39.3050   1
   7 -15 -15 3288.90 146.436   1
   7  15 -15 3292.18 144.994   2
   7 -15 -14 472.837 60.5530   1
   7  15 -14 467.431 59.8216   2
   7 -15 -13 1627.88 99.5433   1
   7  15 -13 1546.51 95.2830   2
   7 -15 -12 2480.41 118.003   1
   7  15 -12 2373.79 114.453   2
   7 -15 -11 178.362 41.2586   1
   7  15 -11 179.348 38.7045   2
   7 -15 -10 3612.46 134.556   1
   7  15 -10 3662.47 133.770   2
   7 -15  -9 8111.04 205.353   1
   7  15  -9 7959.11 200.398   2
   7 -15  -8 812.486 64.2887   1
   7  15  -8 770.182 60.5862   2
   7 -15  -7 1585.74 83.8258   1
   7  15  -7 1767.65 84.2120   2
   7 -15  -6 735.518 59.1704   1
   7  15  -6 717.740 55.4516   2
   7 -15  -5 10.9327 27.3349   1
   7  15  -5 44.1941 24.5646   2
   7 -15  -4 61.3760 29.2428   1
   7  15  -4 26.7528 23.6400   2
   7 -15  -3 3212.25 113.056   1
   7  15  -3 3274.21 101.514   2
   7 -15  -2 187.212 35.4194   1
  -7 -15   2 241.758 45.6723   1
   7  15  -2 137.643 24.2147   2
   7  15  -1 3164.92 93.6142   2
   7 -15  -1 3168.71 111.309   1
  -7 -15   1 3049.57 125.853   1
  -7  15   1 3091.10 116.743   4
  -7 -15   1 3077.68 124.346   3
   7  15   0 80.5781 24.6457   2
   7 -15   0 43.4263 27.8059   1
  -7 -15   0 60.5119 36.5101   1
  -7  15   0 116.831 32.6846   4
  -7 -15   0 54.0876 34.1021   3
  -7 -15  -1 538.581 61.3717   1
   7 -15   1 559.611 51.6809   1
  -7  15  -1 584.576 52.6655   4
  -7 -15  -1 594.887 60.4153   3
  -7 -15  -2 382.185 52.3350   1
   7 -15   2 402.584 46.4489   1
  -7  15  -2 398.003 45.2428   4
  -7 -15  -2 373.220 51.6660   3
  -7 -15  -3 1897.60 102.001   1
  -7  15  -3 1856.17 89.9567   4
  -7 -15  -3 2028.59 106.341   3
  -7  15  -4 963.653 74.1236   2
  -7 -15  -4 791.326 69.1934   1
  -7  15  -4 891.847 64.2806   4
  -7 -15  -4 936.454 77.6793   3
  -7  15  -5 1878.09 100.551   2
  -7 -15  -5 1681.80 99.0835   1
  -7  15  -5 1810.68 88.8288   4
  -7 -15  -5 1882.51 107.186   3
  -7 -15  -6 182.966 44.1215   1
  -7  15  -6 202.554 50.0412   2
  -7  15  -6 169.592 34.7585   4
  -7 -15  -6 120.597 42.2811   3
  -7  15  -7 5449.08 183.875   2
  -7 -15  -7 4965.63 176.443   1
  -7  15  -7 5016.63 152.969   4
  -7 -15  -7 5099.34 181.794   3
  -7 -15  -8 1011.67 83.5629   1
  -7  15  -8 1109.46 89.9770   2
  -7 -15  -8 1013.44 86.0170   3
  -7 -15  -9-7.56964 35.3665   1
  -7  15  -9 115.092 49.1316   2
   7 -17 -14 495.549 64.8709   1
   7  17 -14 582.399 68.4523   2
   7 -17 -13 456.619 66.4082   1
   7  17 -13 439.924 59.2912   2
   7 -17 -12 2101.63 115.158   1
   7  17 -12 2307.43 117.073   2
   7 -17 -11 1102.07 83.1929   1
   7  17 -11 1268.44 86.0376   2
   7 -17 -10 294.374 49.5909   1
   7  17 -10 375.849 53.1627   2
   7 -17  -9 3855.34 146.091   1
   7  17  -9 3873.56 140.349   2
   7 -17  -8 1275.60 84.0908   1
   7  17  -8 1295.31 79.6424   2
   7 -17  -7 1441.57 87.5246   1
   7  17  -7 1426.05 81.7049   2
   7 -17  -6 6645.69 185.457   1
   7  17  -6 6611.16 174.334   2
   7 -17  -5 514.851 53.1698   1
   7  17  -5 571.395 51.2590   2
   7 -17  -4 2816.37 114.741   1
   7  17  -4 3069.82 107.437   2
   7 -17  -3 282.485 44.4552   1
  -7 -17   3 419.117 58.4148   1
   7  17  -3 343.794 39.2005   2
  -7 -17   3 400.389 55.5874   3
   7  17  -2 164.728 30.7484   2
   7 -17  -2 142.663 37.3677   1
  -7 -17   2 144.286 43.3849   1
  -7  17   2 177.582 40.0628   4
  -7 -17   2 156.016 40.4112   3
  -7 -17   1 5582.91 184.867   1
   7 -17  -1 5665.39 164.700   1
  -7  17   1 5750.63 172.429   4
  -7 -17   1 5768.94 183.888   3
   7 -17   0 2094.38 97.3341   1
  -7 -17   0 2302.49 116.819   1
  -7  17   0 2085.84 101.314   4
  -7 -17   0 2020.51 108.147   3
   7 -17   1-24.3609 33.2562   1
  -7 -17  -1 65.5769 38.3006   1
  -7  17  -1-10.3499 30.0847   4
  -7 -17  -1-21.4555 34.3195   3
   7 -17   2 7995.99 199.755   1
  -7 -17  -2 7945.20 226.952   1
  -7  17  -2 7987.43 204.187   4
  -7 -17  -2 7870.31 223.191   3
  -7 -17  -3 320.264 56.1688   1
   7 -17   3 350.886 48.4828   1
  -7  17  -3 298.601 44.0481   4
  -7 -17  -3 310.641 52.4985   3
  -7 -17  -4 218.996 49.4810   1
  -7  17  -4 157.092 38.5404   4
  -7 -17  -4 200.646 45.8350   3
  -7 -17  -5 799.220 78.2820   1
  -7  17  -5 884.977 68.3004   4
  -7 -17  -5 976.002 83.8746   3
  -7 -17  -6 8.52055 37.8531   1
  -7  17  -6-44.1964 38.7764   2
  -7 -17  -6-34.3902 44.9057   3
  -7  17  -7 77.4509 36.5268   2
  -7 -17  -7 66.3936 45.0071   1
   7  19 -12 2115.07 119.718   2
   7 -19 -11-2.26470 34.9764   1
   7  19 -11 9.20498 35.4307   2
   7 -19 -10 1132.11 87.3012   1
   7  19 -10 1112.16 83.6757   2
   7 -19  -9 2839.76 134.233   1
   7  19  -9 2708.18 124.209   2
   7 -19  -8-9.46772 36.7177   1
   7  19  -8 47.1728 34.0473   2
   7 -19  -7 53.2252 35.3833   1
   7  19  -7 112.408 34.7858   2
   7 -19  -6 439.557 58.2832   1
   7  19  -6 394.581 49.0574   2
   7 -19  -5 47.5887 35.2796   1
   7 -19  -4 3219.07 134.196   1
  -7 -19   4 3520.54 153.990   1
  -7 -19   4 3346.75 145.003   3
   7 -19  -3 503.203 57.4558   1
  -7 -19   3 528.160 68.9578   1
  -7 -19   3 595.351 67.8056   3
  -7 -19   2 197.499 53.4521   1
   7 -19  -2 236.336 47.0372   1
  -7  19   2 289.235 51.1238   4
  -7 -19   2 346.721 56.5831   3
  -7 -19   1 627.960 73.6149   1
   7 -19  -1 638.618 64.6807   1
  -7  19   1 660.639 64.9901   4
  -7 -19   1 673.978 70.7208   3
   7 -19   0 207.868 46.5925   1
  -7 -19   0 326.274 59.9647   1
  -7  19   0 209.260 45.5901   4
  -7 -19   0 246.746 54.4690   3
   7 -19   1 248.317 43.7985   1
  -7 -19  -1 314.031 52.0963   1
  -7  19  -1 364.358 52.8528   4
  -7 -19  -1 353.548 56.3386   3
  -7 -19  -2 3314.03 153.840   1
   7 -19   2 3248.97 134.360   1
  -7  19  -2 3207.94 132.953   4
  -7 -19  -2 3483.25 153.670   3
   7 -19   3 62.6872 39.6246   1
  -7  19  -3-2.43657 31.4740   4
  -7 -19  -3 65.8787 42.8843   3
   7 -21  -7 1329.98 96.1709   1
   7 -21  -6 145.285 45.2064   1
  -7 -21   6 111.497 44.7858   3
   7 -21  -5 151.184 48.1052   1
  -7 -21   5 146.437 48.1964   3
   7 -21  -4 2953.85 135.606   1
  -7 -21   4 2902.25 138.922   3
   7 -21  -3 460.315 60.7264   1
  -7 -21   3 420.625 64.9497   3
   7 -21  -2-32.2500 40.7341   1
  -7  21   2 59.8415 41.6244   4
  -7 -21   2 81.5418 43.6451   3
  -7  21   1 2742.79 131.260   4
   7 -21  -1 2827.20 132.776   1
  -7  21   0 537.292 62.7765   4
   7 -21   0 599.289 64.5232   1
  -7  21  -1 1112.10 86.8613   4
   8   0 -22 3228.17 130.944   2
  -8   0  22 3556.68 154.774   5
   8   0 -21-18.6024 29.3342   2
  -8   0  21 77.3154 43.0749   5
   8   0 -20 1739.73 90.9145   2
  -8   0  20 1930.00 106.313   5
   8   0 -19 21.6077 26.6589   2
  -8   0  19-23.8269 33.9393   5
   8   0 -18 13106.9 258.158   2
  -8   0  18 13457.3 283.316   5
   8   0 -17-8.23821 23.8932   2
  -8   0  17 67.5604 35.3702   5
   8   0 -16 33201.3 478.051   2
  -8   0  16 33738.4 503.510   5
   8   0 -15 51.7704 25.8639   2
   8   0 -14 13090.7 235.062   2
   8   0 -13 21.2223 18.1897   2
   8   0 -12 23.9862 18.5307   2
   8   0 -11 12.9428 19.3567   2
   8   0 -10 18181.9 272.975   2
   8   0  -9 33.7237 19.9065   2
  -8   0   9 0.68352 13.2765   1
  -8   0   8 13856.4 209.269   1
  -8   0   8 13795.1 200.112   4
  -8   0   8 13975.8 209.416   5
  -8   0   7 14.3018 11.7494   1
  -8   0   7-1.74052 13.5573   4
  -8   0   7-2.84336 15.0259   5
  -8   0   6 76879.2 872.710   1
  -8   0   6 77861.2 872.572   5
  -8   0   6 78010.3 882.361   4
  -8   0   5 12.8139 9.89700   1
  -8   0   5 6.94377 10.9997   5
  -8   0   5-7.96728 13.9674   4
   8   0  -5 3.80219 12.8684   4
  -8   0   4 22255.2 296.527   4
   8   0  -4 22353.1 295.191   4
  -8   0   4 21632.9 261.548   5
   8   0  -3 4.26207 14.0971   4
  -8   0   3-8.95252 14.6249   4
  -8   0   2 9836.84 124.231   1
   8   0  -2 10112.6 169.037   4
  -8   0   2 10595.5 171.399   4
  -8   0   1 22.5180 6.12097   1
   8   0  -1 30.2133 17.1448   4
  -8   0   1 9.14530 16.9429   4
  -8   0   0 31284.8 355.451   1
  -8   0   0 31583.2 417.012   4
   8   0   0 32225.1 417.572   4
  -8   0   0 31113.3 387.438   3
  -8   0  -1 16.2193 7.97665   1
   8   0   1 13.3584 9.66080   1
  -8   0  -1 8.73057 13.4049   3
  -8   0  -1 17.3283 20.1528   4
  -8   0  -2 954.435 31.8628   1
   8   0   2 988.878 33.2612   1
  -8   0  -2 986.539 41.5605   3
  -8   0  -2 970.483 51.6514   4
   8   0   3 13.8549 11.5137   1
  -8   0  -3 14.8829 10.8490   1
  -8   0  -3 20.5393 20.9405   4
  -8   0  -3-14.1472 14.0646   3
   8   0   4 24139.3 316.638   1
  -8   0  -4 24912.5 317.040   1
  -8   0  -4 24420.4 334.615   3
  -8   0  -4 24377.3 364.305   4
   8   0   5-1.00996 13.2866   1
  -8   0  -5 22.3243 13.4523   1
  -8   0  -5-0.15889 20.8871   4
   8   0   6 19360.9 281.673   1
  -8   0  -6 19829.7 281.965   1
  -8   0  -6 19791.2 324.164   4
  -8   0  -7 18.0523 16.7340   1
  -8   0  -7-4.20425 24.4726   4
  -8   0  -8 62.8497 22.0898   1
  -8   0  -8 77.1360 32.0911   4
  -8   0  -9-3.37124 29.9338   4
  -8   0 -10 16293.3 312.412   4
   8   0  11 26.4416 26.3854   5
  -8   0 -11 35.8931 30.5303   4
   8   0  12 3216.99 113.237   5
  -8   0 -12 3489.54 135.726   4
   8   0  13 20.0939 29.8657   5
  -8   0 -13 51.9274 39.4374   4
  -8   0 -14 3646.24 148.330   4
  -8   0 -15-13.5457 37.1738   4
   8   2 -23-33.8606 36.9522   2
   8   2 -22 610.379 64.7578   2
   8   2 -21 1689.42 96.7944   2
   8  -2 -21 1778.78 90.0470   2
  -8   2  21 2040.20 117.341   5
   8   2 -20 353.537 51.7829   2
   8  -2 -20 432.638 46.9614   2
  -8   2  20 364.285 55.8564   5
   8   2 -19 7750.37 200.261   2
   8  -2 -19 7950.21 186.485   2
  -8   2  19 7998.58 217.274   5
   8   2 -18 2807.27 111.971   2
   8  -2 -18 2763.79 100.525   2
  -8   2  18 3019.89 124.423   5
   8  -2 -17 246.861 34.0006   2
   8   2 -17 246.694 37.2881   2
  -8   2  17 281.100 44.2912   5
   8  -2 -16 1538.33 70.4478   2
   8   2 -16 1687.30 80.2687   2
  -8   2  16 1609.43 84.9953   5
   8  -2 -15 24976.0 362.478   2
   8   2 -15 24000.1 378.284   2
  -8   2  15 25412.6 396.790   5
  -8  -2  15 23804.8 318.671   4
   8  -2 -14 955.347 52.7808   2
   8   2 -14 895.772 55.5339   2
  -8   2  14 1062.87 64.2457   5
  -8  -2  14 931.844 38.2430   4
   8   2 -13 23215.2 352.744   2
   8  -2 -13 22740.5 333.094   2
  -8   2  13 23140.0 358.324   5
   8  -2 -12 31.2405 15.9881   2
   8   2 -12 44.5291 18.6626   2
  -8   2  12 84.3346 27.6780   5
   8  -2 -12 32.9500 19.5973   1
   8  -2 -11 9328.31 169.784   2
   8   2 -11 9546.23 183.265   2
   8  -2 -11 9554.93 181.445   1
  -8   2  11 9680.04 185.453   5
   8   2 -10 6338.62 137.836   2
   8  -2 -10 6312.95 132.555   1
  -8   2  10 6156.14 135.222   5
  -8  -2  10 6257.23 103.713   4
   8  -2 -10 5878.80 124.978   2
   8   2  -9 3718.61 98.5578   2
  -8  -2   9 3571.44 72.1339   4
  -8   2   9 3426.61 93.2269   5
  -8   2   9 3619.97 91.8131   1
   8  -2  -9 3686.45 91.4235   1
  -8  -2   9 3683.94 95.0638   1
   8   2  -8 268.204 39.9352   2
   8  -2  -8 246.349 23.8747   1
  -8   2   8 225.568 22.9856   1
  -8   2   8 257.472 27.3767   5
  -8  -2   8 270.810 19.7121   4
  -8   2   7 51375.1 603.926   1
   8  -2  -7 52231.4 604.192   1
  -8  -2   7 51742.0 593.311   4
  -8   2   7 50182.5 609.703   5
  -8   2   6 36.4222 12.0120   1
  -8   2   6 36.9478 17.6331   5
  -8  -2   6 26.8062 13.5862   4
  -8   2   6-16.8869 17.3435   4
   8   2  -6 18.1117 11.9066   4
  -8   2   5 119002. 1305.27   1
   8  -2  -5 121371. 1318.71   5
  -8  -2   5 120824. 1324.57   4
  -8   2   5 119189. 1319.00   5
  -8   2   5 120022. 1341.98   4
   8   2  -5 117753. 1324.03   4
  -8   2   4 311.486 15.2840   1
   8  -2  -4 313.284 20.5595   5
  -8   2   4 282.524 26.1205   4
   8   2  -4 345.699 26.1206   4
  -8  -2   4 276.406 23.7917   4
  -8   2   3 15721.3 234.429   4
  -8  -2   3 15602.1 225.768   4
   8   2  -3 15372.7 226.047   4
   8  -2  -3 16044.9 235.634   4
   8  -2  -3 15407.7 200.322   5
  -8   2   2 973.438 46.5970   4
   8  -2  -2 1031.92 31.5896   5
   8  -2  -2 974.873 45.8256   4
   8   2  -2 970.192 43.6507   4
  -8  -2   2 1087.83 45.7961   4
  -8  -2   1 7633.93 118.677   1
   8   2  -1 7958.62 146.772   4
  -8   2   1 7712.93 148.114   4
   8  -2  -1 8007.84 150.131   4
  -8  -2   1 7739.58 145.231   4
  -8  -2   0 4856.85 86.8454   1
  -8   2   0 4738.59 112.548   4
   8   2   0 4914.06 112.731   4
  -8   2   0 4695.68 81.6483   3
  -8  -2   0 4933.21 112.525   4
  -8  -2  -1 34616.9 412.748   1
   8  -2   1 33950.9 381.814   1
  -8   2  -1 35391.0 456.341   4
  -8   2  -1 34134.6 405.721   3
  -8  -2  -1 34986.7 456.254   4
  -8  -2  -1 34557.0 440.694   3
   8  -2   2 2794.67 53.3344   1
  -8  -2  -2 2948.09 68.3814   1
   8   2   2 2759.64 67.6440   1
   8   2   2 2836.87 53.0786   5
  -8   2  -2 2850.73 88.6540   4
  -8  -2  -2 2758.09 79.2324   3
  -8  -2  -2 2866.95 90.1609   4
  -8   2  -2 2857.39 64.0929   3
   8  -2   3 13022.0 176.532   1
   8   2   3 12808.9 195.385   1
  -8  -2  -3 13028.3 194.698   1
   8   2   3 13141.6 176.059   5
  -8   2  -3 12999.3 227.313   4
  -8  -2  -3 13007.4 213.856   3
  -8  -2  -3 13082.0 229.286   4
   8   2   4 63.5106 15.8841   1
  -8  -2  -4 13.7326 13.0385   1
   8  -2   4 36.6332 12.6445   1
   8   2   4 24.5275 12.0888   5
  -8  -2  -4 48.1429 19.3657   3
  -8  -2  -4-3.55849 21.6342   4
  -8   2  -4 28.2043 21.6283   4
  -8  -2  -5 1418.54 54.4690   1
   8  -2   5 1333.50 47.6933   1
   8   2   5 1385.03 54.8546   1
   8   2   5 1385.58 48.7216   5
   8  -2   5 1301.59 51.5644   3
  -8  -2  -5 1408.21 69.4365   4
  -8   2  -5 1291.26 65.6770   4
  -8  -2  -5 1322.72 59.9710   3
  -8  -2  -6 111.496 20.1746   1
   8  -2   6 120.866 18.9413   1
   8   2   6 158.091 23.0621   5
  -8   2  -6 162.105 30.6884   4
   8  -2   6 137.558 21.7859   3
  -8  -2  -6 133.130 29.7976   4
   8  -2   7 18306.0 280.299   1
  -8  -2  -7 20137.9 298.002   1
   8   2   7 19693.2 283.709   5
  -8  -2  -7 19271.4 331.537   4
  -8   2  -7 19506.1 325.972   4
  -8  -2  -8 2823.03 91.5758   1
   8   2   8 2760.64 85.7388   5
  -8   2  -8 2787.29 106.137   4
  -8  -2  -8 2636.83 106.620   4
  -8  -2  -9 601.759 45.5096   1
   8   2   9 533.161 41.7468   5
  -8   2  -9 542.365 50.3721   4
  -8  -2  -9 512.823 51.5063   4
  -8  -2 -10 7073.20 167.736   1
   8   2  10 7079.92 160.262   5
  -8   2 -10 6981.14 186.159   4
  -8  -2 -10 6865.31 188.787   4
  -8  -2 -11 3101.32 110.288   1
   8   2  11 2973.92 103.896   5
  -8  -2 -11 2861.26 122.336   4
  -8   2 -11 2924.37 119.467   4
  -8  -2 -12 167.816 38.0754   1
   8   2  12 149.613 31.3523   5
  -8   2 -12 160.587 41.1933   4
  -8  -2 -12 235.149 49.5548   4
   8   2  13 2977.16 112.776   5
  -8   2 -13 2697.85 121.304   4
  -8  -2 -13 2875.33 129.608   4
  -8   2 -14 386.781 53.9186   4
  -8   2 -15 7105.88 212.440   4
  -8   2 -16 1203.86 89.8114   4
   8   4 -23 73.5522 41.6000   2
   8   4 -22 2310.22 119.937   2
   8   4 -21-47.9107 37.0822   2
  -8   4  21-14.7814 43.6486   5
   8   4 -20 1004.06 75.7055   2
  -8   4  20 951.403 81.0611   5
   8   4 -19 758.877 66.9704   2
   8  -4 -19 879.501 55.6562   2
  -8   4  19 857.804 73.2532   5
   8   4 -18 1366.02 83.2563   2
   8  -4 -18 1191.30 63.2249   2
  -8   4  18 1137.22 80.8304   5
   8  -4 -18 1187.83 81.1581   1
   8   4 -17 112.473 33.7812   2
   8  -4 -17 189.370 30.1495   2
  -8   4  17 135.480 41.6072   5
   8  -4 -17 245.916 43.8369   1
   8  -4 -16 17125.7 273.619   2
   8   4 -16 16971.2 308.935   2
  -8   4  16 16271.1 313.737   5
   8  -4 -16 17177.9 315.081   1
   8  -4 -15 830.940 47.2482   2
   8   4 -15 849.918 59.8886   2
   8  -4 -15 841.547 60.1768   1
  -8   4  15 826.623 63.4850   5
   8  -4 -14 9991.72 183.108   2
   8   4 -14 10052.4 211.227   2
   8  -4 -14 10110.8 211.756   1
  -8   4  14 9924.02 214.656   5
  -8  -4  14 10358.0 136.367   4
  -8  -4  14 10166.9 136.223   4
   8   4 -13 12735.0 240.923   2
   8  -4 -13 13005.7 212.220   2
   8  -4 -13 12903.8 239.456   1
  -8  -4  13 12944.0 160.859   4
  -8   4  13 12633.1 242.498   5
  -8  -4  13 12751.4 161.521   4
   8  -4 -12 55.8929 19.0883   2
   8   4 -12 56.9915 24.1743   2
   8  -4 -12 64.8235 25.0070   1
  -8   4  12 94.5976 28.9407   5
  -8  -4  12 44.5998 8.21877   4
  -8  -4  12 42.4154 8.44498   4
   8  -4 -11 2076.21 66.8060   2
   8   4 -11 2022.38 79.7331   2
   8  -4 -11 2082.59 76.8709   1
  -8   4  11 2022.17 79.4873   5
  -8  -4  11 2129.48 40.0285   4
   8   4 -10 17236.1 276.393   2
   8  -4 -10 17189.5 264.754   1
  -8  -4  10 17047.6 205.288   4
  -8   4  10 17489.5 275.328   5
   8  -4 -10 16935.2 249.096   2
   8   4  -9 32227.0 433.647   2
   8  -4  -9 32001.3 416.389   1
  -8   4   9 32401.9 419.552   1
  -8   4   9 31692.5 427.457   5
  -8  -4   9 31223.8 363.193   4
  -8   4   8 58761.6 693.675   1
   8  -4  -8 58076.8 690.828   1
  -8  -4   8 57697.5 651.484   4
   8  -4  -8 59585.1 705.774   5
  -8   4   8 58470.8 705.996   5
  -8   4   7 38997.4 475.983   1
   8  -4  -7 39745.6 475.426   1
   8  -4  -7 40293.8 491.323   5
   8   4  -7 37116.4 449.935   4
  -8   4   7 39014.7 490.144   5
   8   4  -7 39780.1 503.167   2
  -8  -4   7 38977.1 451.411   4
  -8   4   6 516.131 28.4881   1
   8  -4  -6 521.924 28.1482   1
   8   4  -6 487.917 25.3679   4
   8  -4  -6 550.997 34.1449   5
  -8  -4   6 543.515 26.9802   4
   8   4  -6 557.731 40.3667   2
  -8   4   5 12979.3 179.807   1
   8  -4  -5 13137.2 178.951   1
   8   4  -5 13086.6 187.724   4
  -8   4   5 13342.5 214.463   4
   8  -4  -5 13286.4 197.214   5
  -8  -4   5 13118.6 186.848   4
  -8   4   4 29026.1 345.980   1
   8  -4  -4 29582.0 344.661   1
  -8   4   4 30086.4 394.976   4
   8   4  -4 28953.6 369.067   4
   8  -4  -4 30252.9 372.476   5
  -8  -4   4 29377.0 370.132   4
   8  -4  -3 169.406 11.7683   1
  -8   4   3 171.164 26.5919   4
   8   4  -3 160.886 20.1092   4
   8  -4  -3 234.501 25.3579   5
  -8  -4   3 183.021 21.9585   4
   8  -4  -2 342.330 11.9346   1
  -8   4   2 361.065 32.3873   4
  -8  -4   2 288.393 27.6550   4
   8   4  -2 329.735 26.4915   4
  -8  -4   1 2489.85 66.5053   1
  -8   4   1 2579.23 80.3730   4
   8   4  -1 2662.59 77.1285   4
  -8  -4   1 2510.05 44.2768   5
  -8  -4   1 2596.58 76.3652   4
  -8   4   1 2440.78 38.1208   3
   8  -4   0 14110.7 164.141   1
   8  -4   0 14386.5 163.674   1
  -8  -4   0 14268.6 209.426   1
  -8   4   0 15094.8 236.110   4
  -8  -4   0 13708.6 172.930   5
  -8  -4   0 14517.5 230.775   4
  -8  -4  -1 21729.6 294.007   1
   8  -4   1 21307.4 250.106   1
  -8   4  -1 22086.5 321.006   4
  -8  -4  -1 21779.3 320.756   4
  -8  -4  -1 21854.6 316.073   3
  -8  -4  -2 2573.13 72.3208   1
   8  -4   2 2484.25 50.2473   1
  -8   4  -2 2538.85 84.4686   4
  -8  -4  -2 2458.45 81.7895   3
  -8  -4  -2 2655.07 88.4669   4
   8  -4   3 5708.97 95.8540   1
   8   4   3 5699.64 121.861   1
  -8  -4  -3 5761.67 120.549   1
  -8   4  -3 5702.36 135.910   4
  -8  -4  -3 5851.25 141.049   4
  -8  -4  -3 5936.87 135.961   3
   8   4   4 14255.2 232.515   1
   8  -4   4 14275.5 203.196   1
  -8  -4  -4 14954.5 233.563   1
  -8   4  -4 14965.3 256.282   4
   8   4   4 14922.8 208.801   5
  -8  -4  -4 15054.2 262.010   4
  -8  -4  -4 15062.0 252.553   3
   8  -4   5 3456.23 80.9971   1
  -8  -4  -5 3609.22 98.1199   1
   8   4   5 3681.58 85.1612   5
  -8  -4  -5 3752.31 117.142   4
  -8   4  -5 3680.30 112.007   4
   8  -4   5 3534.63 80.3348   3
  -8  -4  -5 3450.16 107.101   3
   8  -4   6 2571.33 72.7861   1
  -8  -4  -6 2596.79 85.4012   1
   8   4   6 2733.56 76.1369   5
  -8  -4  -6 2630.32 100.770   4
  -8   4  -6 2654.94 96.0150   4
  -8  -4  -6 2521.87 93.4162   3
   8  -4   6 2717.06 73.9725   3
  -8  -4  -7 2244.18 82.3285   1
   8  -4   7 2083.82 70.3046   1
   8   4   7 2270.99 74.0987   5
   8  -4   7 2167.28 69.9432   3
  -8  -4  -7 2123.86 94.3128   4
  -8   4  -7 2093.92 88.4105   4
  -8  -4  -8 14.8704 21.2014   1
   8   4   8 17.9334 21.6108   5
  -8   4  -8 32.9575 26.8464   4
  -8  -4  -8-30.4976 26.6606   4
  -8  -4  -9 589.974 48.1002   1
   8   4   9 734.429 49.4461   5
  -8   4  -9 645.693 54.2421   4
  -8  -4  -9 678.008 61.0997   4
  -8  -4 -10 8479.04 193.989   1
   8   4  10 8809.17 182.909   5
  -8   4 -10 8177.04 202.365   4
  -8  -4 -10 8286.17 215.042   4
  -8  -4 -11 1356.07 76.1804   1
   8   4  11 1270.64 67.5457   5
  -8   4 -11 1267.29 78.1917   4
  -8  -4 -11 1402.24 88.3881   4
  -8  -4 -12 4150.32 140.122   1
   8   4  12 4318.02 132.415   5
  -8   4 -12 4371.75 149.476   4
  -8  -4 -13 1021.48 73.9069   1
  -8   4 -13 1048.81 76.0629   4
  -8  -4 -14 912.687 73.2720   1
  -8   4 -14 953.752 76.4492   4
  -8  -4 -15 1424.80 90.6778   1
  -8   4 -15 1274.16 101.927   4
   8   6 -22 40.1840 36.7226   2
   8   6 -21 1588.47 101.442   2
  -8   6  21 1774.59 112.693   5
   8  -6 -21 1694.68 109.999   1
   8   6 -20 302.390 52.0587   2
  -8   6  20 382.253 60.7448   5
   8  -6 -20 319.862 51.6569   1
   8   6 -19 2326.29 112.968   2
  -8   6  19 2506.30 123.373   5
   8  -6 -19 2226.99 113.857   1
   8   6 -18 4479.31 154.845   2
  -8   6  18 4497.36 160.783   5
   8  -6 -18 4560.29 157.555   1
   8  -6 -17 655.575 42.4015   2
   8   6 -17 624.786 58.9271   2
  -8   6  17 750.403 67.3919   5
   8  -6 -17 671.503 62.4096   1
   8  -6 -16 7203.52 146.550   2
   8   6 -16 7081.11 187.811   2
  -8   6  16 7217.22 193.844   5
   8  -6 -16 7009.02 188.317   1
   8  -6 -15 70.2210 18.9936   2
   8   6 -15 114.232 33.7706   2
  -8   6  15 113.003 40.2092   5
   8  -6 -15 70.0972 30.7564   1
   8  -6 -14 2103.79 69.1879   2
   8   6 -14 2057.28 92.0161   2
  -8   6  14 2075.72 94.4801   5
   8  -6 -14 2137.67 92.5372   1
   8   6 -13 33342.7 487.274   2
   8  -6 -13 33180.6 429.437   2
  -8   6  13 33458.9 489.203   5
   8  -6 -13 33946.4 481.791   1
   8   6 -12 8095.27 182.712   2
   8  -6 -12 7843.68 143.064   2
   8  -6 -12 8017.97 175.250   1
  -8   6  12 8167.70 183.316   5
   8   6 -11 7507.16 168.976   2
   8  -6 -11 7400.66 160.252   1
  -8   6  11 7522.74 169.689   5
   8  -6 -11 7147.70 133.765   2
   8   6 -10 4382.65 120.802   2
  -8   6  10 4282.80 118.999   5
   8  -6 -10 4307.58 112.144   1
   8   6  -9 4822.49 124.502   2
   8  -6  -9 4718.41 113.211   1
  -8   6   9 4863.89 123.989   5
   8   6  -8 30332.3 408.360   2
  -8   6   8 30298.3 390.407   1
   8  -6  -8 29806.7 387.193   1
   8   6  -8 27349.8 330.077   4
  -8  -6   8 29365.2 331.816   4
   8   6  -7 38162.9 490.900   2
  -8   6   7 38389.7 469.315   1
   8  -6  -7 37504.5 466.135   1
   8   6  -7 34907.7 427.130   4
  -8  -6   7 38271.8 430.558   4
   8   6  -6 711.414 44.4824   2
   8  -6  -6 667.358 34.9392   1
  -8   6   6 713.948 36.3120   1
   8   6  -6 685.866 29.0690   4
   8  -6  -6 756.854 43.4178   5
  -8  -6   6 769.951 31.3365   4
   8  -6  -5 24723.7 316.942   1
  -8   6   5 24733.5 318.703   1
   8   6  -5 24069.4 314.287   4
   8  -6  -5 25471.0 343.346   5
  -8  -6   5 24854.7 315.755   4
   8   6  -5 25194.6 347.738   2
   8  -6  -4 6693.51 111.725   1
   8   6  -4 6658.51 121.445   4
  -8   6   4 7080.66 147.651   4
   8  -6  -4 6979.85 134.542   5
  -8   6   4 6383.88 100.975   3
  -8  -6   4 6900.29 123.030   4
   8  -6  -3 14656.4 229.547   2
   8  -6  -3 14666.4 193.393   1
  -8   6   3 15032.5 239.603   4
   8   6  -3 14660.6 218.393   4
  -8  -6   3 15032.5 219.761   4
  -8   6   3 13991.5 174.726   3
   8  -6  -2 14947.7 197.070   1
  -8   6   2 15918.8 252.035   4
  -8  -6   2 15234.2 233.159   4
   8   6  -2 15427.0 233.845   4
  -8  -6   1 19862.4 288.845   1
   8  -6  -1 20091.7 246.252   1
  -8   6   1 19742.9 301.012   4
  -8  -6   1 19900.7 292.948   4
   8  -6   0 723.745 27.3279   1
  -8  -6   0 683.805 41.2925   1
  -8   6   0 685.163 44.6524   4
  -8  -6   0 662.035 28.6814   5
  -8  -6   0 637.536 42.5137   4
  -8  -6  -1 16260.6 250.800   1
  -8   6  -1 16471.0 265.911   4
  -8  -6  -1 15892.0 215.579   5
  -8  -6  -1 16146.8 263.334   4
  -8  -6  -1 15900.7 265.704   3
  -8  -6  -2 1274.23 56.6344   1
  -8  -6  -2 1134.71 40.2788   5
  -8   6  -2 1212.43 60.0581   4
  -8  -6  -2 1327.94 64.5039   3
  -8  -6  -2 1176.98 61.0163   4
  -8  -6  -3 21021.5 312.699   1
   8  -6   3 20757.2 272.208   1
  -8   6  -3 21378.1 328.261   4
  -8  -6  -3 21049.7 331.733   3
  -8  -6  -3 21639.4 336.051   4
   8   6   4 7889.24 154.236   2
   8  -6   4 8160.28 136.493   1
  -8  -6  -4 8170.00 166.156   1
  -8   6  -4 8259.10 175.953   4
  -8  -6  -4 8072.34 179.822   3
  -8  -6  -4 8076.56 182.734   4
  -8  -6  -5 14034.9 242.693   1
   8  -6   5 13764.8 208.961   1
  -8   6  -5 13847.5 252.240   4
   8  -6   5 13959.5 190.796   3
  -8  -6  -5 14014.4 264.238   4
  -8  -6  -5 14025.3 259.453   3
   8  -6   6 877.722 43.4775   1
  -8  -6  -6 973.824 57.1137   1
  -8   6  -6 903.488 59.0576   4
   8  -6   6 907.710 38.0627   3
  -8  -6  -6 925.760 65.2664   4
  -8  -6  -6 924.865 61.4837   3
  -8  -6  -7 8893.43 191.209   1
   8   6   7 8975.27 171.364   5
  -8   6  -7 9206.56 201.088   4
  -8  -6  -7 8989.21 212.570   4
  -8  -6  -7 8916.04 204.881   3
  -8  -6  -8 149.007 29.8988   1
   8   6   8 167.821 27.6388   5
  -8  -6  -8 169.877 38.0530   4
  -8   6  -8 209.182 35.3266   4
  -8  -6  -9 17978.1 315.632   1
   8   6   9 17759.6 289.731   5
  -8   6  -9 17323.4 315.306   4
  -8  -6 -10 277.931 41.1848   1
   8   6  10 262.595 36.5378   5
  -8   6 -10 280.777 42.8198   4
  -8  -6 -11 2301.21 103.082   1
   8   6  11 2453.54 96.4744   5
  -8   6 -11 2559.13 110.015   4
  -8  -6 -12 57.1119 33.1377   1
  -8   6 -12 36.3331 29.9014   4
  -8  -6 -13 38.1893 33.5368   1
  -8   6 -13 32.4135 32.6772   4
  -8  -6 -14 1178.30 84.3433   1
  -8   6 -14 1305.50 87.1585   4
  -8  -6 -15 3573.56 147.476   1
   8   8 -21 505.153 69.3594   2
   8   8 -20 78.0883 41.3414   2
  -8   8  20 53.4240 44.0523   5
   8  -8 -20 10.8909 34.6756   1
   8   8 -19 4697.42 169.581   2
  -8   8  19 4862.62 176.948   5
   8  -8 -19 5000.72 174.433   1
   8   8 -18 2957.14 130.512   2
  -8   8  18 2971.79 133.130   5
   8  -8 -18 3261.09 135.078   1
   8   8 -17 317.175 49.5415   2
  -8   8  17 319.707 51.8548   5
   8  -8 -17 305.594 46.8629   1
   8   8 -16 450.834 51.9848   2
  -8   8  16 477.443 57.3572   5
   8  -8 -16 529.667 55.3942   1
   8  -8 -15 1015.55 45.0230   2
   8   8 -15 989.673 71.5833   2
  -8   8  15 1038.29 74.8603   5
   8  -8 -15 1051.95 71.7785   1
   8  -8 -14 1956.12 60.7375   2
   8   8 -14 1907.28 92.1301   2
  -8   8  14 2077.70 99.1989   5
   8  -8 -14 2016.75 91.9583   1
   8   8 -13 2365.49 99.9182   2
   8  -8 -13 2348.03 65.9285   2
  -8   8  13 2473.30 104.774   5
   8  -8 -13 2385.79 96.4439   1
   8   8 -12 105.860 31.4025   2
   8  -8 -12 52.7926 16.6860   2
   8  -8 -12 64.7997 26.9151   1
  -8   8  12 92.9011 35.5146   5
   8   8 -11 3467.15 114.418   2
   8  -8 -11 3607.30 111.054   1
  -8   8  11 3541.99 117.891   5
   8  -8 -11 3475.18 81.3145   2
   8  -8 -10 13223.4 237.105   1
   8   8 -10 13842.0 251.216   2
   8  -8  -9 248.097 30.1367   1
   8   8  -9 321.947 37.4073   2
   8   8  -8 7885.56 166.309   2
   8  -8  -8 7862.65 154.490   1
   8   8  -8 7136.27 101.602   4
  -8   8   8 7713.26 147.510   3
   8   8  -7 18317.4 283.518   2
   8  -8  -7 18218.8 267.076   1
   8   8  -7 16607.9 221.909   4
  -8   8   7 17850.3 255.465   3
   8   8  -6 1810.60 71.1599   2
  -8   8   6 1820.57 63.7510   1
   8  -8  -6 1928.66 64.3268   1
   8   8  -6 1693.73 49.1769   4
  -8   8   6 1734.47 55.0896   3
   8  -8  -5 13524.3 215.279   2
   8   8  -5 14200.0 229.027   2
   8  -8  -5 13788.7 209.177   1
   8   8  -5 13361.9 198.494   4
  -8   8   5 12996.0 190.057   3
   8  -8  -4 678.655 35.1286   1
   8  -8  -4 734.866 41.5822   2
   8   8  -4 670.324 41.5386   2
  -8   8   4 671.484 26.9878   3
   8   8  -4 783.591 38.0950   4
   8  -8  -3 13177.6 196.202   1
  -8   8   3 13786.4 236.433   4
   8   8  -3 13275.6 216.178   2
  -8  -8   3 13145.9 208.983   4
   8   8  -3 12885.5 207.829   4
   8  -8  -2 5966.86 109.783   1
  -8   8   2 6159.02 141.788   4
  -8  -8   2 5788.54 126.582   4
   8   8  -2 5854.53 125.338   2
  -8  -8   1 4345.78 115.560   1
   8  -8  -1 4461.54 90.5074   1
  -8   8   1 4511.00 121.001   4
  -8  -8   1 4232.29 109.291   4
  -8  -8   0 4206.86 114.058   1
   8  -8   0 4234.52 87.7623   1
  -8  -8   0 4204.13 93.4442   5
  -8   8   0 4054.87 114.441   4
  -8  -8   0 4262.80 112.923   4
  -8  -8   0 4348.24 123.208   3
  -8  -8  -1 6999.27 153.764   1
  -8   8  -1 6867.14 156.354   4
  -8  -8  -1 6862.14 128.284   5
  -8  -8  -1 6830.36 163.195   3
  -8  -8  -1 6953.12 156.614   4
  -8  -8  -2-32.3065 23.0782   1
  -8  -8  -2 3.65847 14.1905   5
  -8   8  -2 6.47821 20.5161   4
  -8  -8  -2 19.9654 22.8311   4
  -8  -8  -2 9.85435 23.4292   3
  -8  -8  -3 5652.71 139.950   1
  -8  -8  -3 5394.49 115.534   5
  -8   8  -3 5622.58 142.289   4
  -8  -8  -3 5651.07 150.947   3
  -8  -8  -3 5828.22 149.186   4
  -8  -8  -4 12917.8 239.327   1
  -8  -8  -4 12797.3 208.663   5
  -8   8  -4 13006.3 241.852   4
  -8  -8  -4 13283.2 256.347   3
   8  -8   5 498.740 33.5647   1
  -8  -8  -5 581.776 48.7946   1
   8   8   5 511.251 36.0021   2
  -8   8  -5 522.975 45.5425   4
   8  -8   5 523.417 20.4956   3
  -8  -8  -5 597.071 52.7809   3
  -8  -8  -6 306.860 39.4018   1
  -8   8  -6 309.725 39.3577   4
  -8  -8  -6 323.795 44.7823   3
  -8  -8  -7 4702.17 139.611   1
  -8   8  -7 4589.55 137.213   4
  -8  -8  -7 4708.98 148.799   3
  -8  -8  -8 1061.63 68.0655   1
  -8  -8  -8 968.775 70.3684   3
  -8   8  -8 1054.75 66.4095   4
  -8  -8  -9 1242.80 77.0646   1
  -8   8  -9 1271.93 74.9087   4
  -8  -8 -10 6423.66 180.438   1
  -8   8 -10 6522.06 176.479   4
  -8  -8 -11 1188.96 79.9837   1
  -8   8 -11 1104.62 74.5420   4
  -8  -8 -12 6186.45 188.941   1
  -8   8 -12 6456.08 183.022   4
  -8  -8 -13 571.193 67.0178   1
  -8   8 -13 552.929 60.7945   4
  -8  -8 -14 101.634 37.1485   1
  -8  -8 -15 921.312 81.9263   1
   8  10 -19 1274.71 93.3156   2
  -8  10  19 1299.67 98.5221   5
   8 -10 -19 1386.33 97.1059   1
   8  10 -18 2539.59 133.866   2
  -8  10  18 2515.09 128.326   5
   8 -10 -18 2464.36 124.117   1
   8  10 -17 817.254 72.4208   2
  -8  10  17 727.217 73.1609   5
   8 -10 -17 808.036 71.5494   1
   8  10 -16 6003.28 184.398   2
  -8  10  16 5945.69 188.338   5
   8 -10 -16 5974.60 182.453   1
   8  10 -15 431.869 53.4047   2
  -8  10  15 459.240 59.8437   5
   8 -10 -15 381.260 49.9179   1
   8 -10 -14 1153.69 74.7790   1
   8  10 -14 1209.71 77.7141   2
   8 -10 -13 74.4915 32.7965   1
   8  10 -13 61.9116 31.7839   2
   8 -10 -12 2220.96 94.2343   1
   8  10 -12 2280.11 99.4159   2
   8 -10 -12 2116.70 56.8583   2
   8 -10 -11 1718.22 80.3048   1
   8  10 -11 1848.90 86.6047   2
   8 -10 -11 1810.18 53.4178   2
   8  10 -10 7521.43 178.214   2
   8 -10 -10 7309.06 170.249   1
   8 -10  -9 490.295 30.5180   2
   8  10  -9 501.883 46.6528   2
   8 -10  -9 509.248 43.5301   1
   8  10  -8 7578.66 169.677   2
   8 -10  -8 7106.67 132.636   2
   8 -10  -8 7493.21 160.855   1
   8  10  -8 6940.96 105.284   4
   8 -10  -7 1144.21 48.0095   2
   8  10  -7 1254.26 63.6350   2
   8 -10  -7 1274.24 60.0920   1
   8  10  -7 1229.06 40.4636   4
  -8  10   7 1242.57 52.5812   3
   8 -10  -6 8036.64 158.806   1
   8 -10  -6 7747.24 146.899   2
   8  10  -6 7834.70 166.370   2
  -8  10   6 7595.25 140.831   3
   8  10  -6 7582.35 131.673   4
   8 -10  -5 2339.69 75.9958   1
   8 -10  -5 2231.02 72.1756   2
   8  10  -5 2228.37 80.1939   2
   8  10  -5 2186.40 64.9777   4
  -8  10   5 2176.49 61.5649   3
   8 -10  -4 8062.57 153.468   1
   8  10  -4 8201.35 163.269   2
   8  10  -4 7754.28 147.428   4
   8  10  -3 4982.03 118.909   2
  -8  10   3 5253.42 137.130   4
   8 -10  -3 5093.41 113.853   1
   8  10  -2 24210.6 342.418   2
  -8  10   2 24580.5 374.037   4
   8 -10  -2 24095.5 332.420   1
   8  10  -1 92.4949 20.6428   2
   8 -10  -1 84.9235 19.8769   1
  -8 -10   1 87.8713 28.2533   1
  -8  10   1 95.7664 27.6868   4
   8 -10   0 9493.58 165.289   1
  -8 -10   0 9097.68 195.883   1
  -8 -10   0 9000.91 170.879   5
  -8  10   0 9410.38 195.995   4
  -8 -10   0 9151.76 204.858   3
   8  10   0 9447.14 168.255   2
  -8 -10  -1 15832.2 280.712   1
  -8  10  -1 15816.8 277.390   4
  -8 -10  -1 15885.8 292.878   3
   8  10   1 16575.2 245.376   2
  -8 -10  -2 263.878 36.0204   1
  -8  10  -2 327.506 40.2656   4
  -8 -10  -2 277.948 40.8158   3
  -8 -10  -3 8418.96 191.554   1
  -8  10  -3 8559.10 188.359   4
  -8 -10  -3 8324.40 200.105   3
  -8 -10  -4 8547.86 195.249   1
  -8  10  -4 8304.62 187.956   4
  -8 -10  -4 8702.17 207.593   3
  -8 -10  -5 541.315 50.5507   1
  -8  10  -5 614.015 50.4708   4
  -8 -10  -5 578.897 55.1712   3
  -8 -10  -6 5437.32 157.537   1
  -8  10  -6 5510.82 151.453   4
  -8 -10  -6 5509.29 168.089   3
  -8 -10  -7 1060.60 71.6106   1
  -8  10  -7 1053.01 66.5073   4
  -8 -10  -7 1110.27 76.7738   3
  -8 -10  -8-44.4779 31.1772   1
  -8  10  -8 3.17054 24.4948   4
  -8 -10  -8-18.1024 35.3238   3
  -8 -10  -9 8999.28 224.869   1
  -8  10  -9 9132.56 213.171   4
  -8 -10 -10 2003.76 104.392   1
  -8  10 -10 1844.06 91.7500   4
  -8 -10 -11 604.999 63.1560   1
  -8  10 -11 469.260 50.1603   4
  -8 -10 -12 1969.92 110.390   1
  -8 -10 -13 70.5225 36.2324   1
   8 -12 -18 1556.43 102.719   1
   8  12 -18 1417.56 97.4610   2
   8 -12 -17 104.853 38.4265   1
   8  12 -17 137.818 42.7284   2
   8 -12 -16 1011.30 77.9908   1
   8  12 -16 984.841 78.2876   2
   8 -12 -15 1623.49 94.4420   1
   8  12 -15 1717.01 100.165   2
   8 -12 -14 1611.63 90.3441   1
   8  12 -14 1630.62 93.6403   2
   8 -12 -13 5502.77 166.686   1
   8  12 -13 5399.50 167.584   2
   8 -12 -12 195.058 40.8511   1
   8  12 -12 51.1383 28.6089   2
   8 -12 -11 3932.65 131.015   1
   8  12 -11 4085.44 136.035   2
   8 -12 -10 2380.18 97.1832   1
   8  12 -10 2731.66 106.884   2
   8 -12  -9 82.3883 29.8832   1
   8  12  -9 2.63683 24.7233   2
   8 -12  -8 1538.13 74.3646   1
   8  12  -8 1509.35 75.7009   2
   8 -12  -8 1393.80 52.3046   2
   8 -12  -7 976.270 58.0518   1
   8  12  -7 947.845 59.2825   2
   8 -12  -7 907.501 44.3810   2
   8  12  -7 834.002 37.1657   4
   8 -12  -6 4245.27 118.854   1
   8  12  -6 4190.31 121.297   2
   8 -12  -6 4054.48 102.107   2
   8  12  -6 4147.86 94.5171   4
   8 -12  -5 3719.20 108.409   1
   8  12  -5 3823.93 112.089   2
   8  12  -5 3686.12 93.8533   4
   8  12  -4 64.7250 24.8861   2
   8 -12  -4 46.7024 22.9731   1
   8  12  -3 440.463 38.0036   2
  -8  12   3 422.923 44.3056   4
   8 -12  -3 406.244 36.8929   1
   8  12  -2 15320.3 248.943   2
  -8  12   2 15426.8 280.584   4
  -8 -12   2 15635.8 288.063   1
   8 -12  -2 15101.2 250.209   1
   8  12  -1 900.702 47.8852   2
  -8 -12   1 910.837 64.0313   1
   8 -12  -1 934.888 51.1864   1
  -8  12   1 789.820 56.6307   4
   8  12   0 186.862 26.4828   2
  -8 -12   0 138.327 35.6841   1
   8 -12   0 219.192 30.0435   1
  -8  12   0 229.746 36.8610   4
  -8 -12   0 236.282 41.0163   3
   8  12   1 9072.48 165.424   2
   8 -12   1 9528.74 181.311   1
  -8 -12  -1 9220.48 211.290   1
  -8  12  -1 9046.01 201.206   4
  -8 -12  -1 9038.01 216.827   3
   8  12   2 64.5736 21.7059   2
  -8 -12  -2 19.3350 28.6646   1
  -8  12  -2 66.4486 27.5313   4
  -8 -12  -2 68.5855 31.8127   3
   8  12   3 5609.18 115.377   2
  -8 -12  -3 5380.33 158.830   1
  -8  12  -3 5440.88 151.789   4
  -8 -12  -3 5505.71 166.939   3
  -8 -12  -4 2047.47 97.3528   1
  -8  12  -4 2338.05 96.3979   4
   8  12   4 2269.71 67.8920   2
  -8 -12  -4 2289.32 107.282   3
  -8 -12  -5-12.4390 29.5114   1
  -8  12  -5 67.5991 31.6108   4
  -8 -12  -5 41.7024 30.3503   3
  -8 -12  -6 955.362 70.4459   1
  -8  12  -6 902.452 62.6424   4
  -8 -12  -6 1010.95 77.3615   3
  -8 -12  -7 4156.20 148.432   1
  -8  12  -7 4388.58 139.639   4
  -8 -12  -7 4509.91 161.693   3
  -8 -12  -8-37.7354 32.4161   1
  -8 -12  -8 43.0746 33.4840   3
  -8  12  -8-2.38991 24.7978   4
  -8 -12  -9 4634.63 164.100   1
  -8 -12  -9 4544.04 169.740   3
  -8  12  -9 4553.28 146.186   4
  -8 -12 -10 15.2385 35.4452   1
  -8 -12 -11 549.061 67.5604   1
  -8 -12 -12 4018.18 161.192   1
   8 -14 -17 1067.15 86.0841   1
   8  14 -16 8180.99 234.885   2
   8 -14 -16 8152.30 233.202   1
   8  14 -15 34.5244 34.4934   2
   8 -14 -15 24.0792 35.4053   1
   8  14 -14 3199.29 136.779   2
   8 -14 -14 3319.49 137.618   1
   8  14 -13 692.671 66.2304   2
   8 -14 -13 650.919 62.3483   1
   8  14 -12 43.3775 35.8913   2
   8 -14 -12 36.9440 34.0579   1
   8  14 -11 244.190 39.8863   2
   8 -14 -11 205.287 39.3300   1
   8  14 -10 13421.4 274.627   2
   8 -14 -10 13135.7 271.466   1
   8  14  -9 1182.58 73.6143   2
   8 -14  -9 1091.09 69.8999   1
   8  14  -8 12170.0 246.624   2
   8 -14  -8 11750.6 243.543   1
   8  14  -7 1878.29 85.5883   2
   8 -14  -7 1848.93 85.7814   1
   8  14  -6 4416.34 129.878   2
   8 -14  -6 4254.21 129.978   1
   8  14  -5 188.120 31.3751   2
   8 -14  -5 154.073 32.7655   1
   8  14  -4 2358.46 87.8145   2
   8 -14  -4 2371.44 91.7103   1
   8  14  -3 189.005 28.6256   2
   8 -14  -3 187.885 32.7428   1
   8  14  -2 5962.46 139.624   2
  -8 -14   2 6247.62 177.856   1
   8 -14  -2 6129.83 150.380   1
  -8  14   2 5869.70 166.110   4
   8  14  -1 74.3335 23.2545   2
   8 -14  -1 66.3367 28.4259   1
  -8 -14   1 30.2903 31.5908   1
  -8  14   1 100.701 31.8643   4
  -8 -14   1 43.8748 31.1299   3
   8  14   0 9638.18 177.756   2
   8 -14   0 9630.26 198.066   1
  -8 -14   0 9344.10 226.526   1
  -8  14   0 9507.43 215.492   4
  -8 -14   0 9409.85 229.607   3
   8  14   1 13574.8 219.219   2
   8 -14   1 13393.0 245.905   1
  -8 -14  -1 13763.7 285.061   1
  -8  14  -1 13362.6 267.129   4
  -8 -14  -1 13789.1 290.701   3
  -8 -14  -2 169.597 40.0413   1
   8 -14   2 163.295 35.4501   1
  -8  14  -2 159.696 36.7853   4
  -8 -14  -2 154.410 41.3896   3
  -8 -14  -3 202.866 41.3386   1
  -8  14  -3 335.273 45.1759   4
  -8 -14  -3 377.669 52.2026   3
  -8 -14  -4 2152.41 107.668   1
  -8  14  -4 1938.29 93.6890   4
  -8 -14  -4 1950.81 105.521   3
  -8 -14  -5 109.583 40.0021   1
  -8  14  -5 71.8492 29.3107   4
  -8 -14  -5 87.5880 39.5176   3
  -8 -14  -6 4596.38 162.619   1
  -8  14  -6 4465.01 145.234   4
  -8 -14  -6 4737.27 171.961   3
  -8 -14  -7 278.274 50.0709   1
  -8 -14  -7 197.263 46.5646   3
  -8  14  -7 304.127 43.8421   4
  -8 -14  -8 173.609 46.0488   1
  -8  14  -8 167.522 37.8963   4
  -8 -14  -8 84.2005 41.3432   3
  -8 -14  -9 100.907 44.0664   1
  -8 -14  -9 151.865 47.1817   3
  -8 -14 -10 2114.52 119.650   1
   8  16 -15-14.3787 42.0814   2
   8 -16 -15-3.46587 43.6987   1
   8  16 -14 32.8580 33.1736   2
   8 -16 -14 0.06133 39.5603   1
   8  16 -13 4279.36 160.899   2
   8 -16 -13 4051.76 157.124   1
   8  16 -12 186.070 42.7835   2
   8 -16 -12 153.514 42.2585   1
   8  16 -11 6186.95 187.287   2
   8 -16 -11 5909.75 184.272   1
   8  16 -10 421.423 52.1053   2
   8 -16 -10 386.928 51.4733   1
   8  16  -9-4.20851 29.9990   2
   8 -16  -9 4.96866 28.7227   1
   8  16  -8 522.200 55.9739   2
   8 -16  -8 602.271 58.8579   1
   8  16  -7 7281.31 185.944   2
   8 -16  -7 7520.77 194.162   1
   8  16  -6 1053.50 65.7869   2
   8 -16  -6 980.754 66.6248   1
   8  16  -5 6444.72 163.415   2
   8 -16  -5 6352.08 171.388   1
   8  16  -4 679.751 50.9866   2
   8 -16  -4 621.593 54.7111   1
   8  16  -3 1156.13 62.2645   2
   8 -16  -3 1160.27 70.2651   1
  -8 -16   3 1130.58 82.7299   1
  -8  16   3 1243.78 80.0468   4
   8  16  -2 41.8199 23.0933   2
   8 -16  -2 24.3639 26.8909   1
  -8 -16   2 37.6751 35.4620   1
  -8  16   2 20.3976 33.5770   4
  -8 -16   2 65.2430 36.7874   3
  -8 -16   1 1689.93 99.6775   1
   8 -16  -1 1582.49 82.0663   1
  -8  16   1 1552.99 87.0133   4
  -8 -16   1 1694.21 97.4316   3
   8 -16   0 580.725 52.8609   1
  -8 -16   0 505.166 62.7104   1
  -8  16   0 548.761 54.2297   4
  -8 -16   0 518.308 58.4459   3
   8 -16   1 7504.39 184.461   1
  -8 -16  -1 7386.87 211.565   1
  -8  16  -1 7452.57 196.786   4
  -8 -16  -1 7640.27 216.814   3
  -8 -16  -2 260.681 50.0537   1
   8 -16   2 322.492 43.9360   1
  -8  16  -2 281.325 42.4435   4
  -8 -16  -2 399.908 55.3657   3
  -8 -16  -3 1610.59 99.7855   1
   8 -16   3 1609.76 84.1340   1
  -8  16  -3 1635.27 89.5267   4
  -8 -16  -3 1574.17 100.220   3
  -8 -16  -4 92.8901 41.6442   1
  -8  16  -4 89.3597 32.7527   4
  -8 -16  -4 92.1812 41.1266   3
  -8 -16  -5 774.235 74.3210   1
  -8  16  -5 774.419 64.1142   4
  -8 -16  -5 876.702 80.0418   3
  -8 -16  -6 1627.54 103.521   1
  -8  16  -6 1554.22 88.9172   4
  -8 -16  -6 1500.99 101.829   3
  -8 -16  -7 1944.74 115.567   1
   8 -18 -13 289.563 54.7749   1
   8  18 -13 367.624 56.7344   2
   8 -18 -12 3.44237 39.2990   1
   8  18 -12 21.7667 33.3575   2
   8 -18 -11 58.3268 37.0507   1
   8  18 -11 51.0454 35.5015   2
   8 -18 -10 2978.82 132.537   1
   8  18 -10 2845.75 127.342   2
   8 -18  -9 36.6544 34.9182   1
   8  18  -9 27.8668 34.7530   2
   8 -18  -8 1242.65 84.3797   1
   8  18  -8 1411.32 87.4083   2
   8 -18  -7 90.7881 33.8144   1
   8  18  -7 115.118 36.1455   2
   8 -18  -6 573.319 60.4187   1
   8  18  -6 575.834 53.5834   2
   8 -18  -5 10.6576 32.6599   1
   8  18  -5 83.2895 30.1075   2
   8 -18  -4 183.222 42.8727   1
  -8 -18   4 199.612 53.7732   1
   8  18  -4 122.382 34.5053   2
   8 -18  -3 1904.82 98.0933   1
  -8 -18   3 2101.55 117.557   1
  -8  18   3 2008.39 106.728   4
  -8 -18   3 2060.96 112.872   3
  -8 -18   2 7396.44 221.202   1
   8 -18  -2 7292.00 194.138   1
  -8  18   2 7313.30 207.213   4
  -8 -18   2 6651.56 207.246   3
  -8 -18   1 161.008 49.0759   1
   8 -18  -1 176.405 39.0105   1
  -8  18   1 314.033 50.8243   4
  -8 -18   1 230.057 50.4094   3
   8 -18   0 981.052 70.6415   1
  -8 -18   0 1169.23 91.4659   1
  -8  18   0 1063.57 78.7872   4
  -8 -18   0 1013.15 82.3341   3
   8 -18   1 181.873 38.2393   1
  -8 -18  -1 171.138 47.9580   1
  -8  18  -1 175.127 40.9714   4
  -8 -18  -1 204.584 48.5102   3
   8 -18   2 1.86615 30.9507   1
  -8 -18  -2 92.0154 41.2368   1
  -8  18  -2 42.9588 33.4007   4
  -8 -18  -2-19.6555 36.8143   3
  -8 -18  -3 43.3081 40.9928   1
  -8  18  -3 78.9630 36.3845   4
  -8 -18  -3 11.6335 38.8870   3
  -8  18  -4 3309.23 133.732   4
  -8 -18  -4 3170.85 147.248   1
   8  20 -11 1402.84 96.3671   2
   8 -20 -10 26.1336 38.7555   1
   8  20 -10 24.0721 38.9904   2
   8 -20  -9-15.8379 35.6206   1
   8  20  -9 1.00835 33.6753   2
   8 -20  -8 781.750 75.3577   1
   8  20  -8 714.248 67.2371   2
   8 -20  -7 1849.51 107.389   1
   8 -20  -6 12.8668 34.6406   1
   8 -20  -5 6701.33 203.086   1
  -8 -20   5 6668.50 214.554   3
   8 -20  -4 237.188 47.7982   1
  -8 -20   4 112.706 42.6756   3
   8 -20  -3 322.227 51.7135   1
  -8  20   3 454.136 61.0076   4
  -8 -20   3 323.152 54.2063   3
   8 -20  -2 150.644 42.4121   1
  -8  20   2 129.636 43.0371   4
  -8 -20   2 206.077 53.2093   3
   8 -20  -1 544.944 61.6789   1
  -8  20   1 663.155 70.0775   4
  -8 -20   1 480.919 66.9778   3
  -8  20   0 865.280 77.3889   4
  -8  20  -1 5147.10 176.364   4
  -8  20  -2-22.0949 35.1117   4
   9   1 -24 137.292 44.7613   2
   9   1 -23 1233.22 86.2649   2
   9   1 -22 650.449 64.6969   2
   9  -1 -22 634.590 59.1302   2
  -9   1  22 665.040 74.5238   5
  -9  -1  22 689.533 74.9511   5
   9   1 -21 2205.88 108.274   2
   9  -1 -21 2149.18 101.373   2
  -9   1  21 2530.30 126.292   5
  -9  -1  21 2300.50 120.108   5
   9   1 -20 4295.19 146.222   2
   9  -1 -20 4411.53 141.508   2
  -9   1  20 4542.36 163.652   5
  -9  -1  20 4467.33 162.188   5
   9  -1 -19 105.182 31.3244   2
   9   1 -19 139.729 33.3806   2
  -9   1  19 172.018 43.1540   5
  -9  -1  19 90.3648 40.0491   5
   9  -1 -18 724.024 54.7927   2
   9   1 -18 709.097 58.0500   2
  -9   1  18 794.379 67.0421   5
   9  -1 -17 11832.7 232.902   2
   9   1 -17 12273.4 244.219   2
  -9   1  17 11917.0 256.414   5
   9  -1 -16 7800.30 175.384   2
   9   1 -16 7929.04 182.764   2
  -9   1  16 7995.56 194.666   5
   9  -1 -15 825.522 53.2057   2
   9   1 -15 787.704 55.2363   2
  -9   1  15 857.620 61.2015   5
   9  -1 -14 14856.3 253.661   2
   9   1 -14 14787.2 260.572   2
  -9   1  14 14902.7 268.885   5
   9  -1 -13 576.795 41.8265   2
   9   1 -13 593.089 45.9338   2
  -9   1  13 575.646 45.8606   5
   9  -1 -12 14840.3 245.003   2
   9   1 -12 15022.0 252.814   2
  -9   1  12 15073.4 254.383   5
   9   1 -11 15852.7 260.078   2
   9  -1 -11 15825.0 254.945   2
  -9   1  11 16590.5 262.357   5
  -9  -1  11 16495.9 228.028   4
   9  -1 -10 273.545 31.3842   2
   9   1 -10 212.738 29.0371   2
  -9   1  10 298.738 30.5534   5
  -9  -1  10 289.170 24.1424   4
  -9   1   9 18846.0 269.288   1
  -9  -1   9 18884.4 271.817   1
  -9   1   9 18529.3 270.336   5
  -9  -1   9 18231.1 250.947   4
  -9   1   9 18451.7 263.317   4
   9   1  -9 18288.6 280.118   2
  -9  -1   8 21401.5 292.336   1
  -9   1   8 21458.8 288.019   1
  -9   1   8 21119.3 291.288   5
  -9  -1   8 20402.6 278.212   4
  -9   1   8 21319.5 292.979   4
  -9   1   7 21053.4 278.708   1
  -9  -1   7 21803.5 284.912   4
  -9   1   7 21227.1 292.600   4
  -9   1   7 20903.8 282.857   5
  -9   1   6 35837.7 428.104   1
  -9  -1   6 35390.0 427.291   5
  -9  -1   6 36780.8 446.478   4
   9   1  -6 35844.1 446.009   4
  -9   1   6 36673.5 455.316   4
  -9   1   6 36244.3 434.625   5
  -9   1   5 6157.10 97.2213   1
  -9  -1   5 6241.93 97.0709   5
  -9   1   5 6409.21 125.285   4
   9   1  -5 6283.65 119.839   4
  -9   1   5 6236.97 102.918   5
  -9  -1   5 6351.22 120.174   4
  -9   1   4 16896.8 209.116   1
  -9  -1   4 18004.7 253.742   4
  -9   1   4 18269.9 260.749   4
   9  -1  -4 17985.1 259.042   4
   9   1  -4 17289.4 251.093   4
  -9  -1   4 17589.7 208.642   5
  -9   1   3 5824.81 76.0436   1
   9  -1  -3 6100.05 87.8561   5
   9   1  -3 6114.87 123.607   4
  -9   1   3 6294.70 127.145   4
   9  -1  -3 6353.87 127.970   4
  -9  -1   3 6148.13 123.427   4
  -9  -1   2 4296.29 71.8880   1
  -9   1   2 4481.68 106.511   4
   9   1  -2 4278.34 103.941   4
  -9  -1   2 4444.51 104.169   4
   9  -1  -2 4161.35 63.8204   5
   9  -1  -2 4307.94 104.453   4
  -9  -1   1 28683.0 339.997   1
  -9   1   1 29790.0 398.666   4
  -9  -1   1 29750.4 397.311   4
  -9  -1   0 12665.2 169.806   1
  -9   1   0 13503.6 222.277   4
  -9   1   0 12916.3 186.566   3
  -9  -1   0 13028.6 220.065   4
  -9  -1   0 12987.1 200.596   3
  -9  -1  -1 10265.8 146.288   1
  -9   1  -1 10388.3 193.541   4
   9   1   1 10148.5 123.777   5
  -9  -1  -1 10335.9 173.132   3
  -9   1  -1 10311.3 159.471   3
  -9  -1  -1 10473.9 193.091   4
  -9  -1  -2 18166.7 237.635   1
   9  -1   2 17906.2 225.406   1
   9   1   2 17662.0 238.395   1
   9   1   2 18082.2 219.650   5
  -9  -1  -2 17977.1 265.022   3
  -9   1  -2 18223.7 251.059   3
  -9   1  -2 18366.9 290.417   4
  -9  -1  -2 18051.8 289.884   4
   9  -1   3 7276.38 117.263   1
  -9  -1  -3 7267.80 124.915   1
   9   1   3 7334.42 127.184   1
   9   1   3 7280.18 113.143   5
  -9  -1  -3 7418.13 145.501   3
  -9   1  -3 7357.67 163.240   4
  -9  -1  -3 7423.36 164.443   4
  -9   1  -3 7363.82 133.713   3
  -9  -1  -4 198.598 22.2135   1
   9   1   4 217.144 23.6994   1
   9  -1   4 159.415 18.9782   1
   9   1   4 181.732 19.3452   5
  -9   1  -4 238.043 33.7156   4
  -9  -1  -4 210.671 32.6784   4
  -9  -1  -4 201.089 25.7865   3
  -9  -1  -5 12032.4 191.099   1
   9  -1   5 11427.0 182.052   1
   9   1   5 11627.7 191.202   1
   9   1   5 11582.6 178.880   5
  -9  -1  -5 11643.6 230.745   4
  -9   1  -5 11639.2 227.982   4
   9   1   6 1327.91 57.3269   1
   9  -1   6 1278.51 52.4251   1
  -9  -1  -6 1455.48 57.5388   1
   9   1   6 1355.76 52.6804   5
  -9  -1  -6 1322.66 72.8080   4
  -9   1  -6 1288.42 71.3303   4
  -9  -1  -7 648.185 41.3113   1
   9   1   7 572.787 38.7005   5
  -9   1  -7 638.222 53.8066   4
  -9  -1  -7 668.134 56.4962   4
  -9  -1  -8 6378.48 144.197   1
   9   1   8 6167.40 136.395   5
  -9   1  -8 6197.52 170.214   4
  -9  -1  -8 6122.89 171.851   4
  -9  -1  -9-0.49257 19.9771   1
   9   1   9 34.4270 23.8015   5
  -9   1  -9 79.0277 34.7034   4
  -9  -1  -9 2.04195 29.0793   4
   9   1  10 1722.01 74.3168   5
  -9   1 -10 1845.84 96.0923   4
  -9  -1 -10 1810.44 96.2168   4
   9   1  11 5381.97 143.829   5
  -9   1 -11 5118.78 167.181   4
  -9  -1 -11 5061.27 168.127   4
   9  -1  12-10.4258 26.9580   5
  -9  -1 -12-76.1173 36.1165   4
  -9   1 -12 0.05407 31.3424   4
  -9  -1 -13 994.533 81.5545   4
  -9   1 -13 957.086 79.0377   4
  -9   1 -14 2785.04 133.780   4
  -9  -1 -14 2750.14 133.086   4
  -9   1 -15 17.7827 37.3019   4
   9   3 -23 2319.34 121.028   2
   9   3 -22 4.40887 33.8550   2
  -9   3  22-29.7356 42.4466   5
   9   3 -21 665.766 65.5315   2
  -9   3  21 701.142 74.1974   5
   9   3 -20 98.1465 35.2565   2
   9  -3 -20 95.2179 29.8438   2
  -9   3  20 53.1855 42.2099   5
   9  -3 -19 3811.04 121.536   2
   9   3 -19 4040.62 140.494   2
  -9   3  19 3990.12 150.041   5
   9  -3 -18 3546.20 113.121   2
   9   3 -18 3506.05 128.260   2
  -9   3  18 3817.31 141.162   5
   9  -3 -17 7080.55 163.377   2
   9   3 -17 7075.03 182.884   2
  -9   3  17 7101.47 192.086   5
   9  -3 -16 319.925 34.1088   2
   9   3 -16 360.050 43.0812   2
  -9   3  16 372.697 47.2308   5
   9  -3 -15 4049.07 112.733   2
   9   3 -15 4240.75 128.815   2
   9  -3 -15 4262.44 130.981   1
  -9   3  15 4176.26 133.189   5
  -9  -3  15 4179.89 82.5147   4
   9  -3 -14 448.123 37.8049   2
   9   3 -14 500.572 45.8462   2
   9  -3 -14 491.668 45.1283   1
  -9   3  14 474.127 45.7389   5
  -9  -3  14 544.374 27.0698   4
  -9  -3  14 532.646 26.2926   4
   9  -3 -13 70.1050 20.9318   2
   9   3 -13 114.177 27.0429   2
  -9  -3  13 97.5697 14.0075   4
  -9   3  13 127.648 32.5472   5
   9  -3 -13 109.848 26.9356   1
   9   3 -12 5125.39 133.741   2
   9  -3 -12 5127.76 120.666   2
   9  -3 -12 5412.56 131.743   1
  -9  -3  12 5452.03 91.9382   4
  -9   3  12 5335.71 135.523   5
   9   3 -11 17488.7 284.168   2
   9  -3 -11 17951.9 275.662   1
  -9  -3  11 17527.1 225.719   4
  -9   3  11 17544.1 281.723   5
   9  -3 -11 17354.8 265.443   2
   9   3 -10 49.9245 21.9202   2
   9  -3 -10 85.6505 22.3329   1
  -9  -3  10 51.5788 12.4326   4
  -9   3  10 39.1988 21.9386   5
   9  -3  -9 29078.3 384.865   1
  -9   3   9 29790.5 387.846   1
  -9  -3   9 29034.5 354.816   4
  -9   3   9 29629.6 396.822   5
   9   3  -9 29179.2 407.360   2
   9   3  -8 31.7656 21.6563   2
  -9   3   8-9.90077 13.5176   1
   9  -3  -8 16.1315 14.4056   1
  -9  -3   8 12.9134 11.7897   4
  -9   3   8-46.3225 23.8274   5
   9  -3  -7 6239.16 111.331   1
  -9   3   7 6238.43 112.013   1
   9  -3  -7 5980.28 118.734   5
  -9   3   7 6302.09 130.765   4
   9   3  -7 5931.63 107.417   4
  -9  -3   7 6242.94 109.364   4
  -9   3   7 6231.54 121.664   5
  -9   3   6 232.682 18.1726   1
   9  -3  -6 250.030 19.3598   1
  -9   3   6 224.858 25.4939   4
  -9   3   6 214.589 24.8427   5
   9   3  -6 227.016 21.0648   4
   9  -3  -6 238.491 23.2407   5
  -9  -3   6 247.664 21.6931   4
  -9   3   5 206.391 15.5308   1
  -9   3   5 230.176 28.8303   4
   9  -3  -5 221.322 21.2577   5
   9   3  -5 204.185 21.2448   4
  -9  -3   5 251.769 24.0209   4
  -9   3   4 3141.03 53.9701   1
   9   3  -4 3326.78 82.2048   4
  -9   3   4 3450.08 91.7964   4
   9  -3  -4 3427.81 72.7025   5
  -9  -3   4 3343.18 82.1173   4
  -9   3   3 38763.4 497.275   4
   9   3  -3 38117.4 483.731   4
   9  -3  -3 38329.1 455.083   5
  -9  -3   3 39052.4 484.985   4
   9   3  -2 4331.97 103.557   4
  -9   3   2 4493.62 110.122   4
  -9  -3   2 4151.08 101.425   4
  -9  -3   1 3060.23 70.5291   1
  -9   3   1 3149.01 91.5143   4
  -9   3   1 2883.37 55.8620   3
  -9  -3   1 2917.74 86.3094   4
  -9  -3   0 9940.64 154.415   1
  -9   3   0 10219.2 188.097   4
  -9  -3   0 9969.07 177.737   3
  -9   3   0 9662.81 134.907   3
  -9  -3   0 9835.36 183.600   4
  -9  -3  -1 32606.5 401.910   1
  -9   3  -1 32233.7 444.340   4
  -9   3  -1 31825.9 378.748   3
  -9  -3  -1 32185.6 432.152   3
  -9  -3  -1 32522.6 444.309   4
   9  -3   2 522.084 20.5158   1
  -9  -3  -2 478.012 30.2841   1
  -9   3  -2 539.642 43.8121   4
  -9  -3  -2 486.563 38.4908   3
  -9  -3  -2 533.757 43.6659   4
   9  -3   3 3386.21 67.4296   1
   9   3   3 3451.06 87.4453   1
  -9  -3  -3 3607.37 87.8042   1
   9   3   3 3643.59 70.0231   5
  -9   3  -3 3731.06 110.811   4
  -9  -3  -3 3392.05 108.276   4
  -9  -3  -3 3422.10 100.272   3
   9   3   4 6879.27 137.487   1
   9  -3   4 6753.52 115.517   1
  -9  -3  -4 7015.95 136.969   1
   9   3   4 6733.22 115.303   5
  -9  -3  -4 6970.46 165.956   4
  -9   3  -4 6952.89 162.137   4
  -9  -3  -4 6883.86 153.068   3
  -9  -3  -5 1902.27 67.3612   1
   9  -3   5 1804.93 56.4586   1
   9   3   5 1955.06 58.6213   5
  -9  -3  -5 1878.41 77.0253   3
  -9  -3  -5 1975.02 87.6950   4
  -9   3  -5 1838.77 82.0057   4
  -9  -3  -6 7671.39 154.965   1
   9  -3   6 7189.93 136.315   1
   9   3   6 7537.95 138.418   5
  -9  -3  -6 7315.80 167.840   3
  -9  -3  -6 7439.35 183.600   4
   9  -3   6 7376.70 143.054   3
  -9   3  -6 7175.00 175.333   4
  -9  -3  -7 5283.58 130.256   1
   9   3   7 5375.72 118.233   5
  -9  -3  -7 5455.36 158.004   4
  -9   3  -7 5366.93 151.680   4
  -9  -3  -8 277.368 34.2032   1
   9   3   8 259.451 31.0836   5
  -9   3  -8 229.935 38.2240   4
  -9  -3  -8 214.699 41.1589   4
  -9  -3  -9 1648.47 75.8853   1
   9   3   9 1704.86 70.1955   5
  -9   3  -9 1549.22 86.2388   4
  -9  -3  -9 1605.21 90.9152   4
  -9  -3 -10 495.986 46.0219   1
   9   3  10 519.846 44.5330   5
  -9  -3 -10 519.328 58.4774   4
  -9   3 -10 493.965 53.2043   4
  -9  -3 -11 1533.34 79.8851   1
   9   3  11 1430.63 72.5432   5
  -9   3 -11 1310.92 84.1425   4
  -9  -3 -11 1460.64 92.8923   4
  -9  -3 -12 221.181 39.7643   1
  -9   3 -12 188.540 39.7418   4
  -9  -3 -12 165.158 43.8935   4
  -9  -3 -13 2488.77 111.349   1
  -9   3 -13 2353.05 118.074   4
  -9  -3 -13 2523.84 126.596   4
  -9   3 -14 712.100 68.8373   4
  -9   3 -15 875.591 77.6768   4
   9   5 -22 20.0456 34.7826   2
   9   5 -21 2.19019 34.5716   2
  -9   5  21 52.8834 45.8400   5
   9   5 -20 6024.23 188.212   2
  -9   5  20 5979.86 194.314   5
   9   5 -19 42.6238 32.3716   2
  -9   5  19 52.4422 39.6594   5
   9  -5 -19 84.9124 39.7328   1
   9  -5 -18 1918.78 77.8319   2
   9   5 -18 1982.04 99.4844   2
  -9   5  18 1850.59 101.997   5
   9  -5 -18 2003.95 102.406   1
   9  -5 -17 1015.90 54.9108   2
   9   5 -17 1065.42 72.2037   2
  -9   5  17 993.633 73.7342   5
   9  -5 -17 1075.29 75.1496   1
   9  -5 -16 199.960 27.9100   2
   9   5 -16 153.799 36.8142   2
  -9   5  16 216.867 44.1232   5
   9  -5 -16 185.873 36.7767   1
   9  -5 -15 10141.0 186.552   2
   9   5 -15 9907.50 218.627   2
  -9   5  15 9756.75 220.999   5
   9  -5 -15 10095.3 218.772   1
   9   5 -14 23506.4 380.203   2
   9  -5 -14 23701.7 338.310   2
  -9   5  14 23527.3 383.783   5
   9  -5 -14 23951.8 376.068   1
   9  -5 -13 6.25232 17.0065   2
   9   5 -13 44.7163 26.2502   2
   9  -5 -13 37.4711 23.7029   1
  -9   5  13 32.5707 28.6781   5
   9   5 -12 992.981 60.7715   2
   9  -5 -12 1023.20 56.5783   1
  -9   5  12 1007.54 59.9604   5
   9  -5 -12 1001.69 48.9308   2
   9   5 -11 2750.54 95.4563   2
   9  -5 -11 2710.06 87.3171   1
  -9   5  11 2576.18 91.6319   5
  -9  -5  11 2627.37 42.2123   4
   9  -5 -11 2640.88 77.9804   2
   9   5 -10 37007.3 502.234   2
   9  -5 -10 36408.1 480.428   1
  -9   5  10 36633.6 496.455   5
  -9  -5  10 36884.1 415.235   4
   9   5  -9 4624.63 120.511   2
  -9   5   9 4808.79 110.505   1
   9  -5  -9 4561.09 106.769   1
  -9   5   9 4595.58 116.734   5
  -9  -5   9 4664.20 76.9531   4
   9   5  -8 43785.0 554.893   2
  -9   5   8 42682.3 525.067   1
   9  -5  -8 43421.0 524.547   1
  -9   5   8 42748.2 542.119   5
   9   5  -8 40708.8 489.723   4
  -9  -5   8 42771.7 490.253   4
  -9   5   7 7661.11 135.310   1
   9  -5  -7 7909.50 135.159   1
   9   5  -7 7289.05 121.549   4
   9  -5  -7 8139.69 151.791   5
   9   5  -7 7962.06 160.373   2
  -9  -5   7 7816.56 123.615   4
  -9   5   6 100931. 1141.03   1
   9  -5  -6 102809. 1139.47   1
   9   5  -6 97622.8 1139.63   4
  -9   5   6 105000. 1188.96   4
   9  -5  -6 104373. 1167.84   5
  -9  -5   6 103892. 1142.50   4
   9   5  -6 104893. 1186.28   2
   9  -5  -5 3276.26 67.2421   1
  -9   5   5 3223.77 68.2882   1
  -9   5   5 3326.10 95.4351   4
   9   5  -5 3247.27 77.6060   4
   9  -5  -5 3375.99 84.8234   5
  -9  -5   5 3239.86 77.5622   4
   9  -5  -4 4793.20 80.3563   1
   9   5  -4 4930.26 104.533   4
  -9   5   4 4999.15 120.209   4
   9  -5  -4 4897.38 104.038   5
  -9  -5   4 4981.05 104.796   4
   9  -5  -3 1482.62 34.1877   1
   9   5  -3 1575.41 57.8196   4
  -9   5   3 1514.19 64.3328   4
  -9  -5   3 1539.03 57.2620   4
   9  -5  -2 363.616 14.1657   1
   9   5  -2 397.581 32.4498   4
  -9   5   2 357.930 35.1563   4
  -9  -5   2 417.168 33.4882   4
   9  -5  -1 11443.6 136.218   1
  -9  -5   1 11734.8 189.045   1
  -9  -5   1 11383.0 149.617   5
  -9   5   1 11681.6 210.508   4
  -9  -5   1 11773.0 202.831   4
   9  -5   0 22074.1 248.885   1
   9  -5   0 22027.5 249.698   1
  -9  -5   0 21666.0 304.095   1
  -9  -5   0 21220.0 261.070   5
  -9   5   0 21908.5 330.218   4
  -9  -5   0 21778.5 328.159   4
  -9  -5   0 21573.6 327.768   3
  -9  -5  -1 3680.95 92.6826   1
   9  -5   1 3595.51 58.8374   1
  -9   5  -1 3579.54 105.728   4
  -9  -5  -1 3453.35 104.710   4
  -9  -5  -1 3637.13 106.328   3
  -9  -5  -2 28276.9 381.748   1
   9  -5   2 28122.8 332.640   1
  -9   5  -2 28508.1 410.693   4
  -9  -5  -2 27806.2 406.077   3
  -9  -5  -2 29046.2 415.500   4
   9  -5   3 13841.7 187.955   1
  -9  -5  -3 13940.6 227.625   1
  -9   5  -3 13804.3 248.983   4
  -9  -5  -3 13840.6 247.974   3
  -9  -5  -3 14399.1 257.474   4
   9  -5   4 1018.08 38.4751   1
  -9  -5  -4 1075.02 53.4891   1
  -9   5  -4 1161.96 64.7065   4
  -9  -5  -4 1169.16 67.0594   4
  -9  -5  -4 987.663 58.8082   3
   9  -5   5 1560.62 52.7305   1
  -9  -5  -5 1655.23 68.8874   1
  -9   5  -5 1583.26 77.2051   4
  -9  -5  -5 1515.77 79.2043   4
  -9  -5  -5 1718.67 79.4075   3
  -9  -5  -6 8345.94 174.846   1
   9  -5   6 8019.41 147.042   1
   9   5   6 8364.65 152.517   5
  -9  -5  -6 8369.92 199.715   4
  -9   5  -6 8121.42 189.735   4
   9  -5   6 8171.64 142.561   3
  -9  -5  -6 8140.94 188.132   3
  -9  -5  -7 1574.74 71.8512   1
   9   5   7 1582.97 61.9080   5
  -9  -5  -7 1629.45 81.5706   3
  -9  -5  -7 1646.79 87.8480   4
  -9   5  -7 1549.36 79.7842   4
  -9  -5  -8 5556.37 145.449   1
   9   5   8 5481.81 128.522   5
  -9  -5  -8 5490.99 166.936   4
  -9   5  -8 5132.05 153.376   4
  -9  -5  -9 628.165 50.9340   1
   9   5   9 631.257 45.1113   5
  -9   5  -9 442.683 48.2387   4
  -9  -5  -9 563.413 58.9835   4
  -9  -5 -10 5431.40 155.961   1
   9   5  10 5370.34 139.377   5
  -9   5 -10 5312.64 163.948   4
  -9  -5 -10 5558.53 177.632   4
  -9  -5 -11 3773.56 131.290   1
  -9   5 -11 3698.57 137.919   4
  -9  -5 -12 312.468 44.4437   1
  -9   5 -12 376.431 50.9570   4
  -9  -5 -13 482.429 54.7521   1
  -9   5 -13 520.961 61.3349   4
  -9  -5 -14 3509.18 140.773   1
  -9   5 -14 3518.37 146.689   4
   9   7 -21 2369.45 122.141   2
  -9   7  21 2377.42 129.266   5
   9  -7 -21 2494.40 131.306   1
   9   7 -20 160.736 40.0107   2
  -9   7  20 189.134 48.2859   5
   9  -7 -20 170.756 40.3884   1
   9   7 -19 2347.30 117.697   2
  -9   7  19 2524.31 126.528   5
   9  -7 -19 2669.84 125.951   1
   9   7 -18 121.520 41.0347   2
  -9   7  18 152.885 45.9246   5
   9  -7 -18 75.9653 36.7792   1
   9   7 -17 4086.98 145.701   2
  -9   7  17 4022.73 147.842   5
   9  -7 -17 4056.33 143.542   1
   9  -7 -16 15.6164 17.8575   2
   9   7 -16 17.4592 30.7752   2
  -9   7  16 9.27715 36.0864   5
   9  -7 -16 31.6688 30.2761   1
   9  -7 -15 8298.95 155.802   2
   9   7 -15 8134.44 201.702   2
  -9   7  15 7769.38 200.578   5
   9  -7 -15 8066.67 196.160   1
   9   7 -14 4955.58 148.872   2
   9  -7 -14 5037.88 112.569   2
  -9   7  14 4895.64 149.583   5
   9  -7 -14 4895.62 142.636   1
   9   7 -13 1409.37 75.7115   2
   9  -7 -13 1337.27 53.0648   2
  -9   7  13 1307.27 75.1850   5
   9  -7 -13 1398.59 71.4369   1
   9   7 -12 85.8904 27.9713   2
   9  -7 -12 66.9003 19.0295   2
  -9   7  12 162.001 37.5800   5
   9  -7 -12 153.316 28.0702   1
   9   7 -11 9835.11 206.168   2
  -9   7  11 10115.0 207.175   5
   9  -7 -11 9789.15 194.020   1
   9  -7 -10 870.018 49.7607   1
   9   7 -10 916.708 56.8053   2
   9  -7  -9 42331.3 544.970   1
   9   7  -9 43064.7 569.811   2
   9   7  -8 157.837 29.1481   2
  -9   7   8 177.210 24.5626   1
   9  -7  -8 186.246 25.4729   1
   9   7  -8 149.360 14.2579   4
  -9  -7   8 158.405 15.1956   4
   9   7  -7 2125.15 79.3261   2
  -9   7   7 2163.48 68.4406   1
   9  -7  -7 2260.60 68.5617   1
   9   7  -7 2131.02 54.8296   4
  -9  -7   7 2194.50 55.4079   4
   9   7  -6 570.467 41.7449   2
  -9   7   6 518.790 31.9369   1
   9  -7  -6 638.475 33.9004   1
   9   7  -6 559.420 29.3612   4
  -9   7   6 614.498 30.4850   3
  -9  -7   6 609.225 30.9282   4
   9  -7  -5 836.701 37.0556   1
  -9   7   5 897.555 53.8867   4
   9   7  -5 835.369 38.6201   4
  -9  -7   5 868.379 39.8259   4
   9   7  -5 944.881 51.4214   2
  -9   7   5 851.384 32.4749   3
   9  -7  -4 6915.31 117.620   1
   9   7  -4 7020.80 133.773   4
  -9   7   4 7262.37 158.070   4
  -9  -7   4 7119.89 134.318   4
  -9   7   4 6682.00 101.498   3
   9   7  -4 7213.88 147.633   2
   9  -7  -3 37237.0 421.931   1
   9   7  -3 37272.9 459.633   4
  -9   7   3 36753.0 484.485   4
  -9  -7   3 37020.1 458.863   4
   9  -7  -2 1058.51 35.6261   1
  -9   7   2 1157.96 59.2382   4
  -9  -7   2 1084.37 52.6475   4
  -9  -7   1 6419.96 140.787   1
   9  -7  -1 6708.73 105.177   1
  -9   7   1 6663.84 152.304   4
  -9  -7   1 6485.99 114.151   5
  -9  -7   1 6705.86 145.609   4
   9  -7   0 687.330 28.3670   1
  -9  -7   0 682.156 43.8580   1
  -9   7   0 650.928 47.3626   4
  -9  -7   0 657.380 31.2992   5
  -9  -7   0 705.538 50.8727   3
  -9  -7   0 615.324 44.0141   4
  -9  -7  -1 453.080 37.5516   1
  -9   7  -1 502.178 43.5531   4
  -9  -7  -1 496.339 27.9738   5
  -9  -7  -1 587.195 47.0652   3
  -9  -7  -1 519.070 44.0292   4
  -9  -7  -2 303.003 33.7852   1
  -9   7  -2 250.708 33.4150   4
  -9  -7  -2 277.386 22.8859   5
  -9  -7  -2 254.460 33.3089   3
  -9  -7  -2 283.153 36.5634   4
  -9  -7  -3 7263.58 158.758   1
   9  -7   3 7298.62 123.594   1
  -9   7  -3 7353.26 170.597   4
  -9  -7  -3 7228.06 173.614   3
  -9  -7  -3 7314.73 175.540   4
   9  -7   4 7080.28 127.465   1
  -9  -7  -4 7496.43 164.678   1
  -9   7  -4 7543.72 174.945   4
  -9  -7  -4 7335.60 178.669   3
  -9  -7  -4 7305.21 179.759   4
  -9  -7  -5 3526.52 110.605   1
   9  -7   5 3375.83 84.2912   1
  -9   7  -5 3430.61 115.416   4
  -9  -7  -5 3452.73 122.812   4
  -9  -7  -5 3371.74 118.562   3
  -9  -7  -6-14.3962 23.8071   1
  -9  -7  -6 4.02069 24.9726   3
  -9  -7  -6 34.7431 28.6112   4
  -9   7  -6 37.2710 26.1023   4
  -9  -7  -7 2035.44 88.7923   1
  -9   7  -7 2043.40 93.0331   4
  -9  -7  -7 2161.49 102.565   4
  -9  -7  -7 2117.70 98.8559   3
  -9  -7  -8 6674.81 171.111   1
  -9   7  -8 6276.14 171.977   4
  -9  -7  -9 2067.43 94.1013   1
  -9   7  -9 1964.46 95.4780   4
  -9  -7 -10 188.072 36.2990   1
  -9   7 -10 161.027 38.2568   4
  -9  -7 -11 8138.46 210.205   1
  -9   7 -11 7957.00 210.594   4
  -9  -7 -12 211.124 40.7434   1
  -9   7 -12 194.920 44.8310   4
  -9  -7 -13 2001.88 109.839   1
  -9   7 -13 2144.08 111.943   4
  -9  -7 -14 252.209 47.3428   1
   9   9 -20 3589.29 154.120   2
  -9   9  20 3560.51 157.794   5
   9  -9 -20 3530.74 152.927   1
   9   9 -19 89.2576 39.7407   2
  -9   9  19 221.207 55.4447   5
   9  -9 -19 126.392 40.8661   1
   9   9 -18 1743.53 102.575   2
  -9   9  18 1831.43 108.266   5
   9  -9 -18 1753.51 100.500   1
   9   9 -17 603.264 63.7154   2
  -9   9  17 560.528 64.8883   5
   9  -9 -17 481.955 54.0792   1
   9   9 -16-5.41828 29.3432   2
  -9   9  16 15.4569 38.3359   5
   9  -9 -16-37.5385 31.5486   1
   9   9 -15 2385.43 108.542   2
  -9   9  15 2504.94 113.749   5
   9  -9 -15 2493.10 107.601   1
   9   9 -14 7547.72 194.515   2
   9  -9 -14 7296.72 133.955   2
  -9   9  14 7345.38 195.517   5
   9  -9 -14 7180.13 185.041   1
   9  -9 -13 255.030 38.1174   1
   9   9 -13 312.829 45.8810   2
   9  -9 -13 339.629 27.5139   2
   9  -9 -12 10857.3 221.656   1
   9   9 -12 11008.7 233.294   2
   9  -9 -12 10897.6 176.846   2
   9   9 -11 754.471 57.2040   2
   9  -9 -11 775.806 52.8976   1
   9   9 -10 81.6771 26.4497   2
   9  -9 -10 57.4129 22.4900   1
   9   9  -9 979.959 60.1322   2
   9  -9  -9 993.062 54.6317   1
   9   9  -9 848.210 24.1146   4
   9   9  -8 3976.64 117.136   2
   9  -9  -8 3919.47 104.645   1
   9   9  -8 3728.25 71.8549   4
  -9   9   8 3739.97 96.7177   3
   9   9  -7 66.3517 21.9789   2
   9  -9  -7 72.3590 20.0582   1
   9  -9  -7 122.224 21.6020   2
   9   9  -7 100.471 14.4376   4
  -9   9   7 90.3278 16.1805   3
   9   9  -6 6520.61 147.635   2
   9  -9  -6 6495.88 131.714   1
   9   9  -6 6057.31 116.037   4
  -9   9   6 5950.92 114.357   3
   9   9  -5 1661.29 69.0396   2
   9  -9  -5 1686.28 59.5908   1
   9   9  -5 1506.76 54.8937   4
  -9   9   5 1497.53 46.0593   3
   9   9  -4 25431.0 362.616   2
   9  -9  -4 24798.6 334.381   1
  -9   9   4 26118.2 387.311   4
   9   9  -4 24606.5 344.981   4
   9   9  -3 490.047 39.0222   2
   9  -9  -3 486.741 31.5364   1
  -9   9   3 412.145 40.4732   4
  -9  -9   2 1108.02 61.1802   1
   9  -9  -2 1037.83 42.8449   1
  -9   9   2 1141.40 63.1632   4
   9   9  -2 1111.94 54.9759   2
   9  -9  -1 415.978 29.0886   1
  -9  -9   1 355.119 37.8732   1
  -9   9   1 361.827 40.8237   4
   9  -9   0 16291.4 229.948   1
  -9  -9   0 16143.7 276.270   1
  -9   9   0 16049.5 279.343   4
  -9  -9   0 15833.1 238.677   5
  -9  -9   0 15982.4 288.566   3
  -9  -9  -1 1.80500 23.1233   1
  -9   9  -1 26.5822 21.9422   4
  -9  -9  -1 26.1087 16.5774   5
  -9  -9  -1 3.14399 26.7561   3
  -9  -9  -2 29165.0 430.862   1
  -9   9  -2 29876.1 438.943   4
  -9  -9  -2 28970.4 387.444   5
  -9  -9  -2 29892.0 452.714   3
  -9  -9  -3 209.493 33.9463   1
  -9   9  -3 203.818 33.8832   4
  -9  -9  -3 218.481 25.5488   5
  -9  -9  -3 156.334 34.3988   3
  -9  -9  -4 6535.04 163.421   1
  -9   9  -4 6253.15 162.986   4
  -9  -9  -4 6347.91 173.777   3
  -9  -9  -5 3501.09 119.157   1
  -9   9  -5 3583.52 120.805   4
  -9  -9  -5 3542.31 128.756   3
  -9  -9  -6 2204.08 96.3054   1
  -9   9  -6 2190.67 96.8183   4
  -9  -9  -6 2169.82 103.562   3
  -9  -9  -7 2030.20 94.4190   1
  -9   9  -7 2217.28 98.3250   4
  -9  -9  -7 2183.99 105.727   3
  -9  -9  -8 20106.3 355.674   1
  -9  -9  -8 19961.1 373.522   3
  -9   9  -8 19217.5 349.501   4
  -9  -9  -9 2.95170 29.4504   1
  -9   9  -9 30.3078 29.8351   4
  -9  -9 -10 3029.02 125.540   1
  -9   9 -10 3015.81 122.216   4
  -9  -9 -11 154.524 43.5549   1
  -9   9 -11 214.534 43.9148   4
  -9  -9 -12 20.4874 33.1710   1
  -9   9 -12 6.36933 33.4582   4
  -9  -9 -13 293.027 53.2980   1
   9  11 -19 80.3521 43.0742   2
   9 -11 -19 13.8258 36.4195   1
   9  11 -18 62.3981 42.3633   2
   9 -11 -18 39.5127 35.9155   1
   9  11 -17 8626.30 234.473   2
   9 -11 -17 8380.78 228.221   1
   9  11 -16 15.9567 35.3279   2
   9 -11 -16 26.4638 31.4854   1
   9  11 -15 5172.72 169.589   2
   9 -11 -15 5314.99 166.723   1
   9  11 -14 863.214 69.6769   2
   9 -11 -14 810.865 64.6229   1
   9  11 -13 763.052 63.7666   2
   9 -11 -13 762.429 61.0634   1
   9  11 -12 40.7594 29.9228   2
   9 -11 -12 79.0495 28.8187   1
   9  11 -11 5194.91 153.120   2
   9 -11 -11 5167.62 145.430   1
   9  11 -10 397.690 42.9199   2
   9 -11 -10 435.037 43.2088   1
   9  11  -9 11175.7 227.476   2
   9 -11  -9 10691.3 181.847   2
   9 -11  -9 10658.7 212.957   1
   9  11  -8 1398.52 72.5282   2
   9 -11  -8 1357.30 55.5587   2
   9 -11  -8 1360.41 65.7582   1
   9  11  -8 1289.24 41.2656   4
   9  11  -7 18549.9 302.807   2
   9 -11  -7 18518.1 289.896   1
   9  11  -7 17267.5 245.293   4
  -9  11   7 17446.1 264.429   3
   9 -11  -6 893.400 51.7225   1
   9  11  -6 840.787 54.5983   2
   9  11  -6 799.356 39.8899   4
  -9  11   6 762.347 39.4057   3
   9 -11  -5 43.9390 21.9484   1
   9  11  -5 15.6847 22.7040   2
   9  11  -5 57.7452 17.9581   4
   9  11  -4 1093.40 57.6387   2
  -9  11   4 1078.12 65.7473   4
   9 -11  -4 1077.97 53.0508   1
   9  11  -3 6218.02 141.779   2
  -9  11   3 6197.59 161.490   4
   9 -11  -3 6264.41 132.654   1
   9  11  -2 17377.8 274.893   2
  -9  11   2 17325.2 305.591   4
  -9 -11   2 17698.0 308.212   1
   9 -11  -2 17787.8 266.522   1
   9  11  -1 8280.60 163.945   2
  -9 -11   1 8391.05 192.794   1
   9 -11  -1 8503.57 159.079   1
  -9  11   1 8770.64 196.845   4
   9 -11   0 726.257 43.1687   1
  -9 -11   0 704.233 56.8859   1
  -9  11   0 804.493 57.9054   4
   9  11   0 636.824 43.2772   2
  -9 -11   0 720.359 59.7321   3
   9 -11   1 2273.02 73.9977   1
  -9 -11  -1 2010.67 90.2796   1
  -9  11  -1 2027.61 88.8528   4
   9  11   1 2114.20 73.0909   2
  -9 -11  -1 2085.10 97.9651   3
   9  11   2 104.543 25.7079   2
  -9 -11  -2 72.8572 29.1488   1
  -9  11  -2 33.6711 24.2326   4
  -9 -11  -2 32.5937 27.0952   3
  -9 -11  -3 4801.46 145.756   1
  -9  11  -3 4873.19 143.882   4
  -9 -11  -3 5122.52 158.214   3
  -9 -11  -4 730.047 58.5932   1
  -9  11  -4 751.982 57.0994   4
  -9 -11  -4 804.680 67.4505   3
  -9 -11  -5 9919.56 228.362   1
  -9  11  -5 9841.21 220.525   4
  -9 -11  -5 9969.73 240.411   3
  -9 -11  -6 350.135 48.4159   1
  -9 -11  -6 483.254 57.4850   3
  -9  11  -6 360.507 44.1499   4
  -9 -11  -7 287.685 44.7447   1
  -9 -11  -7 263.465 45.8911   3
  -9  11  -7 332.791 44.4140   4
  -9 -11  -8 32.5502 32.6055   1
  -9 -11  -8 42.7908 33.1455   3
  -9  11  -8 63.9498 32.0588   4
  -9 -11  -9 1578.79 94.9941   1
  -9  11  -9 1595.59 88.9980   4
  -9 -11 -10 100.418 41.6081   1
  -9  11 -10 78.2757 36.3090   4
  -9 -11 -11 5057.71 177.068   1
  -9 -11 -12 100.557 42.8105   1
   9 -13 -18 3476.12 152.887   1
   9  13 -17 1111.25 88.8411   2
   9 -13 -17 952.093 83.6228   1
   9  13 -16 112.314 43.5304   2
   9 -13 -16 83.1604 38.1020   1
   9  13 -15 40.8371 35.2230   2
   9 -13 -15 45.4919 35.4964   1
   9  13 -14 5138.44 170.041   2
   9 -13 -14 4869.50 161.805   1
   9  13 -13-7.07933 33.7710   2
   9 -13 -13 20.2663 31.1104   1
   9  13 -12 6366.85 182.102   2
   9 -13 -12 6244.59 175.967   1
   9  13 -11 1688.87 90.7963   2
   9 -13 -11 1591.37 84.0734   1
   9  13 -10 871.047 65.2859   2
   9 -13 -10 749.240 57.9820   1
   9  13  -9 4953.09 148.077   2
   9 -13  -9 4792.50 141.151   1
   9  13  -8 5192.52 147.452   2
   9 -13  -8 5134.98 143.002   1
   9  13  -7 988.794 63.4869   2
   9 -13  -7 1117.20 64.9287   1
   9  13  -6 12328.6 238.799   2
   9 -13  -6 12632.4 235.735   1
   9  13  -5 1474.48 71.5569   2
   9 -13  -5 1364.01 67.5111   1
   9  13  -4 9520.47 193.055   2
  -9  13   4 9272.62 214.424   4
   9 -13  -4 9344.93 188.365   1
   9  13  -3 5628.98 137.978   2
  -9  13   3 5612.43 160.765   4
   9 -13  -3 5413.76 134.904   1
   9  13  -2 630.515 45.9238   2
  -9 -13   2 567.971 57.8521   1
   9 -13  -2 601.235 45.1604   1
  -9  13   2 554.784 53.0582   4
   9  13  -1 495.254 39.7334   2
  -9 -13   1 567.667 57.3656   1
   9 -13  -1 568.705 45.1368   1
  -9  13   1 650.660 56.9391   4
  -9 -13   1 434.662 54.1531   3
   9  13   0 18930.3 289.414   2
   9 -13   0 18564.7 296.961   1
  -9 -13   0 19466.6 347.404   1
  -9  13   0 19056.0 336.235   4
  -9 -13   0 18809.7 350.630   3
   9  13   1 3079.23 89.6460   2
   9 -13   1 2754.90 91.9970   1
  -9 -13  -1 3081.69 120.919   1
  -9  13  -1 2990.78 113.786   4
  -9 -13  -1 3128.66 126.650   3
   9  13   2 7889.74 153.769   2
  -9 -13  -2 7938.62 204.496   1
   9 -13   2 8299.73 171.767   1
  -9  13  -2 8133.59 198.486   4
  -9 -13  -2 8129.12 214.556   3
  -9 -13  -3 1199.21 79.5067   1
  -9  13  -3 1197.36 76.7197   4
  -9 -13  -3 1263.56 84.8024   3
  -9 -13  -4 1896.81 97.4946   1
  -9  13  -4 1872.99 91.5433   4
  -9 -13  -4 1726.01 100.072   3
  -9 -13  -5 621.071 63.1565   1
  -9  13  -5 708.181 60.9583   4
  -9 -13  -5 638.991 65.7817   3
  -9 -13  -6 882.113 72.5778   1
  -9  13  -6 881.924 68.3185   4
  -9 -13  -6 1016.95 80.8327   3
  -9 -13  -7 863.107 73.2194   1
  -9  13  -7 887.389 67.1801   4
  -9 -13  -7 960.071 81.1931   3
  -9 -13  -8 3305.62 141.582   1
  -9  13  -8 3596.11 136.547   4
  -9 -13  -8 3523.57 151.825   3
  -9 -13  -9 25.4177 34.5478   1
  -9 -13  -9 30.9879 36.2018   3
  -9  13  -9 96.1284 35.7661   4
  -9 -13 -10 3611.93 153.850   1
   9 -15 -16 37.5013 37.4540   1
   9  15 -15 6049.37 198.589   2
   9 -15 -15 5880.19 192.658   1
   9  15 -14 1628.48 101.191   2
   9 -15 -14 1526.60 96.6297   1
   9  15 -13 376.584 55.0767   2
   9 -15 -13 292.450 48.3008   1
   9  15 -12 2430.77 116.918   2
   9 -15 -12 2346.08 112.962   1
   9  15 -11 2109.04 104.997   2
   9 -15 -11 2137.36 103.460   1
   9  15 -10 1483.92 86.4832   2
   9 -15 -10 1425.38 84.1841   1
   9  15  -9 2675.82 111.770   2
   9 -15  -9 2599.08 108.320   1
   9  15  -8 321.685 45.1966   2
   9 -15  -8 324.875 44.2490   1
   9  15  -7 6267.92 168.098   2
   9 -15  -7 6376.43 168.704   1
   9  15  -6 4881.42 142.377   2
   9 -15  -6 4814.20 141.961   1
   9  15  -5 645.587 52.1560   2
   9 -15  -5 604.058 50.9712   1
   9  15  -4 4674.96 131.079   2
  -9  15   4 4443.96 150.193   4
   9 -15  -4 4629.03 134.685   1
   9  15  -3 6772.63 157.991   2
   9 -15  -3 6601.02 163.089   1
  -9 -15   3 6368.34 188.168   1
  -9  15   3 6620.68 185.034   4
   9  15  -2 70.9777 24.0823   2
   9 -15  -2 79.8214 28.4143   1
  -9 -15   2 32.0250 32.8715   1
  -9  15   2 127.940 34.0536   4
  -9 -15   2 104.520 39.4541   3
   9  15  -1 7477.45 160.559   2
  -9 -15   1 7566.01 207.309   1
   9 -15  -1 7239.38 171.700   1
  -9  15   1 7376.47 195.022   4
  -9 -15   1 7439.18 208.272   3
   9 -15   0 580.351 50.1743   1
  -9 -15   0 533.883 61.6716   1
  -9  15   0 609.199 60.5121   4
  -9 -15   0 567.094 63.1014   3
   9 -15   1 901.121 58.6582   1
  -9 -15  -1 997.961 76.9060   1
  -9  15  -1 886.130 67.3113   4
  -9 -15  -1 988.532 78.9266   3
  -9 -15  -2 1403.88 90.9023   1
   9 -15   2 1255.73 69.8037   1
  -9  15  -2 1304.18 80.6788   4
  -9 -15  -2 1321.11 90.8959   3
  -9 -15  -3 638.777 65.9288   1
  -9  15  -3 816.682 65.9133   4
  -9 -15  -3 730.054 69.8005   3
  -9 -15  -4 1315.45 90.2414   1
  -9  15  -4 1357.80 82.4391   4
  -9 -15  -4 1150.77 88.2999   3
  -9 -15  -5 6545.54 201.925   1
  -9  15  -5 6457.36 184.938   4
  -9 -15  -5 6737.69 211.851   3
  -9 -15  -6 29.1410 35.0932   1
  -9  15  -6 53.6518 32.3502   4
  -9 -15  -6-0.72651 36.5127   3
  -9 -15  -7 1768.54 110.035   1
  -9  15  -7 1757.91 95.4338   4
  -9 -15  -7 1670.81 109.223   3
  -9 -15  -8 1786.60 111.532   1
   9  17 -14 63.9481 41.7432   2
   9 -17 -14 127.127 43.7260   1
   9  17 -13 113.338 44.9559   2
   9 -17 -13 12.7409 33.4371   1
   9  17 -12 1748.39 103.227   2
   9 -17 -12 1590.53 99.9029   1
   9  17 -11 1166.79 84.7723   2
   9 -17 -11 1115.01 83.8467   1
   9  17 -10 144.278 38.3016   2
   9 -17 -10 189.191 42.2268   1
   9  17  -9 4356.89 150.378   2
   9 -17  -9 4643.67 158.228   1
   9  17  -8 479.090 52.7169   2
   9 -17  -8 398.019 51.4257   1
   9  17  -7 163.898 38.1758   2
   9 -17  -7 138.962 36.7755   1
   9  17  -6 5053.22 150.340   2
   9 -17  -6 4948.82 154.731   1
   9  17  -5-1.52836 25.6626   2
   9 -17  -5-21.9290 27.0164   1
   9  17  -4 621.408 52.1518   2
   9 -17  -4 576.619 55.2812   1
  -9 -17   4 681.585 72.2451   1
  -9  17   4 671.264 66.8059   4
   9 -17  -3 4684.78 146.382   1
  -9 -17   3 4842.42 173.265   1
  -9  17   3 5100.80 168.844   4
  -9 -17   3 4849.48 173.663   3
  -9 -17   2 355.016 54.4516   1
   9 -17  -2 376.044 44.9374   1
  -9  17   2 386.637 54.7996   4
  -9 -17   2 373.140 55.7152   3
  -9 -17   1 2680.38 129.113   1
   9 -17  -1 2803.75 109.500   1
  -9  17   1 2627.92 120.138   4
  -9 -17   1 2720.55 131.158   3
   9 -17   0 4315.84 138.969   1
  -9 -17   0 4509.11 166.325   1
  -9  17   0 4317.43 153.991   4
  -9 -17   0 4191.38 163.334   3
  -9 -17  -1 35.4322 41.0553   1
  -9  17  -1 58.8537 34.3671   4
  -9 -17  -1 89.3134 39.6097   3
  -9 -17  -2 2031.32 115.786   1
  -9  17  -2 1995.70 104.317   4
  -9 -17  -2 1991.35 115.557   3
  -9 -17  -3 541.014 68.2939   1
  -9  17  -3 483.904 56.4459   4
  -9 -17  -3 631.534 71.9280   3
  -9 -17  -4 189.071 51.1701   1
  -9  17  -4 261.172 47.9536   4
  -9 -17  -4 155.010 46.7871   3
  -9  17  -5 1250.73 84.3616   4
  -9 -17  -5 1199.53 91.9020   1
   9 -19 -12 2977.67 143.075   1
   9  19 -12 3044.81 140.880   2
   9 -19 -11 519.308 67.6672   1
   9  19 -11 455.304 60.5956   2
   9 -19 -10 517.606 60.8414   1
   9  19 -10 580.339 63.8241   2
   9 -19  -9 213.858 46.8190   1
   9  19  -9 174.399 43.8720   2
   9 -19  -8 419.283 57.1581   1
   9  19  -8 359.060 52.9038   2
   9 -19  -7 112.468 35.6635   1
   9  19  -7 247.682 44.2617   2
   9 -19  -6 2144.89 109.491   1
   9 -19  -5 753.044 68.5382   1
  -9 -19   5 725.667 77.6851   1
   9 -19  -4 3267.14 132.276   1
  -9 -19   4 3731.41 160.799   1
  -9  19   4 3551.71 150.196   4
  -9 -19   4 3616.93 155.083   3
  -9 -19   3 257.556 52.0887   1
   9 -19  -3 300.116 45.8510   1
  -9  19   3 287.762 52.1204   4
  -9 -19   3 317.353 56.8639   3
  -9 -19   2 24.8498 44.0792   1
   9 -19  -2 9.70003 32.2005   1
  -9  19   2 45.3619 39.0865   4
  -9 -19   2 63.8730 40.4383   3
  -9 -19   1 210.465 53.5620   1
  -9  19   1 155.570 42.8530   4
  -9 -19   1 177.402 45.9990   3
  -9 -19   0 647.187 76.0824   1
  -9  19   0 702.303 70.4099   4
  -9 -19   0 689.671 77.2866   3
  -9  19  -1 18.8224 33.7994   4
  -9  19  -2 2123.83 113.335   4
  -9  19  -3 330.502 53.7176   4
   9 -21  -8 339.033 55.8920   1
   9 -21  -7 770.068 76.2681   1
   9 -21  -6 60.4358 37.3676   1
   9 -21  -5-20.0070 38.3566   1
  -9  21   2 1515.12 103.558   4
  -9  21   1 2899.40 140.266   4
  -9  21   0 19.4032 41.8445   4
  10   0 -23 18.2012 32.3376   2
  10   0 -22 2621.86 118.321   2
 -10   0  22 2941.73 139.288   5
  10   0 -21 5.35612 27.8645   2
 -10   0  21 1.44362 35.7100   5
  10   0 -20 1486.77 83.8447   2
 -10   0  20 1198.21 87.2140   5
  10   0 -19 37.9405 30.3132   2
 -10   0  19-28.3960 34.7795   5
  10   0 -18 14875.0 281.188   2
 -10   0  18 14890.8 301.239   5
  10   0 -17 16.8265 26.4050   2
 -10   0  17 1.18482 29.4121   5
  10   0 -16 437.603 44.5759   2
 -10   0  16 424.680 48.0872   5
  10   0 -15-26.0311 22.7537   2
 -10   0  15-54.6132 30.0170   5
  10   0 -14 178.850 29.0909   2
 -10   0  14 162.170 31.7354   5
  10   0 -13 25.6347 23.3251   2
 -10   0  13 38.6732 24.4030   5
  10   0 -12 33129.7 457.000   2
 -10   0  12 33282.5 456.458   5
  10   0 -11 0.10804 20.3971   2
 -10   0  11-23.6284 21.3984   5
 -10   0  11-22.0190 15.6506   4
 -10   0  10 23187.0 326.809   5
 -10   0  10 23169.5 314.624   4
  10   0 -10 23039.8 339.190   2
 -10   0   9-14.3044 13.1532   1
 -10   0   9 9.18082 13.9490   4
 -10   0   9-22.0044 18.3755   5
 -10   0   8 11878.8 185.808   1
 -10   0   8 11957.1 185.990   5
 -10   0   8 12114.2 191.507   4
 -10   0   7-4.83054 11.2283   1
 -10   0   7-14.0397 14.2790   5
 -10   0   7 17.4801 15.0050   4
 -10   0   6 87.7075 13.2165   1
 -10   0   6 94.9035 15.0500   5
 -10   0   6 120.816 22.0792   4
  10   0  -6 86.9336 21.1865   4
 -10   0   5 23.0042 9.57599   1
  10   0  -5 3.50850 14.8340   4
 -10   0   5 1.15128 10.5181   5
 -10   0   5 0.10235 15.9025   4
 -10   0   4 3044.13 86.4636   4
  10   0  -4 3274.61 89.0979   4
 -10   0   3-4.76238 18.5974   4
 -10   0   2 59434.6 651.741   1
 -10   0   2 61456.0 731.718   4
 -10   0   1 4.05165 5.39175   1
 -10   0   1-30.8196 19.9016   4
 -10   0   0 63813.5 782.186   4
 -10   0   0 63001.0 742.504   3
 -10   0  -1 5.03758 7.64131   1
 -10   0  -1 6.59157 13.7581   3
 -10   0  -1 9.39262 19.9720   4
 -10   0  -2 2741.80 59.3011   1
  10   0   2 2828.10 61.5143   1
 -10   0  -2 2826.94 78.4079   3
 -10   0  -2 2825.01 96.5276   4
  10   0   3 4.94095 12.2206   1
 -10   0  -3 9.52565 9.88365   1
 -10   0  -3 4.16603 23.3713   4
 -10   0  -3-0.38855 14.2111   3
 -10   0  -4 18101.3 246.175   1
  10   0   4 17669.6 247.742   1
 -10   0  -4 17408.2 269.216   3
 -10   0  -4 17411.0 304.589   4
  10   0   5-18.4647 15.6054   1
 -10   0  -5-7.49646 13.6574   1
 -10   0  -5-5.73203 24.7670   4
 -10   0  -6 5603.24 121.241   1
 -10   0  -6 5800.99 160.773   4
  10   0   7-7.79313 19.3041   5
 -10   0  -7-0.30482 28.2158   4
  10   0   8 285.595 31.5308   5
 -10   0  -8 296.745 42.0738   4
  10   0   9 22.0122 20.6247   5
 -10   0  -9-24.6161 30.3810   4
 -10   0 -10 8769.95 227.393   4
 -10   0 -11 31.9556 38.4105   4
 -10   0 -12 2137.33 113.367   4
 -10   0 -13-35.0201 36.2317   4
 -10   0 -14 548.601 67.2415   4
  10   2 -24 166.904 42.9397   2
  10   2 -23 10.4731 33.9433   2
  10   2 -22 84.8087 39.8460   2
 -10   2  22 42.2246 40.9858   5
 -10  -2  22 53.7847 39.1623   5
  10   2 -21 1827.34 100.999   2
  10  -2 -21 1886.01 92.8387   2
 -10   2  21 2013.73 114.505   5
 -10  -2  21 1720.43 104.116   5
  10  -2 -20 794.711 60.8680   2
  10   2 -20 719.469 63.2259   2
 -10   2  20 939.656 78.7696   5
  10  -2 -19 7732.53 184.987   2
  10   2 -19 7382.40 196.166   2
 -10   2  19 8006.78 215.298   5
  10  -2 -18 1541.07 76.5337   2
  10   2 -18 1600.09 85.4965   2
 -10   2  18 1589.92 91.2356   5
  10  -2 -17 30.0489 22.8938   2
  10   2 -17 107.506 32.9743   2
 -10   2  17 21.3538 30.9843   5
  10  -2 -16 1340.36 68.9210   2
  10   2 -16 1548.75 79.8373   2
 -10   2  16 1491.22 81.9080   5
  10   2 -15 1736.08 81.8753   2
  10  -2 -15 1963.05 80.1718   2
 -10   2  15 1973.81 90.7533   5
  10  -2 -14 2499.20 87.8295   2
  10   2 -14 2470.20 94.6367   2
 -10   2  14 2519.40 96.8426   5
 -10  -2  14 2501.55 66.6375   4
  10  -2 -13 20622.9 320.479   2
  10   2 -13 20962.4 335.395   2
 -10   2  13 21915.8 340.207   5
 -10  -2  13 21688.1 284.169   4
  10   2 -12 33.5869 22.5618   2
  10  -2 -12-2.84143 22.6068   2
 -10  -2  12 49.7923 14.0811   4
 -10   2  12 20.9420 23.6430   5
  10   2 -11 6961.96 156.658   2
 -10  -2  11 7226.30 123.698   4
 -10   2  11 7140.95 152.362   5
  10  -2 -11 7041.16 148.767   2
 -10   2  10 2294.85 73.6508   1
 -10  -2  10 2259.06 60.9136   4
 -10   2  10 2180.15 75.0276   5
  10   2 -10 2209.84 81.2342   2
 -10   2   9 26501.6 351.084   1
 -10   2   9 25677.6 355.868   5
 -10  -2   9 26053.4 336.863   4
 -10   2   9 26647.0 362.679   4
  10   2  -9 26278.5 375.586   2
 -10   2   8 1109.19 43.4873   1
 -10  -2   8 1176.30 44.4874   4
 -10   2   8 1119.05 50.7569   4
 -10   2   8 1135.72 48.3797   5
 -10   2   7 8134.03 133.261   1
 -10  -2   7 8433.49 143.797   4
  10   2  -7 8093.99 142.630   4
 -10   2   7 8492.76 158.417   4
 -10   2   7 8284.87 142.068   5
 -10   2   6 2668.18 58.9766   1
 -10  -2   6 2629.43 72.6475   4
 -10   2   6 2617.22 66.0106   5
  10   2  -6 2652.08 73.1741   4
 -10   2   6 2667.63 80.5490   4
 -10   2   5 15131.7 193.177   1
  10  -2  -5 15411.3 208.491   5
 -10  -2   5 15496.4 194.392   5
 -10   2   5 15842.6 244.355   4
  10   2  -5 15323.6 231.799   4
 -10  -2   5 15878.8 233.282   4
 -10   2   4 2501.95 41.4960   1
  10  -2  -4 2544.80 56.8916   5
  10   2  -4 2644.72 77.0831   4
 -10   2   4 2636.62 82.1467   4
 -10  -2   4 2571.15 76.4964   4
 -10  -2   4 2553.82 42.5706   5
 -10   2   3 16926.3 261.862   4
 -10  -2   3 16625.4 255.022   4
  10  -2  -3 16394.4 210.008   5
 -10  -2   2 3238.37 68.0461   1
  10  -2  -2 3351.56 61.7702   5
 -10   2   2 3250.35 95.1153   4
 -10  -2   2 3329.94 93.8182   4
 -10  -2   1 21770.8 275.994   1
 -10   2   1 22127.9 328.849   4
 -10  -2   1 22053.4 325.260   4
 -10   2   1 21807.4 279.111   3
 -10  -2   0 6922.25 114.255   1
 -10   2   0 6907.54 152.966   4
 -10   2   0 6762.68 114.537   3
 -10  -2   0 6925.09 139.546   3
 -10  -2   0 6747.11 150.384   4
 -10  -2  -1 44420.3 526.197   1
 -10   2  -1 44597.5 587.401   4
 -10  -2  -1 44693.4 563.700   3
 -10   2  -1 44611.3 527.563   3
 -10  -2  -1 44906.6 586.827   4
  10  -2   2 478.587 19.8928   1
 -10  -2  -2 442.548 27.2470   1
  10   2   2 452.850 18.4441   5
 -10  -2  -2 465.588 42.4414   4
 -10   2  -2 465.035 42.3642   4
 -10  -2  -2 435.122 34.7627   3
 -10   2  -2 479.622 28.8324   3
 -10  -2  -3 16225.2 233.865   1
  10   2   3 15955.7 235.492   1
  10  -2   3 16138.9 212.160   1
  10   2   3 16536.2 209.084   5
 -10   2  -3 16466.7 283.641   4
 -10  -2  -3 16091.8 261.073   3
 -10  -2  -3 16041.6 282.878   4
  10  -2   4 3958.69 82.0596   1
 -10  -2  -4 4003.90 94.3659   1
  10   2   4 3926.94 95.6476   1
  10   2   4 4000.34 79.7752   5
 -10  -2  -4 4078.53 126.884   4
 -10   2  -4 4062.02 124.236   4
 -10  -2  -4 4077.09 112.075   3
  10   2   5 217.701 27.3352   1
 -10  -2  -5 196.627 24.8922   1
  10  -2   5 173.060 20.1205   1
  10   2   5 193.412 20.6308   5
 -10  -2  -5 183.896 34.7468   4
 -10   2  -5 181.579 34.0738   4
 -10  -2  -5 217.198 30.7060   3
 -10  -2  -6 2702.87 83.6437   1
  10   2   6 2531.62 72.1183   5
 -10  -2  -6 2592.50 106.634   4
 -10   2  -6 2471.82 102.132   4
 -10  -2  -7 3977.31 109.194   1
  10   2   7 4086.06 100.347   5
 -10  -2  -7 4108.61 138.970   4
 -10   2  -7 4082.94 135.743   4
 -10  -2  -8 1164.39 60.1246   1
  10   2   8 1111.80 53.7885   5
 -10   2  -8 955.842 68.6066   4
 -10  -2  -8 1139.26 77.3790   4
 -10  -2  -9 6870.15 161.444   1
  10   2   9 6622.82 148.832   5
 -10   2  -9 6545.05 186.568   4
 -10  -2  -9 6825.03 194.532   4
 -10  -2 -10 1178.48 66.9555   1
 -10   2 -10 1002.52 76.9924   4
 -10  -2 -10 1214.35 84.2863   4
 -10  -2 -11 6452.45 170.408   1
 -10   2 -11 6553.25 197.052   4
 -10  -2 -11 6337.69 198.441   4
 -10   2 -12 353.168 55.7501   4
 -10  -2 -12 332.512 53.1827   4
 -10   2 -13 1956.31 110.237   4
 -10  -2 -13 1822.91 110.966   4
 -10   2 -14-27.7391 35.1347   4
  10   4 -23 123.357 40.4642   2
  10   4 -22 3395.37 144.139   2
  10   4 -21 2973.75 132.381   2
 -10   4  21 3312.54 146.553   5
  10  -4 -20 119.338 30.6415   2
  10   4 -20 139.054 39.5531   2
 -10   4  20 74.0919 39.9723   5
  10  -4 -19 166.357 30.9067   2
  10   4 -19 168.566 42.9332   2
 -10   4  19 217.621 45.6697   5
  10  -4 -18 979.974 58.5798   2
  10   4 -18 1038.44 73.4342   2
 -10   4  18 1084.06 78.8189   5
  10  -4 -17 478.843 41.7384   2
  10   4 -17 412.304 48.5417   2
 -10   4  17 534.664 57.0827   5
  10  -4 -16 18118.7 292.912   2
  10   4 -16 17879.9 324.296   2
 -10   4  16 18058.9 330.015   5
  10  -4 -16 18236.8 325.644   1
  10  -4 -15 99.5543 26.9069   2
  10   4 -15 10.3813 26.7968   2
 -10   4  15-0.48159 28.3754   5
 -10  -4  15 18.5372 9.47997   4
  10  -4 -15 50.4529 24.0269   1
  10  -4 -14 116.501 25.0060   2
  10   4 -14 142.102 32.7551   2
 -10  -4  14 136.911 13.4445   4
 -10   4  14 159.866 33.8306   5
  10  -4 -14 88.0699 26.5416   1
  10   4 -13 512.376 46.6686   2
  10  -4 -13 522.188 39.5920   2
  10  -4 -13 533.059 44.0596   1
 -10   4  13 652.382 51.3535   5
 -10  -4  13 580.842 23.3972   4
  10   4 -12 469.532 43.3402   2
  10  -4 -12 546.906 42.8474   1
 -10   4  12 446.661 43.4561   5
 -10  -4  12 512.565 23.0990   4
  10  -4 -12 552.814 40.8115   2
  10   4 -11 7312.37 165.342   2
 -10  -4  11 7444.27 114.312   4
 -10   4  11 7254.78 160.525   5
  10  -4 -11 7528.92 153.987   1
  10   4 -10 31567.0 444.438   2
  10  -4 -10 31369.1 419.611   1
 -10  -4  10 31747.3 379.368   4
 -10   4  10 31354.5 432.672   5
 -10   4   9 2990.22 81.2750   1
  10  -4  -9 3020.10 80.6892   1
 -10  -4   9 2843.73 65.4429   4
 -10   4   9 2842.97 87.4186   5
  10   4  -9 2928.32 95.3724   2
 -10   4   8 78381.4 893.787   1
  10  -4  -8 78322.5 891.310   1
  10  -4  -8 77756.0 909.123   5
 -10   4   8 80240.1 926.946   4
  10   4  -8 73407.7 876.277   4
 -10  -4   8 79223.8 880.047   4
 -10   4   8 76874.7 909.720   5
  10   4  -8 78631.0 932.990   2
 -10   4   7 19724.8 267.450   1
  10  -4  -7 20211.5 266.387   1
  10  -4  -7 20795.9 287.685   5
 -10   4   7 20426.7 304.693   4
  10   4  -7 19344.4 269.795   4
 -10  -4   7 20411.2 272.233   4
 -10   4   6 2776.77 63.5681   1
  10  -4  -6 3012.78 64.3921   1
  10   4  -6 2924.00 75.3911   4
 -10   4   6 2974.69 90.7156   4
  10  -4  -6 3158.45 80.0452   5
 -10  -4   6 2907.74 75.5420   4
  10  -4  -5 501.627 21.5054   1
 -10   4   5 486.009 21.6792   1
  10   4  -5 537.433 33.6099   4
 -10   4   5 556.517 41.3564   4
  10  -4  -5 512.515 31.0752   5
 -10  -4   5 489.042 32.5954   4
  10  -4  -4 22322.5 295.854   5
  10   4  -4 22232.0 313.479   4
 -10   4   4 22509.9 330.948   4
 -10  -4   4 22702.8 314.751   4
 -10   4   3 1554.72 67.5493   4
  10  -4  -3 1563.83 50.2305   5
 -10  -4   3 1588.85 62.1593   4
 -10  -4   2 15516.9 227.380   1
 -10   4   2 15438.2 258.988   4
 -10  -4   2 16096.4 251.811   4
 -10  -4   1 201.700 22.1059   1
 -10   4   1 162.205 27.8222   4
 -10  -4   1 204.286 29.1133   4
 -10   4   1 188.511 12.3085   3
 -10  -4   0 11441.6 182.615   1
 -10   4   0 11680.0 216.693   4
 -10  -4   0 11242.7 210.556   4
 -10  -4   0 11495.6 208.317   3
 -10  -4  -1 10355.9 172.120   1
 -10   4  -1 10215.8 203.815   4
 -10  -4  -1 10673.3 206.472   4
 -10  -4  -1 10211.6 197.084   3
  10  -4   2 4226.31 66.6097   1
 -10  -4  -2 4304.20 100.236   1
 -10   4  -2 4272.85 122.335   4
 -10  -4  -2 4165.47 122.176   4
 -10  -4  -2 4155.74 116.147   3
  10  -4   3 3172.87 62.8127   1
 -10  -4  -3 3361.90 89.7483   1
 -10   4  -3 2953.03 104.457   4
 -10  -4  -3 3301.08 112.048   4
 -10  -4  -3 3095.57 100.992   3
  10  -4   4 5266.58 95.5472   1
 -10  -4  -4 5243.90 121.187   1
 -10   4  -4 5118.83 144.514   4
 -10  -4  -4 5307.66 149.704   4
 -10  -4  -4 5196.17 137.574   3
 -10  -4  -5 1427.70 62.2718   1
  10  -4   5 1350.75 47.3980   1
  10   4   5 1478.10 50.9008   5
 -10  -4  -5 1405.72 71.1746   3
 -10  -4  -5 1431.95 78.7184   4
 -10   4  -5 1392.46 75.5734   4
 -10  -4  -6 3026.79 95.6822   1
  10   4   6 3057.28 80.9137   5
 -10  -4  -6 2860.52 114.742   4
 -10   4  -6 3063.05 113.320   4
 -10  -4  -6 2953.22 106.427   3
 -10  -4  -7 80.3377 25.7351   1
  10   4   7 49.8788 21.7609   5
 -10   4  -7 74.1384 31.1511   4
 -10  -4  -7 30.8147 29.0460   4
 -10  -4  -8 75.3832 23.5064   1
  10   4   8 155.879 28.6286   5
 -10   4  -8 116.463 35.8208   4
 -10  -4  -8 63.2968 33.5873   4
 -10  -4  -9 2062.67 88.2935   1
 -10  -4  -9 1903.34 103.190   4
 -10   4  -9 1910.23 98.5757   4
 -10  -4 -10 6513.83 168.717   1
 -10   4 -10 6249.02 184.904   4
 -10  -4 -10 6217.30 194.801   4
 -10  -4 -11 674.639 57.9118   1
 -10   4 -11 647.611 63.1466   4
 -10  -4 -11 573.881 65.5702   4
 -10   4 -12 3645.09 147.678   4
 -10  -4 -12 3596.58 152.556   4
 -10   4 -13 179.128 49.4913   4
 -10   4 -14 366.486 55.6302   4
  10   6 -22 447.887 63.6329   2
  10   6 -21 5036.49 179.530   2
 -10   6  21 5312.91 191.121   5
  10   6 -20 137.349 38.9078   2
 -10   6  20 135.752 48.1257   5
  10  -6 -20 138.002 41.1661   1
  10   6 -19 1338.31 88.2628   2
 -10   6  19 1320.34 92.9567   5
  10  -6 -19 1203.56 84.3469   1
  10  -6 -18 424.893 38.5049   2
  10   6 -18 438.494 54.4325   2
 -10   6  18 438.571 58.0923   5
  10  -6 -18 444.790 55.2633   1
  10  -6 -17 315.515 33.4581   2
  10   6 -17 326.331 47.4227   2
 -10   6  17 412.029 56.3533   5
  10  -6 -17 425.916 52.8721   1
  10  -6 -16 2156.36 77.9773   2
  10   6 -16 2253.99 102.451   2
 -10   6  16 2138.81 102.157   5
  10  -6 -16 2420.43 103.193   1
  10  -6 -15 24.8452 18.1640   2
  10   6 -15 20.2715 27.0251   2
 -10   6  15 11.3925 31.2212   5
  10  -6 -15 62.5534 30.4187   1
  10  -6 -14 111.757 24.2236   2
  10   6 -14 141.549 36.5560   2
  10  -6 -14 106.829 29.2121   1
 -10   6  14 110.331 35.1268   5
  10   6 -13 13971.2 264.789   2
  10  -6 -13 13725.5 251.228   1
 -10   6  13 13878.3 263.210   5
  10  -6 -13 13604.9 225.722   2
  10   6 -12 1093.26 65.6144   2
  10  -6 -12 1080.60 59.0317   1
 -10   6  12 973.167 62.7451   5
  10  -6 -12 1023.19 51.8324   2
  10   6 -11 8861.42 190.918   2
  10  -6 -11 8589.17 174.101   1
 -10   6  11 8823.38 187.076   5
 -10  -6  11 8714.02 110.853   4
  10   6 -10 16366.8 279.661   2
  10  -6 -10 16276.6 256.603   1
 -10   6  10 15975.4 271.718   5
 -10  -6  10 16227.5 203.100   4
 -10   6   9 2406.10 76.5687   1
  10  -6  -9 2507.04 77.0697   1
  10   6  -9 2618.11 92.0405   2
 -10  -6   9 2580.05 57.0009   4
  10   6  -8 1632.02 71.7394   2
 -10   6   8 1555.95 56.7747   1
  10  -6  -8 1598.33 56.7905   1
  10   6  -8 1456.18 45.7697   4
 -10  -6   8 1639.50 47.5621   4
  10  -6  -7 20428.3 277.190   1
 -10   6   7 19953.6 278.324   1
  10   6  -7 19189.2 268.902   4
 -10   6   7 20945.6 318.842   4
 -10  -6   7 21059.0 273.514   4
  10   6  -7 21081.3 317.821   2
  10  -6  -6 2954.85 69.1594   1
 -10   6   6 2743.68 68.8963   1
  10   6  -6 2726.17 72.8951   4
 -10   6   6 3056.09 96.8161   4
 -10  -6   6 2954.74 75.3375   4
  10   6  -6 3197.05 96.5079   2
  10  -6  -5 12222.0 171.946   1
  10   6  -5 12046.5 194.946   4
 -10   6   5 12344.5 223.086   4
  10  -6  -5 12273.1 202.419   5
 -10  -6   5 12260.5 195.384   4
  10  -6  -4 3004.71 60.0766   1
  10   6  -4 2897.93 82.7152   4
 -10   6   4 3161.45 100.704   4
  10  -6  -4 3116.64 85.0056   5
 -10  -6   4 2961.96 83.8178   4
  10  -6  -3 161.808 12.3849   1
 -10   6   3 132.625 26.1266   4
 -10  -6   3 156.137 23.5749   4
 -10   6   3 127.742 7.80041   3
  10  -6  -2 16708.1 198.928   1
 -10  -6   2 16532.2 256.343   1
 -10   6   2 16627.1 278.282   4
 -10  -6   2 17093.4 269.327   4
  10  -6  -1 27516.0 308.977   1
 -10  -6   1 27277.5 376.798   1
 -10   6   1 27858.5 404.614   4
 -10  -6   1 26905.6 325.560   5
 -10  -6   1 27816.0 394.334   4
  10  -6   0 2678.69 44.8758   1
  10  -6   0 2587.71 45.2053   1
 -10  -6   0 2603.46 81.2951   1
 -10  -6   0 2506.45 54.3425   5
 -10   6   0 2721.03 94.9493   4
 -10  -6   0 2765.80 93.6550   4
 -10  -6   0 2676.93 95.3714   3
 -10  -6  -1 10490.9 189.619   1
  10  -6   1 10563.0 136.361   1
 -10   6  -1 10097.5 207.098   4
 -10  -6  -1 10534.5 210.620   4
 -10  -6  -1 10456.4 210.606   3
  10  -6   2 38.1711 9.98112   1
 -10  -6  -2 28.8100 20.4335   1
 -10   6  -2 26.2455 23.7683   4
 -10  -6  -2 36.3396 27.1828   3
 -10  -6  -2 50.5520 25.7989   4
  10  -6   3 7699.90 120.036   1
 -10  -6  -3 7877.57 162.168   1
 -10   6  -3 7607.48 178.163   4
 -10  -6  -3 7653.41 178.496   3
 -10  -6  -3 7255.73 180.087   4
  10  -6   4 1352.25 44.7150   1
 -10  -6  -4 1402.03 65.0608   1
 -10   6  -4 1313.07 72.4270   4
 -10  -6  -4 1501.65 79.8928   4
 -10  -6  -4 1386.78 73.4380   3
 -10  -6  -5 1925.40 78.4066   1
 -10   6  -5 2002.59 91.2457   4
 -10  -6  -5 1932.58 93.5730   4
 -10  -6  -5 1681.17 84.2978   3
 -10  -6  -6 7.35199 25.9033   1
 -10  -6  -6 43.6631 29.9895   3
 -10  -6  -6 67.8712 35.3712   4
 -10   6  -6 50.8574 30.4695   4
 -10  -6  -7 15320.9 273.522   1
 -10  -6  -7 14840.6 292.534   3
 -10   6  -7 14822.9 290.620   4
 -10  -6  -7 14490.0 302.587   4
 -10  -6  -8 1009.02 64.2805   1
 -10  -6  -8 1041.05 78.0929   4
 -10   6  -8 1016.46 70.1691   4
 -10  -6  -9 5125.59 149.496   1
 -10  -6  -9 5113.85 172.322   4
 -10   6  -9 4779.88 156.598   4
 -10  -6 -10 515.340 52.7565   1
 -10   6 -10 570.161 60.1858   4
 -10  -6 -11 33.5273 32.7327   1
 -10   6 -11 38.8006 37.7633   4
 -10  -6 -12 2099.80 105.055   1
 -10   6 -12 2109.74 111.787   4
 -10   6 -13 4049.74 158.047   4
  10   8 -21 1138.08 90.1816   2
  10  -8 -21 1112.78 91.1524   1
  10   8 -20 12.1850 34.7537   2
 -10   8  20 62.1469 47.7126   5
  10  -8 -20 71.2219 41.4673   1
  10   8 -19 823.615 75.2733   2
 -10   8  19 943.358 83.5737   5
  10  -8 -19 774.926 73.0030   1
  10   8 -18 1505.20 93.2213   2
 -10   8  18 1402.24 93.5723   5
  10  -8 -18 1566.71 93.9641   1
  10   8 -17 84.9480 37.0447   2
 -10   8  17 125.721 45.2514   5
  10  -8 -17 54.7819 33.5360   1
  10   8 -16 9565.41 231.807   2
 -10   8  16 9662.08 235.384   5
  10  -8 -16 9393.73 223.268   1
  10   8 -15 2327.06 106.154   2
  10  -8 -15 2539.39 78.6841   2
 -10   8  15 2446.46 110.800   5
  10  -8 -15 2422.83 103.538   1
  10   8 -14 2365.79 103.435   2
  10  -8 -14 2391.70 75.0289   2
  10  -8 -14 2337.63 97.2732   1
 -10   8  14 2443.87 107.117   5
  10   8 -13 2438.65 103.535   2
  10  -8 -13 2416.00 95.8113   1
 -10   8  13 2608.76 107.488   5
  10  -8 -13 2365.55 74.7047   2
  10   8 -12 556.241 52.6071   2
  10  -8 -12 590.607 47.3087   1
  10   8 -11 2368.08 96.1468   2
  10  -8 -11 2188.60 83.7633   1
  10   8 -10 8339.98 186.899   2
  10  -8 -10 8083.83 167.844   1
  10   8  -9 3384.65 109.684   2
  10  -8  -9 3427.31 95.7299   1
  10   8  -9 3135.59 62.9838   4
  10   8  -8 9925.79 198.248   2
  10  -8  -8 9853.69 175.649   1
  10   8  -8 9370.49 146.498   4
 -10   8   8 9687.81 168.648   3
  10   8  -7 8751.48 180.492   2
 -10   8   7 8446.14 156.349   1
  10  -8  -7 8778.59 156.627   1
  10   8  -7 8057.59 139.941   4
 -10  -8   7 8676.90 143.013   4
 -10   8   7 8346.63 145.456   3
  10   8  -6 1427.03 66.8670   2
  10  -8  -6 1371.84 51.8224   1
  10   8  -6 1380.67 51.1110   4
 -10   8   6 1425.56 70.2967   4
 -10  -8   6 1473.37 53.0581   4
 -10   8   6 1301.07 44.3564   3
  10  -8  -5 7018.26 124.205   1
 -10   8   5 7201.67 164.755   4
  10   8  -5 6503.26 131.148   4
  10   8  -5 6805.13 151.232   2
 -10   8   5 6389.86 106.517   3
 -10  -8   5 6812.77 134.083   4
  10  -8  -4 6497.12 115.196   1
 -10   8   4 6802.03 158.950   4
 -10  -8   4 6476.88 135.759   4
 -10   8   4 6257.69 91.4413   3
  10   8  -4 6763.03 147.682   2
  10  -8  -3 1569.16 47.3697   1
 -10   8   3 1509.59 73.2562   4
 -10  -8   3 1564.53 64.2228   4
  10  -8  -2 5294.09 94.3399   1
 -10  -8   2 5250.74 131.182   1
 -10   8   2 5377.60 141.018   4
 -10  -8   2 5229.35 128.883   4
 -10  -8   1 2026.20 78.7155   1
  10  -8  -1 2078.20 52.1208   1
 -10   8   1 2062.49 85.1811   4
 -10  -8   1 1899.22 57.2598   5
 -10  -8   1 1933.51 78.9978   4
  10  -8   0 1169.09 38.3833   1
 -10  -8   0 1122.43 59.5099   1
 -10   8   0 1160.36 65.4171   4
 -10  -8   0 1118.79 42.3929   5
 -10  -8   0 1044.74 60.1863   4
 -10  -8   0 1167.42 68.3838   3
 -10  -8  -1 9548.78 193.077   1
  10  -8   1 9802.22 146.320   1
 -10  -8  -1 9424.22 154.798   5
 -10   8  -1 9513.31 204.442   4
 -10  -8  -1 9520.32 203.330   4
 -10  -8  -1 9257.57 208.175   3
 -10  -8  -2 2265.05 85.5173   1
  10  -8   2 2221.26 57.4472   1
 -10  -8  -2 2139.69 62.6534   5
 -10   8  -2 2345.42 94.4941   4
 -10  -8  -2 2432.16 99.0138   3
 -10  -8  -2 2299.19 94.6129   4
 -10  -8  -3 2838.20 98.9776   1
 -10   8  -3 2626.35 103.339   4
 -10  -8  -3 2746.19 108.429   3
 -10  -8  -3 2745.56 107.995   4
 -10  -8  -4 150.307 30.7556   1
 -10   8  -4 122.251 33.0377   4
 -10  -8  -4 132.026 33.0719   4
 -10  -8  -4 130.006 35.7383   3
 -10  -8  -5 1516.25 76.7943   1
 -10   8  -5 1520.93 81.7690   4
 -10  -8  -5 1430.36 83.7676   3
 -10  -8  -5 1394.83 83.1468   4
 -10  -8  -6 10277.8 219.721   1
 -10   8  -6 10075.3 228.035   4
 -10  -8  -6 10131.0 237.303   3
 -10  -8  -6 10221.2 240.312   4
 -10  -8  -7 1966.52 91.9156   1
 -10   8  -7 1886.10 94.1012   4
 -10  -8  -7 1822.22 96.9172   3
 -10  -8  -8 46.9158 27.2350   1
 -10   8  -8 83.7426 33.6503   4
 -10  -8  -8 44.9960 31.8522   3
 -10  -8  -9 541.833 56.1039   1
 -10   8  -9 395.120 50.5509   4
 -10  -8 -10 3678.47 137.893   1
 -10   8 -10 3531.47 138.399   4
 -10  -8 -11 181.436 41.1355   1
 -10   8 -11 219.598 44.4279   4
 -10  -8 -12 678.811 67.4414   1
 -10   8 -12 615.395 67.6369   4
  10 -10 -20 23.7468 40.1891   1
  10  10 -19 3127.74 142.426   2
 -10  10  19 3158.64 147.054   5
  10 -10 -19 3154.66 141.132   1
  10  10 -18 7804.48 222.502   2
 -10  10  18 7385.11 222.451   5
  10 -10 -18 7254.02 211.147   1
  10  10 -17 280.791 48.7861   2
 -10  10  17 323.428 58.2477   5
  10 -10 -17 257.349 45.5836   1
  10 -10 -16 3084.19 126.179   1
  10  10 -16 3123.04 132.337   2
  10 -10 -15 5528.94 165.878   1
  10  10 -15 5670.21 174.700   2
  10 -10 -14 2468.00 104.697   1
  10  10 -14 2811.17 117.243   2
  10 -10 -13 979.020 64.1139   1
  10  10 -13 978.633 69.1917   2
  10 -10 -13 1041.77 47.4756   2
  10  10 -12 5540.52 160.521   2
  10 -10 -12 5355.48 147.379   1
  10  10 -11 809.807 60.6916   2
  10 -10 -11 700.150 52.2631   1
  10  10 -10 14061.5 267.517   2
  10 -10 -10 13905.0 250.098   1
  10  10  -9 1883.15 84.5958   2
  10 -10  -9 1820.61 74.7651   1
  10  10  -9 1620.71 43.0203   4
  10  10  -8 2145.96 88.4181   2
  10 -10  -8 2016.38 75.9094   1
  10  10  -8 1921.08 54.6198   4
 -10  10   8 1897.25 66.8435   3
  10  10  -7 3744.89 115.299   2
  10 -10  -7 3772.44 101.196   1
  10  10  -7 3406.47 82.7209   4
 -10  10   7 3532.47 87.3069   3
  10  10  -6 1139.76 62.2380   2
  10 -10  -6 1194.66 54.0761   1
  10  10  -6 1093.08 47.7819   4
 -10  10   6 1048.54 41.9843   3
  10  10  -5 27820.8 406.811   2
 -10  10   5 28796.7 433.546   4
  10 -10  -5 28257.6 379.556   1
  10  10  -4 391.890 39.8004   2
  10 -10  -4 330.709 28.9028   1
 -10  10   4 295.187 40.9270   4
  10 -10  -3 1239.51 49.8310   1
 -10  10   3 1233.16 70.2354   4
  10  10  -3 1163.62 61.2318   2
  10 -10  -2 26546.3 349.116   1
 -10 -10   2 26512.2 403.893   1
 -10  10   2 26512.2 412.241   4
  10  10  -2 26388.0 380.267   2
  10  10  -1 131.453 28.2639   2
 -10 -10   1 62.8074 26.6291   1
  10 -10  -1 94.7752 19.2891   1
 -10 -10   1 102.224 23.0952   5
 -10  10   1 114.713 30.3592   4
  10 -10   0 9800.62 161.904   1
 -10 -10   0 9866.08 207.692   1
 -10  10   0 9780.78 211.449   4
 -10 -10   0 9289.51 168.924   5
 -10 -10   0 9591.41 218.796   3
  10 -10   1 12176.6 191.378   1
 -10 -10  -1 12144.8 240.596   1
 -10  10  -1 12290.8 246.436   4
 -10 -10  -1 12056.3 255.696   3
 -10 -10  -2 2643.60 101.648   1
 -10  10  -2 2609.22 104.051   4
 -10 -10  -2 2539.26 108.965   3
 -10 -10  -3 8104.55 190.957   1
 -10  10  -3 8193.16 195.995   4
 -10 -10  -3 8358.94 208.021   3
 -10 -10  -4 6871.88 176.499   1
 -10  10  -4 6750.06 178.150   4
 -10 -10  -4 6757.64 190.422   3
 -10 -10  -5 2395.69 103.473   1
 -10  10  -5 2300.49 102.492   4
 -10 -10  -5 2414.04 112.782   3
 -10 -10  -6 907.032 67.2061   1
 -10  10  -6 817.101 62.6106   4
 -10 -10  -6 856.268 71.3658   3
 -10 -10  -7 6176.65 176.584   1
 -10  10  -7 6074.84 175.955   4
 -10 -10  -7 6080.70 189.155   3
 -10 -10  -8 196.447 41.1842   1
 -10 -10  -8 185.186 41.9929   3
 -10  10  -8 207.395 42.1404   4
 -10 -10  -9 2957.71 126.714   1
 -10  10  -9 2881.42 122.495   4
 -10 -10 -10 1648.01 98.7567   1
 -10  10 -10 1739.91 97.4101   4
 -10 -10 -11 335.365 52.8404   1
 -10  10 -11 235.929 45.6905   4
 -10 -10 -12 1723.53 104.025   1
  10 -12 -19 1556.94 104.354   1
  10  12 -18 1535.18 102.682   2
  10 -12 -18 1387.68 94.6266   1
  10  12 -17 244.341 50.8435   2
  10 -12 -17 237.175 48.5650   1
  10  12 -16 3382.61 141.645   2
  10 -12 -16 3393.83 137.339   1
  10  12 -15 1263.46 88.1254   2
  10 -12 -15 1170.02 80.3645   1
  10  12 -14 1471.28 89.2112   2
  10 -12 -14 1513.89 86.1562   1
  10  12 -13 6592.29 188.430   2
  10 -12 -13 6569.31 179.145   1
  10  12 -12 1910.92 95.8015   2
  10 -12 -12 1736.46 87.1641   1
  10  12 -11 64.0469 34.9300   2
  10 -12 -11 21.4819 23.2503   1
  10  12 -10 810.180 61.4441   2
  10 -12 -10 712.922 53.5634   1
  10  12  -9 110.262 29.3194   2
  10 -12  -9 119.793 28.0214   1
  10  12  -8 1106.97 67.1703   2
  10 -12  -8 1086.83 60.5031   1
  10  12  -7 10352.7 216.499   2
  10 -12  -7 10686.5 205.134   1
  10  12  -6 89.2185 28.4140   2
  10 -12  -6 97.7640 27.3727   1
  10  12  -5 11922.8 229.994   2
 -10  12   5 12180.4 252.814   4
  10 -12  -5 12386.3 217.396   1
  10  12  -4 1331.56 66.9697   2
 -10  12   4 1376.71 79.0229   4
  10 -12  -4 1339.55 60.3095   1
  10  12  -3 390.596 38.9741   2
 -10  12   3 351.672 43.7374   4
  10 -12  -3 327.721 34.7116   1
 -10 -12   3 338.276 46.0781   1
  10  12  -2 13381.5 235.270   2
  10 -12  -2 13742.7 225.894   1
 -10 -12   2 13354.3 266.932   1
 -10  12   2 13713.5 270.935   4
  10  12  -1 2686.18 89.7146   2
 -10 -12   1 2803.71 111.378   1
  10 -12  -1 2777.87 83.9339   1
 -10  12   1 2699.73 109.473   4
 -10 -12   1 2775.69 117.213   3
  10  12   0 51.5771 22.3822   2
  10 -12   0 34.5591 19.8810   1
 -10 -12   0 132.159 35.9107   1
 -10  12   0 85.5840 29.9211   4
 -10 -12   0 105.172 35.4192   3
  10 -12   1 9994.01 180.713   1
 -10 -12  -1 9702.17 224.031   1
 -10  12  -1 9647.95 222.496   4
 -10 -12  -1 9475.68 232.860   3
  10  12   1 9902.52 185.816   2
  10  12   2 273.954 31.0559   2
 -10 -12  -2 220.664 40.5720   1
  10 -12   2 225.244 33.3415   1
 -10  12  -2 214.386 37.5739   4
 -10 -12  -2 253.627 45.0244   3
 -10 -12  -3 6929.30 186.692   1
 -10  12  -3 6693.17 182.355   4
  10  12   3 7248.09 147.788   2
 -10 -12  -3 7041.18 199.500   3
 -10 -12  -4 4866.04 156.021   1
 -10  12  -4 5264.00 159.221   4
 -10 -12  -4 5271.00 173.305   3
 -10 -12  -5 149.232 37.4697   1
 -10  12  -5 175.677 39.2274   4
 -10 -12  -5 113.043 36.4757   3
 -10 -12  -6 955.881 73.4721   1
 -10  12  -6 906.616 67.9009   4
 -10 -12  -6 962.280 79.8906   3
 -10 -12  -7 4729.32 163.317   1
 -10  12  -7 4747.21 157.200   4
 -10 -12  -7 4717.51 173.772   3
 -10 -12  -8 1532.37 94.1447   1
 -10  12  -8 1609.50 92.6130   4
 -10 -12  -8 1614.80 104.551   3
 -10 -12  -9 3023.98 135.124   1
 -10  12  -9 3127.36 130.169   4
 -10 -12 -10 134.711 48.7202   1
 -10 -12 -11-61.0766 39.9529   1
  10 -14 -17 508.186 64.8160   1
  10  14 -16 7172.65 219.653   2
  10 -14 -16 6689.44 205.329   1
  10  14 -15 154.083 45.2268   2
  10 -14 -15 53.8815 33.9327   1
  10  14 -14 851.224 73.4864   2
  10 -14 -14 874.296 72.1283   1
  10  14 -13 309.688 48.5312   2
  10 -14 -13 130.874 35.4311   1
  10  14 -12 703.905 65.5972   2
  10 -14 -12 649.995 60.4732   1
  10  14 -11-47.1686 31.6048   2
  10 -14 -11-6.33594 29.8060   1
  10  14 -10 13943.4 284.432   2
  10 -14 -10 13833.8 275.004   1
  10  14  -9 280.702 41.3857   2
  10 -14  -9 218.336 36.8591   1
  10  14  -8 8362.22 200.508   2
  10 -14  -8 8512.38 193.979   1
  10  14  -7 439.391 44.9499   2
  10 -14  -7 520.144 47.7176   1
  10  14  -6 458.583 46.7064   2
  10 -14  -6 404.776 40.0648   1
  10  14  -5 248.412 37.6069   2
 -10  14   5 243.162 44.7374   4
  10 -14  -5 223.976 33.6243   1
  10  14  -4 12728.6 238.136   2
 -10  14   4 12929.3 270.791   4
  10 -14  -4 11441.6 224.084   1
  10  14  -3 257.743 35.2824   2
  10 -14  -3 293.749 36.2616   1
 -10 -14   3 323.113 52.5192   1
 -10  14   3 239.173 40.5719   4
  10  14  -2 7840.64 171.777   2
  10 -14  -2 8247.89 174.395   1
 -10 -14   2 8025.64 209.297   1
 -10  14   2 7784.75 201.856   4
 -10 -14   2 8014.33 214.739   3
  10  14  -1 4710.68 124.037   2
 -10 -14   1 4464.90 152.383   1
  10 -14  -1 4764.08 125.069   1
 -10  14   1 4788.90 153.116   4
 -10 -14   1 4810.03 162.490   3
  10  14   0 637.704 44.5809   2
 -10 -14   0 642.309 60.6444   1
  10 -14   0 722.817 49.7583   1
 -10  14   0 595.320 57.7791   4
 -10 -14   0 551.879 61.6121   3
  10 -14   1 206.567 30.5367   1
 -10 -14  -1 211.992 43.2098   1
 -10  14  -1 250.973 41.1874   4
 -10 -14  -1 222.490 43.6393   3
 -10 -14  -2 2254.49 110.364   1
 -10  14  -2 2377.58 109.625   4
 -10 -14  -2 2365.90 117.907   3
 -10 -14  -3 37.9531 36.6185   1
 -10  14  -3-3.11154 29.6636   4
 -10 -14  -3-22.8499 34.6751   3
 -10 -14  -4 7111.19 206.082   1
 -10  14  -4 7134.77 196.883   4
 -10 -14  -4 7669.35 223.791   3
 -10 -14  -5 98.2155 39.3416   1
 -10  14  -5 99.0251 36.1801   4
 -10 -14  -5 220.944 46.8568   3
 -10 -14  -6 2695.16 127.130   1
 -10  14  -6 2533.38 117.599   4
 -10 -14  -6 2620.96 132.846   3
 -10 -14  -7 123.614 48.3315   1
 -10 -14  -7 134.967 44.6553   3
 -10  14  -7 138.638 40.5239   4
 -10 -14  -8 56.8307 42.9316   1
 -10 -14  -9 1460.21 100.545   1
  10 -16 -16 307.464 56.1476   1
  10  16 -15 295.139 57.1731   2
  10 -16 -15 348.384 58.5819   1
  10  16 -14 722.458 72.0076   2
  10 -16 -14 827.758 72.2951   1
  10  16 -13 4143.96 158.048   2
  10 -16 -13 3728.37 147.974   1
  10  16 -12 68.6306 36.4947   2
  10 -16 -12 115.393 40.2764   1
  10  16 -11 2272.15 112.782   2
  10 -16 -11 2381.00 111.589   1
  10  16 -10 63.1604 33.4255   2
  10 -16 -10-30.8617 30.8313   1
  10  16  -9 95.8279 34.4487   2
  10 -16  -9 154.701 38.4469   1
  10  16  -8 963.880 69.1340   2
  10 -16  -8 938.672 67.1945   1
  10  16  -7 6855.78 181.650   2
  10 -16  -7 6724.08 178.215   1
  10  16  -6 91.9423 31.2181   2
  10 -16  -6 121.875 33.4391   1
  10  16  -5 6953.07 174.176   2
 -10  16   5 6817.17 199.021   4
  10 -16  -5 6873.91 174.391   1
  10  16  -4 504.711 48.2595   2
  10 -16  -4 614.635 53.5733   1
 -10 -16   4 615.586 71.3260   1
 -10  16   4 618.856 66.3103   4
  10  16  -3 195.738 33.3370   2
  10 -16  -3 193.974 37.5480   1
 -10 -16   3 132.340 39.6937   1
 -10  16   3 228.892 44.4008   4
 -10 -16   3 267.135 52.2809   3
 -10 -16   2 33.2654 36.6916   1
  10 -16  -2 9.52104 25.5059   1
 -10  16   2 0.87581 31.9011   4
 -10 -16   2 57.6978 36.2380   3
 -10 -16   1 4166.14 157.012   1
  10 -16  -1 4211.14 128.382   1
 -10  16   1 4079.56 150.286   4
 -10 -16   1 4014.44 158.067   3
 -10 -16   0 221.540 48.0384   1
 -10  16   0 175.996 42.6318   4
 -10 -16   0 268.221 51.7908   3
 -10 -16  -1 3988.17 155.503   1
 -10  16  -1 3944.99 145.369   4
 -10 -16  -1 3913.64 159.058   3
 -10 -16  -2 276.707 49.0840   1
 -10  16  -2 344.087 47.4693   4
 -10 -16  -2 299.373 57.8292   3
 -10 -16  -3 1202.87 89.3952   1
 -10  16  -3 1065.86 78.5137   4
 -10 -16  -3 1176.13 92.0204   3
 -10 -16  -4 148.655 42.9044   1
 -10  16  -4 125.896 39.1782   4
 -10 -16  -4 166.590 47.3466   3
 -10 -16  -5 86.3199 41.9889   1
 -10  16  -5 111.848 39.2181   4
 -10 -16  -6 279.129 55.1563   1
 -10  16  -6 297.984 50.0666   4
  10  18 -13 592.268 71.4381   2
  10 -18 -13 558.774 68.8142   1
  10  18 -12 537.308 63.5417   2
  10 -18 -12 617.847 67.9690   1
  10  18 -11 147.837 42.4980   2
  10 -18 -11 126.601 41.5486   1
  10  18 -10 1751.82 101.002   2
  10 -18 -10 1810.01 102.797   1
  10  18  -9 398.449 53.2730   2
  10 -18  -9 348.877 50.6993   1
  10  18  -8 2186.51 106.528   2
  10 -18  -8 2391.33 113.257   1
  10  18  -7 11.7876 31.1173   2
  10 -18  -7 54.4016 35.8455   1
  10  18  -6 457.325 50.2116   2
  10 -18  -6 409.530 50.0695   1
  10 -18  -5 1268.61 79.6329   1
 -10 -18   5 1417.02 103.235   1
 -10  18   5 1488.99 97.2366   4
  10 -18  -4 3958.06 136.797   1
 -10 -18   4 3924.05 161.815   1
 -10  18   4 4061.37 158.149   4
 -10 -18   4 4114.17 164.082   3
 -10 -18   3 1306.10 98.9274   1
 -10  18   3 1143.74 85.0789   4
 -10 -18   3 1217.88 95.7772   3
 -10 -18   2 5410.54 191.203   1
 -10  18   2 5349.12 179.891   4
 -10 -18   2 5403.97 192.134   3
 -10 -18   1 199.073 52.4169   1
 -10  18   1 129.553 42.2691   4
 -10 -18   1 184.131 52.7678   3
 -10 -18   0 174.250 47.0313   1
 -10  18   0 86.7196 38.4224   4
 -10 -18   0 199.407 52.4183   3
 -10  18  -1 535.751 62.3749   4
 -10 -18  -1 617.172 74.5005   1
 -10  18  -2 149.853 44.0541   4
 -10 -18  -2 172.840 51.4434   1
 -10  18  -3 27.0224 36.8618   4
 -10  18  -4 4592.10 165.031   4
  10  20 -10 42.4415 41.8161   2
  10 -20 -10-17.4072 36.8312   1
  10  20  -9 203.854 44.9442   2
  10 -20  -9 226.247 48.1801   1
  10 -20  -8 524.612 65.3469   1
  10 -20  -7 1060.74 82.9491   1
 -10  20   4 414.219 64.7969   4
 -10  20   3 71.7657 38.4821   4
 -10  20   2 604.235 72.7171   4
 -10  20   1 416.265 61.1014   4
 -10  20   0 185.054 47.3537   4
 -10  20  -1 4961.75 180.285   4
  11   1 -24 1683.11 101.006   2
  11   1 -23 953.332 76.4507   2
  11  -1 -23 876.724 73.0290   2
  11   1 -22 340.415 50.0478   2
  11  -1 -22 370.557 50.3311   2
 -11   1  22 554.693 70.0409   5
 -11  -1  22 349.676 59.3228   5
  11  -1 -21 45.4350 31.2000   2
  11   1 -21 57.0171 32.8652   2
 -11   1  21 152.916 50.2225   5
 -11  -1  21 93.3173 39.4963   5
  11  -1 -20 4756.88 149.432   2
  11   1 -20 4763.85 154.455   2
 -11   1  20 4765.22 167.614   5
 -11  -1  20 4655.23 164.318   5
  11  -1 -19 408.715 47.1982   2
  11   1 -19 450.706 50.4831   2
 -11   1  19 422.911 55.1911   5
 -11  -1  19 338.594 53.0007   5
  11  -1 -18-1.12754 26.7015   2
  11   1 -18 39.8715 27.8339   2
 -11   1  18 11.4002 32.8256   5
 -11  -1  18-9.59479 33.4269   5
  11  -1 -17 4783.96 139.305   2
  11   1 -17 4684.56 142.642   2
 -11   1  17 5023.42 154.451   5
 -11  -1  17 4798.82 149.573   5
  11  -1 -16 1299.03 69.3106   2
  11   1 -16 1295.07 72.5628   2
 -11   1  16 1444.51 80.0628   5
 -11  -1  16 1366.48 75.5299   5
  11  -1 -15 4187.78 122.837   2
  11   1 -15 4175.08 127.243   2
 -11   1  15 4143.15 129.933   5
 -11  -1  15 4282.03 99.3027   4
  11  -1 -14 106.142 27.4817   2
  11   1 -14 26.6481 23.8648   2
 -11   1  14 137.969 33.1161   5
 -11  -1  14 70.6353 18.1162   4
  11  -1 -13 3260.06 103.386   2
  11   1 -13 3389.25 108.522   2
 -11   1  13 3503.92 108.811   5
 -11  -1  13 3375.52 85.1685   4
  11   1 -12 1941.88 80.2095   2
 -11   1  12 2061.31 78.3015   5
 -11   1  12 2090.81 70.8773   4
 -11  -1  12 2014.66 63.3532   4
  11  -1 -12 2014.06 78.3489   2
 -11   1  11 20608.5 310.846   5
 -11  -1  11 20508.3 306.992   5
 -11  -1  11 21225.8 290.369   4
 -11   1  11 21192.3 303.478   4
  11  -1 -11 20158.6 317.040   2
  11   1 -11 20834.2 324.298   2
 -11   1  10 8463.53 156.836   1
 -11  -1  10 8296.40 155.758   5
 -11  -1  10 8340.65 148.628   4
 -11   1  10 8346.80 157.425   4
 -11   1  10 8222.24 158.276   5
 -11   1   9 5746.69 117.007   1
 -11  -1   9 5736.54 120.463   1
 -11  -1   9 5657.72 116.508   5
 -11  -1   9 5860.93 119.152   4
 -11   1   9 6085.37 128.617   4
 -11   1   9 5753.14 120.196   5
 -11  -1   8 444.836 29.1451   1
 -11   1   8 438.509 27.4604   1
 -11  -1   8 503.687 33.6053   4
 -11   1   8 419.521 32.9367   4
 -11   1   8 479.488 31.0837   5
 -11  -1   8 464.769 29.1869   5
 -11   1   7 1216.22 41.3810   1
 -11  -1   7 1211.28 41.6619   5
 -11   1   7 1066.43 51.3435   4
  11   1  -7 1126.05 49.5026   4
 -11   1   7 1260.22 44.8186   5
 -11  -1   7 1275.30 52.7014   4
 -11   1   6 2186.79 52.5854   1
 -11  -1   6 2413.47 74.6247   4
 -11   1   6 2441.31 78.5085   4
  11   1  -6 2499.00 75.5468   4
 -11   1   6 2388.66 59.1075   5
 -11  -1   6 2241.61 53.1332   5
 -11   1   5 35.9873 8.69922   1
 -11  -1   5 24.4969 9.51076   5
 -11  -1   5 68.4464 21.4523   4
 -11   1   5 23.7060 20.2300   4
 -11   1   4 121.969 9.07300   1
 -11   1   4 170.141 27.1899   4
 -11  -1   4 134.737 25.2529   4
 -11  -1   3 17004.3 216.828   1
 -11   1   3 17546.0 275.596   4
 -11  -1   3 17567.1 272.546   4
 -11  -1   2 978.685 30.0106   1
  11  -1  -2 971.912 22.7420   5
 -11  -1   2 1097.12 56.2529   4
 -11   1   2 1030.89 55.0050   4
 -11  -1   1 21838.1 264.212   1
 -11   1   1 22181.7 335.076   4
  11  -1  -1 21712.2 248.072   5
 -11  -1   1 21709.3 332.655   4
 -11   1   1 21679.2 292.567   3
 -11  -1   0 32176.9 377.756   1
 -11   1   0 32475.2 456.601   4
 -11   1   0 31447.5 404.950   3
 -11  -1   0 32665.5 455.423   4
 -11  -1   0 31991.8 423.700   3
 -11  -1  -1 28.6269 11.1099   1
 -11  -1  -1 53.6149 22.6359   4
 -11  -1  -1 50.6639 17.5408   3
 -11   1  -1 20.8047 13.9998   3
 -11   1  -1 34.2344 25.6790   4
 -11  -1  -2 7098.25 118.287   1
  11   1   2 6876.72 96.1925   5
 -11  -1  -2 7298.87 148.239   3
 -11   1  -2 7241.54 136.070   3
 -11   1  -2 7395.82 172.482   4
 -11  -1  -2 7022.50 168.776   4
  11  -1   3 13900.4 193.287   1
 -11  -1  -3 14576.3 206.702   1
  11   1   3 14293.2 186.085   5
 -11   1  -3 14057.5 221.913   3
 -11  -1  -3 14184.1 237.233   3
 -11   1  -3 14136.9 265.746   4
 -11  -1  -3 14041.6 265.942   4
 -11  -1  -4 4582.56 98.6709   1
  11   1   4 4321.53 98.2677   1
  11  -1   4 4468.68 91.6317   1
  11   1   4 4608.38 86.9884   5
 -11   1  -4 4373.37 136.077   4
 -11  -1  -4 4369.81 115.858   3
 -11  -1  -4 4364.51 136.061   4
 -11  -1  -5 6121.33 125.191   1
  11   1   5 6225.89 114.816   5
 -11  -1  -5 5911.62 167.218   4
 -11   1  -5 6187.03 168.726   4
 -11  -1  -6 84.1639 18.5847   1
  11   1   6 72.2213 19.3799   5
 -11   1  -6 67.7400 30.3170   4
 -11  -1  -6 55.8114 28.7194   4
 -11  -1  -7 5.27334 16.4820   1
  11   1   7 69.1579 22.9049   5
 -11   1  -7 43.7404 30.3253   4
 -11  -1  -7 97.6754 38.3300   4
 -11  -1  -8 18475.2 293.714   1
 -11   1  -8 17723.8 344.012   4
 -11  -1  -8 18132.3 350.034   4
 -11   1  -9 1.28744 30.9156   4
 -11  -1  -9 76.0901 35.8234   4
 -11   1 -10 1793.08 103.737   4
 -11  -1 -10 1907.71 106.575   4
 -11   1 -11 6039.17 194.910   4
 -11  -1 -11 6257.05 201.048   4
 -11  -1 -12 50.7270 41.6189   4
 -11   1 -12 49.3377 39.1391   4
 -11   1 -13 507.114 66.2915   4
  11   3 -23 2093.69 115.623   2
  11   3 -22 111.981 41.7289   2
 -11   3  22 121.993 47.2203   5
  11  -3 -21 446.818 46.6191   2
  11   3 -21 440.605 56.4983   2
 -11   3  21 383.276 58.4051   5
  11  -3 -20 2294.22 98.8798   2
  11   3 -20 2266.23 109.944   2
 -11   3  20 2240.32 115.523   5
  11  -3 -19 423.964 44.1805   2
  11   3 -19 532.743 57.7128   2
 -11   3  19 392.322 55.6269   5
  11  -3 -18 1076.12 64.1900   2
  11   3 -18 934.057 67.9792   2
 -11   3  18 966.594 73.7359   5
  11  -3 -17 6298.28 156.332   2
  11   3 -17 5947.69 168.199   2
 -11   3  17 6154.52 175.926   5
  11  -3 -16 500.597 44.6105   2
  11   3 -16 469.155 51.0084   2
 -11   3  16 525.469 51.9815   5
 -11  -3  16 549.491 29.5827   4
  11  -3 -15 3208.90 103.143   2
  11   3 -15 3312.11 116.173   2
 -11   3  15 3147.23 114.910   5
 -11  -3  15 3488.05 75.1133   4
  11   3 -14 59.4950 28.4646   2
  11  -3 -14 91.2793 25.3610   2
 -11   3  14 79.0555 31.0015   5
 -11  -3  14 81.7930 16.3137   4
  11   3 -13-30.9812 26.9360   2
  11  -3 -13 18.5113 20.8512   2
 -11   3  13 46.2250 26.1340   5
 -11  -3  13 21.4786 12.0098   4
  11   3 -12 2384.00 90.8285   2
 -11  -3  12 2350.66 61.5709   4
 -11   3  12 2393.25 86.8966   5
  11  -3 -12 2321.94 81.9671   2
  11   3 -11 18814.4 307.161   2
 -11  -3  11 18953.5 255.024   4
 -11   3  11 18567.6 294.746   5
 -11   3  10 681.183 39.6975   1
 -11   3  10 710.936 45.5369   4
 -11   3  10 687.580 43.7760   5
 -11  -3  10 728.629 34.9566   4
  11   3 -10 726.562 50.3398   2
 -11   3   9 18339.5 264.451   1
 -11  -3   9 18682.8 257.698   4
 -11   3   9 18740.5 287.563   4
 -11   3   9 17862.2 274.111   5
  11   3  -9 18850.2 298.789   2
 -11   3   8 2296.40 63.9365   1
 -11   3   8 2541.01 83.0450   4
  11   3  -8 2389.07 68.3948   4
 -11   3   8 2470.90 73.9626   5
 -11  -3   8 2360.36 67.7504   4
 -11   3   7 2260.30 57.8979   1
  11  -3  -7 2354.96 67.5928   5
 -11  -3   7 2334.59 69.3761   4
  11   3  -7 2312.49 68.6975   4
 -11   3   7 2437.92 81.8468   4
 -11   3   6 17780.4 230.971   1
  11  -3  -6 18302.6 252.273   5
 -11  -3   6 18737.1 269.310   4
  11   3  -6 18240.4 266.783   4
 -11   3   6 18773.0 286.027   4
 -11   3   5 166.740 12.0062   1
  11  -3  -5 189.373 20.0040   5
  11   3  -5 127.885 21.9773   4
 -11   3   5 177.984 28.4285   4
 -11  -3   5 162.116 23.9042   4
 -11   3   4 4574.02 118.062   4
  11  -3  -4 4470.67 86.0802   5
 -11  -3   4 4359.63 59.4834   5
 -11  -3   4 4727.89 111.581   4
 -11   3   3 39788.0 522.853   4
  11  -3  -3 38530.0 460.209   5
 -11  -3   3 39440.7 512.097   4
 -11  -3   2 11839.3 176.001   1
 -11   3   2 11368.4 213.839   4
  11  -3  -2 11392.8 163.780   5
 -11  -3   2 11526.0 208.596   4
 -11  -3   1 23563.2 305.841   1
 -11   3   1 23950.4 359.113   4
 -11   3   1 23238.0 291.456   3
 -11  -3   1 23243.8 351.501   4
 -11  -3   0 4385.75 91.7430   1
 -11   3   0 4318.91 124.019   4
 -11   3   0 4524.89 83.6586   3
 -11  -3   0 4569.49 116.215   3
 -11  -3   0 4404.81 122.940   4
 -11  -3  -1 1043.75 42.9271   1
 -11   3  -1 1004.91 60.4267   4
 -11  -3  -1 1102.81 57.3639   3
 -11   3  -1 1064.97 37.6341   3
 -11  -3  -1 1071.02 62.0745   4
 -11  -3  -2 6683.16 125.019   1
  11  -3   2 6129.08 84.5075   1
 -11   3  -2 6508.32 161.363   4
 -11  -3  -2 6509.73 161.702   4
 -11  -3  -2 6291.61 145.591   3
 -11  -3  -3 9669.18 166.770   1
  11  -3   3 9247.20 131.749   1
 -11  -3  -3 9284.62 207.493   4
 -11  -3  -3 9545.84 192.115   3
 -11   3  -3 9500.44 207.589   4
  11  -3   4 20.4319 12.6816   1
 -11  -3  -4 13.0153 16.6613   1
  11   3   4 43.2861 14.8689   5
 -11  -3  -4 23.6588 23.3444   3
 -11  -3  -4 11.4913 24.9889   4
 -11   3  -4 15.6751 25.8813   4
 -11  -3  -5 13578.0 224.503   1
  11   3   5 13609.1 197.235   5
 -11  -3  -5 13312.0 273.989   4
 -11   3  -5 13155.2 266.638   4
 -11  -3  -5 13282.7 249.558   3
 -11  -3  -6 6961.13 150.849   1
  11   3   6 6898.71 129.661   5
 -11  -3  -6 6982.81 189.236   4
 -11   3  -6 6730.40 181.917   4
 -11  -3  -7 6341.99 148.397   1
 -11  -3  -7 6428.07 185.157   4
 -11   3  -7 6113.05 177.355   4
 -11  -3  -8 1299.43 66.6822   1
 -11  -3  -8 1178.53 81.7067   4
 -11   3  -8 1115.50 77.3451   4
 -11  -3  -9 2583.02 97.1965   1
 -11   3  -9 2676.23 120.111   4
 -11  -3  -9 2551.33 121.074   4
 -11   3 -10 367.114 51.8497   4
 -11  -3 -10 448.477 59.8603   4
 -11   3 -11 4306.81 162.077   4
 -11  -3 -11 4599.75 172.022   4
 -11   3 -12 331.374 54.5115   4
 -11  -3 -12 313.810 59.4505   4
 -11   3 -13 2826.53 137.910   4
  11   5 -22 2641.21 129.069   2
  11   5 -21 289.581 53.8557   2
 -11   5  21 292.722 58.5687   5
  11   5 -20 2267.56 115.184   2
 -11   5  20 2308.56 119.808   5
  11  -5 -19 298.638 37.9632   2
  11   5 -19 251.328 46.2551   2
 -11   5  19 342.002 53.7527   5
  11  -5 -18 800.602 54.2125   2
  11   5 -18 722.022 65.3618   2
 -11   5  18 738.963 68.1993   5
  11  -5 -17 3968.76 115.675   2
  11   5 -17 4031.51 139.758   2
 -11   5  17 4005.31 142.647   5
  11  -5 -17 3738.95 134.052   1
  11  -5 -16 42.1332 23.4491   2
  11   5 -16 37.8769 30.2825   2
 -11   5  16 31.0253 31.9196   5
  11  -5 -16 59.7201 30.6532   1
  11   5 -15 7572.40 190.539   2
  11  -5 -15 7679.09 164.256   2
 -11   5  15 7647.77 191.666   5
  11  -5 -15 7798.78 184.659   1
  11  -5 -14 17668.5 280.942   2
  11   5 -14 17938.3 315.792   2
  11  -5 -14 18515.6 305.126   1
 -11  -5  14 17354.9 207.433   4
 -11   5  14 17737.9 313.405   5
  11   5 -13 627.837 53.7229   2
  11  -5 -13 649.374 48.2719   1
 -11   5  13 602.935 50.7420   5
 -11  -5  13 595.322 22.1060   4
  11  -5 -13 587.423 43.1657   2
  11   5 -12 6623.03 164.576   2
  11  -5 -12 6631.79 149.433   1
 -11   5  12 6436.85 157.357   5
 -11  -5  12 6616.24 102.182   4
  11   5 -11 3272.08 107.462   2
  11  -5 -11 3150.59 93.5154   1
 -11   5  11 3371.56 105.232   5
 -11  -5  11 3325.99 67.7203   4
  11   5 -10 490.159 44.6935   2
  11  -5 -10 429.476 33.8333   1
 -11   5  10 423.132 40.4635   5
 -11  -5  10 446.866 24.9586   4
 -11   5   9 9654.12 169.466   1
  11  -5  -9 9750.59 168.296   1
 -11   5   9 9738.44 193.020   4
  11   5  -9 9728.99 197.745   2
 -11  -5   9 9970.93 154.265   4
 -11   5   8 37250.9 468.855   1
  11  -5  -8 38812.8 469.335   1
 -11   5   8 39399.2 516.805   4
  11   5  -8 39493.3 518.036   2
 -11  -5   8 38797.1 465.962   4
 -11   5   7 54.6608 12.6565   1
  11  -5  -7 70.4554 14.1958   1
 -11   5   7 30.8698 22.3515   4
  11  -5  -7 108.486 19.9591   5
  11   5  -7 69.3082 15.7233   4
 -11  -5   7 75.2259 17.4584   4
  11  -5  -6 41658.3 478.826   1
 -11   5   6 39706.6 479.375   1
  11   5  -6 40485.8 511.538   4
 -11   5   6 41366.1 545.590   4
  11  -5  -6 41028.0 513.346   5
 -11  -5   6 41484.3 511.413   4
  11  -5  -5 811.162 26.7552   1
  11   5  -5 752.715 41.5195   4
  11  -5  -5 772.793 40.4976   5
 -11   5   5 729.142 48.8391   4
 -11  -5   5 770.914 43.0531   4
 -11   5   4 3031.20 98.3654   4
  11  -5  -4 3023.79 78.9116   5
 -11  -5   4 3065.34 88.8371   4
  11  -5  -3 783.472 39.4324   5
 -11   5   3 799.763 51.8614   4
 -11  -5   3 846.105 47.9184   4
 -11  -5   2 4630.75 105.672   1
 -11  -5   2 4351.64 61.1813   5
 -11   5   2 5070.38 133.203   4
 -11  -5   2 4814.27 122.051   4
 -11   5   2 4653.86 64.7223   3
 -11  -5   1 6390.48 129.380   1
 -11   5   1 6341.61 154.664   4
 -11  -5   1 6438.31 149.906   4
 -11  -5   0 29306.8 390.679   1
 -11   5   0 29099.7 431.937   4
 -11  -5   0 29049.1 426.704   4
 -11  -5   0 29263.3 423.916   3
 -11  -5  -1 573.520 37.4018   1
 -11   5  -1 593.468 49.0408   4
 -11  -5  -1 625.160 49.0880   3
 -11  -5  -1 648.371 51.3813   4
  11  -5   2 16059.8 194.614   1
 -11  -5  -2 17622.0 262.132   1
 -11   5  -2 17132.1 297.202   4
 -11  -5  -2 17245.1 290.066   3
 -11  -5  -2 17442.4 301.652   4
 -11  -5  -3 121.260 24.6430   1
  11  -5   3 110.018 13.3691   1
 -11  -5  -3 145.665 35.4400   4
 -11  -5  -3 148.708 31.4324   3
 -11   5  -3 99.9220 31.0125   4
 -11  -5  -4-10.2360 18.5675   1
 -11  -5  -4 14.3785 26.4108   4
 -11   5  -4 24.5704 28.5161   4
 -11  -5  -4-10.3580 23.4037   3
 -11  -5  -5 89.5016 26.0727   1
 -11  -5  -5 43.4104 26.1062   3
 -11  -5  -5 31.7804 29.6410   4
 -11   5  -5 50.3175 27.8380   4
 -11  -5  -6 1087.60 60.7259   1
 -11  -5  -6 1264.37 80.9565   4
 -11   5  -6 1239.58 77.1572   4
 -11  -5  -6 1233.14 73.0869   3
 -11  -5  -7 18.1409 21.0634   1
 -11   5  -7 6.99740 28.1024   4
 -11  -5  -7 38.2670 29.4602   4
 -11  -5  -8 9357.72 203.906   1
 -11  -5  -8 9219.59 238.499   4
 -11   5  -8 9429.97 230.833   4
 -11  -5  -9 115.461 30.1645   1
 -11   5  -9 94.4711 38.0111   4
 -11  -5  -9 159.587 46.2669   4
 -11  -5 -10 3060.15 116.448   1
 -11   5 -10 2966.60 130.767   4
 -11  -5 -10 2956.86 136.979   4
 -11   5 -11 54.8019 34.2919   4
 -11  -5 -11 69.6128 39.7724   4
 -11   5 -12 1998.08 113.853   4
 -11   5 -13 105.684 44.5745   4
  11   7 -21 264.112 52.3162   2
 -11   7  21 352.199 59.3815   5
  11  -7 -21 387.912 57.1885   1
  11   7 -20 826.965 74.0478   2
 -11   7  20 587.057 68.7771   5
  11  -7 -20 612.361 66.7784   1
  11   7 -19 827.308 73.8024   2
 -11   7  19 783.773 75.7983   5
  11  -7 -19 849.582 72.1981   1
  11   7 -18 60.7830 35.0203   2
 -11   7  18-36.2496 38.9751   5
  11  -7 -18-2.99241 31.7371   1
  11  -7 -17 3376.49 101.363   2
  11   7 -17 3312.27 131.863   2
 -11   7  17 3506.53 138.268   5
  11  -7 -17 3337.68 128.486   1
  11   7 -16 1934.26 97.2172   2
  11  -7 -16 1802.54 71.4671   2
 -11   7  16 1704.84 93.3921   5
  11  -7 -16 1734.47 89.0057   1
  11   7 -15 1899.98 95.2252   2
  11  -7 -15 1771.53 69.5041   2
 -11   7  15 1943.45 95.9991   5
  11  -7 -15 1744.44 84.4538   1
  11   7 -14 253.687 40.7454   2
  11  -7 -14 299.378 32.7192   2
 -11   7  14 281.075 44.8232   5
  11  -7 -14 217.512 35.0554   1
  11   7 -13 73.1461 30.1111   2
  11  -7 -13 101.734 22.7254   2
 -11   7  13 93.5068 35.2507   5
  11  -7 -13 67.7670 26.5834   1
  11   7 -12 448.120 47.5785   2
  11  -7 -12 422.069 38.8090   1
 -11   7  12 495.033 50.3526   5
  11  -7 -11 10704.4 200.375   1
  11   7 -11 10914.9 223.668   2
 -11  -7  11 10680.6 139.959   4
  11  -7 -10 12.1752 17.8823   1
  11   7 -10-53.1712 27.6777   2
 -11  -7  10 34.5155 11.5936   4
  11   7  -9 27710.8 403.997   2
  11  -7  -9 27298.5 365.843   1
 -11  -7   9 27734.2 334.349   4
  11   7  -8 17.0832 25.4902   2
 -11   7   8 22.9128 14.7698   1
  11  -7  -8 23.9349 15.0197   1
  11   7  -8 17.0800 11.9700   4
 -11   7   8 25.5308 21.9643   4
 -11  -7   8 25.6197 13.1025   4
  11  -7  -7 1723.79 56.2552   1
 -11   7   7 1620.48 56.5156   1
  11   7  -7 1676.45 57.0341   4
 -11   7   7 1855.84 80.1564   4
 -11  -7   7 1749.11 58.2775   4
  11   7  -7 1726.18 75.3283   2
  11  -7  -6 2135.93 58.7804   1
 -11   7   6 2159.04 85.9470   4
  11   7  -6 2013.63 65.9505   4
  11   7  -6 2140.26 82.3823   2
 -11  -7   6 2220.09 68.9624   4
  11  -7  -5 268.716 19.7813   1
 -11   7   5 201.185 33.0376   4
 -11  -7   5 215.426 26.7538   4
 -11   7   5 199.150 15.7224   3
  11  -7  -4 2859.26 59.3603   1
 -11   7   4 3011.65 102.445   4
 -11  -7   4 3064.32 89.8171   4
 -11   7   4 2743.60 47.9792   3
  11  -7  -3 42102.3 476.727   1
 -11   7   3 41666.8 570.592   4
 -11  -7   3 41775.1 549.744   4
  11  -7  -2 225.609 13.1365   1
 -11  -7   2 235.301 30.1044   1
 -11  -7   2 199.866 18.4547   5
 -11   7   2 211.157 33.6913   4
 -11  -7   2 193.748 29.1903   4
  11  -7  -1 6887.98 91.9034   1
 -11  -7   1 6730.32 148.215   1
 -11   7   1 6929.05 167.747   4
 -11  -7   1 6614.08 107.978   5
 -11  -7   1 6852.89 159.639   4
  11  -7   0 216.674 13.2469   1
  11  -7   0 200.795 12.0718   1
 -11  -7   0 178.580 28.1219   1
 -11  -7   0 177.423 16.9964   5
 -11   7   0 249.169 36.2847   4
 -11  -7   0 245.089 38.1434   3
 -11  -7   0 169.272 32.2908   4
  11  -7   1 242.282 15.3936   1
 -11  -7  -1 273.626 33.9875   1
  11  -7   1 258.698 14.8505   1
 -11   7  -1 218.897 36.1876   4
 -11  -7  -1 221.090 37.3145   3
 -11  -7  -1 241.833 37.1753   4
 -11  -7  -2 663.013 46.0562   1
 -11   7  -2 681.216 54.9575   4
 -11  -7  -2 688.970 55.3539   4
 -11  -7  -2 618.985 53.2976   3
 -11  -7  -3 1792.89 75.6962   1
 -11   7  -3 1679.13 84.6201   4
 -11  -7  -3 1787.59 86.1816   3
 -11  -7  -3 1697.27 87.5285   4
 -11  -7  -4 191.087 32.8306   1
 -11   7  -4 260.677 41.1982   4
 -11  -7  -4 235.347 41.6920   4
 -11  -7  -4 201.615 37.6058   3
 -11  -7  -5 8969.68 194.003   1
 -11   7  -5 8963.91 214.374   4
 -11  -7  -5 8983.50 222.167   4
 -11  -7  -5 8817.73 213.666   3
 -11  -7  -6 4526.83 133.276   1
 -11  -7  -6 4434.63 148.161   3
 -11  -7  -6 4346.08 153.152   4
 -11   7  -6 4254.46 144.803   4
 -11  -7  -7 2387.66 98.5175   1
 -11  -7  -7 2375.44 115.440   4
 -11   7  -7 2280.09 106.168   4
 -11  -7  -7 2104.92 103.363   3
 -11  -7  -8 925.171 64.0766   1
 -11  -7  -8 839.977 73.8021   4
 -11   7  -8 965.508 72.4266   4
 -11  -7  -9 1058.73 70.9312   1
 -11   7  -9 1041.92 77.6139   4
 -11  -7 -10 121.468 33.4650   1
 -11   7 -10 96.8715 34.2471   4
 -11   7 -11 1793.71 105.875   4
 -11   7 -12 58.1845 39.1621   4
  11   9 -20 5473.63 192.961   2
 -11   9  20 5708.02 199.017   5
  11  -9 -20 5080.04 183.214   1
  11   9 -19 5.13553 36.1562   2
 -11   9  19 57.1179 42.3790   5
  11  -9 -19-12.7211 35.9712   1
  11   9 -18 849.602 74.9490   2
 -11   9  18 1004.91 85.0493   5
  11  -9 -18 832.067 72.4403   1
  11   9 -17 865.850 72.0039   2
 -11   9  17 962.779 79.5442   5
  11  -9 -17 849.423 69.2374   1
  11   9 -16 693.727 68.1119   2
 -11   9  16 707.681 69.3575   5
  11  -9 -16 661.180 57.9476   1
  11  -9 -15 18.2308 17.5824   2
  11   9 -15-4.73331 29.4012   2
  11  -9 -15 45.4841 30.1629   1
 -11   9  15 71.9993 40.6230   5
  11  -9 -14 9592.30 214.220   1
  11   9 -14 9767.75 230.319   2
  11  -9 -14 9677.61 177.521   2
  11   9 -13 14.3337 27.0923   2
  11  -9 -13 44.0586 21.1984   2
  11  -9 -13 35.0803 24.3575   1
  11   9 -12 9336.03 213.319   2
  11  -9 -12 8940.47 193.391   1
  11   9 -11 1603.68 82.9286   2
  11  -9 -11 1526.60 71.5536   1
  11   9 -10 271.703 39.0071   2
  11  -9 -10 312.787 34.1244   1
  11   9  -9 1033.15 63.5751   2
  11  -9  -9 1063.11 53.2027   1
  11   9  -9 941.802 35.9146   4
  11   9  -8 5588.82 145.395   2
  11  -9  -8 5315.36 121.499   1
  11   9  -8 4893.67 102.231   4
 -11   9   8 5059.38 111.549   3
  11   9  -7 1337.58 68.8266   2
  11  -9  -7 1296.82 54.3530   1
 -11   9   7 1403.33 75.5871   4
  11   9  -7 1240.74 50.2190   4
 -11   9   7 1285.61 47.7547   3
 -11  -9   7 1353.81 52.3436   4
  11   9  -6 22913.9 352.006   2
  11  -9  -6 23143.3 311.186   1
  11   9  -6 21858.0 315.785   4
 -11   9   6 23394.5 370.249   4
 -11   9   6 21367.3 286.314   3
 -11  -9   6 23260.2 319.958   4
  11  -9  -5 7234.31 130.442   1
 -11   9   5 7176.59 174.043   4
  11   9  -5 7247.79 163.189   2
 -11  -9   5 7254.82 147.863   4
 -11   9   5 6858.38 106.348   3
  11  -9  -4 8628.95 143.432   1
 -11   9   4 8887.16 196.922   4
  11   9  -4 8634.97 180.552   2
 -11  -9   4 8448.25 171.194   4
  11  -9  -3 2644.90 65.7066   1
 -11  -9   3 2797.87 98.5057   1
 -11   9   3 2878.20 105.827   4
 -11  -9   3 2507.02 89.1052   4
  11  -9  -2 2438.38 60.4093   1
 -11  -9   2 2428.57 92.2594   1
 -11   9   2 2298.93 95.3480   4
 -11  -9   2 2318.61 88.4218   4
 -11  -9   1-4.65372 23.4389   1
  11  -9  -1 13.7746 12.3443   1
 -11   9   1 40.0478 28.4455   4
 -11  -9   1 13.3914 15.1855   5
 -11  -9   1 3.80091 28.0039   3
 -11  -9   1 45.0202 24.2221   4
  11  -9   0 20827.7 265.110   1
 -11  -9   0 20350.5 330.501   1
 -11   9   0 20648.9 350.434   4
 -11  -9   0 19923.9 279.077   5
 -11  -9   0 20375.7 340.948   4
 -11  -9   0 20791.6 356.071   3
  11  -9   1 92.1590 16.5169   1
 -11  -9  -1 106.412 29.8485   1
 -11   9  -1 71.3199 29.3357   4
 -11  -9  -1 120.367 34.4401   3
 -11  -9  -1 83.3894 27.1436   4
 -11  -9  -2 20866.9 336.495   1
 -11   9  -2 19900.9 348.721   4
 -11  -9  -2 20081.9 357.664   3
 -11  -9  -2 19812.5 350.658   4
 -11  -9  -3 112.224 27.8050   1
 -11   9  -3 150.599 32.7099   4
 -11  -9  -3 147.827 39.2545   3
 -11  -9  -3 157.830 37.6059   4
 -11  -9  -4 100.218 29.0991   1
 -11  -9  -4 88.9896 31.7295   4
 -11  -9  -4 116.651 36.1688   3
 -11   9  -4 108.010 32.2707   4
 -11  -9  -5 73.8238 29.9760   1
 -11  -9  -5 29.7709 31.8282   3
 -11   9  -5 18.2580 27.2957   4
 -11  -9  -6 3678.16 127.530   1
 -11   9  -6 3550.88 134.616   4
 -11  -9  -6 3609.94 140.258   3
 -11  -9  -7 98.6884 32.8945   1
 -11  -9  -7 140.741 42.0450   3
 -11   9  -7 119.694 36.7406   4
 -11  -9  -8 9388.11 227.487   1
 -11  -9  -8 9787.61 250.044   3
 -11   9  -8 9481.85 237.073   4
 -11  -9  -9 256.789 44.2265   1
 -11   9  -9 161.325 41.0296   4
 -11  -9 -10 1298.22 85.3773   1
 -11   9 -10 1435.72 92.3883   4
 -11  -9 -11 483.281 60.3007   1
 -11   9 -11 233.471 47.3038   4
  11  11 -19 1650.37 106.677   2
  11 -11 -19 1369.55 95.8535   1
  11  11 -18 53.3361 37.8593   2
  11 -11 -18 9.80513 33.3026   1
  11  11 -17 7102.74 211.687   2
  11 -11 -17 7113.69 204.758   1
  11  11 -16 76.3247 38.1705   2
  11 -11 -16 74.9163 37.1177   1
  11  11 -15 1576.19 95.2271   2
  11 -11 -15 1519.41 86.6079   1
  11  11 -14 2175.33 105.898   2
  11 -11 -14 1967.90 95.7010   1
  11  11 -13 919.420 70.0587   2
  11 -11 -13 1013.47 66.4561   1
  11  11 -12 177.380 36.5478   2
  11 -11 -12 174.906 34.1513   1
  11  11 -11 7610.02 192.150   2
  11 -11 -11 7088.29 170.639   1
  11  11 -10 521.718 53.0058   2
  11 -11 -10 615.039 48.4608   1
  11  11  -9 9159.95 207.950   2
  11 -11  -9 9486.02 191.270   1
  11  11  -8 727.425 56.3166   2
  11 -11  -8 772.949 49.3192   1
  11  11  -7 206.918 36.0116   2
  11 -11  -7 181.422 28.1282   1
  11  11  -6 3190.53 108.650   2
 -11  11   6 3158.69 118.456   4
  11 -11  -6 3196.51 92.2567   1
  11  11  -5 10728.5 213.726   2
 -11  11   5 10801.3 235.380   4
  11 -11  -5 10931.4 189.633   1
  11  11  -4 348.741 39.8298   2
  11 -11  -4 376.100 31.3925   1
 -11  11   4 362.950 44.0651   4
  11 -11  -3 10515.6 177.825   1
 -11 -11   3 10700.7 227.095   1
 -11  11   3 10739.1 234.179   4
  11  11  -3 10431.0 207.244   2
  11 -11  -2 8415.89 150.202   1
 -11 -11   2 8071.56 192.712   1
 -11  11   2 8440.25 200.645   4
  11  11  -2 8198.97 175.653   2
 -11 -11   1 3773.41 126.965   1
  11 -11  -1 4019.35 93.7511   1
 -11  11   1 3899.59 131.601   4
  11  11  -1 3887.17 112.173   2
 -11 -11   1 3900.77 138.748   3
  11 -11   0 2892.50 78.1249   1
 -11 -11   0 2889.39 110.464   1
 -11  11   0 2945.67 116.194   4
  11  11   0 2905.73 95.8590   2
 -11 -11   0 2665.31 115.836   3
  11 -11   1 122.601 20.9677   1
 -11 -11  -1 102.715 32.4758   1
 -11  11  -1 160.281 35.1768   4
 -11 -11  -1 163.404 39.3717   3
 -11 -11  -2 125.700 37.9677   1
 -11  11  -2 205.663 41.1675   4
 -11 -11  -2 159.676 41.8601   3
 -11 -11  -3 8479.39 205.254   1
 -11  11  -3 8868.60 215.611   4
 -11 -11  -3 8597.12 223.683   3
 -11 -11  -4 3266.90 124.099   1
 -11  11  -4 3128.64 123.792   4
 -11 -11  -4 3381.46 137.833   3
 -11 -11  -5 8445.23 212.506   1
 -11  11  -5 8393.82 214.482   4
 -11 -11  -5 8985.53 234.785   3
 -11 -11  -6 110.769 35.4213   1
 -11 -11  -6 49.6068 37.0126   3
 -11  11  -6 76.5645 32.9276   4
 -11 -11  -7 2.91535 30.5587   1
 -11 -11  -7 13.0390 34.9066   3
 -11  11  -7 25.0467 30.9620   4
 -11 -11  -8 268.221 46.8534   1
 -11 -11  -8 246.890 49.4457   3
 -11  11  -8 269.689 47.9381   4
 -11 -11  -9 688.276 67.7708   1
 -11  11  -9 684.837 67.3131   4
 -11 -11 -10 32.1741 40.3064   1
 -11  11 -10-33.8152 38.6084   4
  11 -13 -18 6155.49 201.494   1
  11  13 -17 1055.87 89.6739   2
  11 -13 -17 1037.12 83.8710   1
  11  13 -16 654.773 70.9162   2
  11 -13 -16 498.338 58.2052   1
  11  13 -15-4.49133 36.3798   2
  11 -13 -15 46.6529 34.8734   1
  11  13 -14 6653.94 197.404   2
  11 -13 -14 6474.08 186.362   1
  11  13 -13 88.8517 37.1555   2
  11 -13 -13 54.6148 31.5143   1
  11  13 -12 2838.06 120.315   2
  11 -13 -12 2777.13 111.374   1
  11  13 -11 4415.17 148.387   2
  11 -13 -11 4267.56 137.038   1
  11  13 -10 414.962 49.0142   2
  11 -13 -10 521.895 48.0678   1
  11  13  -9 97.2829 34.7587   2
  11 -13  -9 63.8502 25.2769   1
  11  13  -8 1628.15 84.6901   2
  11 -13  -8 1806.57 80.2250   1
  11  13  -7 130.423 33.3203   2
  11 -13  -7 144.797 30.0564   1
  11  13  -6 9239.94 203.063   2
 -11  13   6 9295.66 222.995   4
  11 -13  -6 8616.49 181.307   1
  11  13  -5 1699.24 79.9547   2
 -11  13   5 1744.68 93.1571   4
  11 -13  -5 1224.84 60.7640   1
  11  13  -4 992.687 60.6078   2
 -11  13   4 953.327 69.7891   4
  11 -13  -4 954.892 51.5923   1
  11  13  -3 2888.42 101.292   2
  11 -13  -3 3000.09 91.3041   1
 -11 -13   3 2943.38 119.858   1
 -11  13   3 2918.47 119.237   4
  11  13  -2 957.643 58.5254   2
  11 -13  -2 927.334 50.7701   1
 -11 -13   2 919.846 70.8147   1
 -11  13   2 950.293 69.7302   4
 -11 -13   2 996.221 76.5414   3
  11  13  -1 1061.68 60.1143   2
 -11 -13   1 1109.60 76.8570   1
  11 -13  -1 1001.14 52.2204   1
 -11  13   1 959.918 70.3751   4
 -11 -13   1 1138.08 82.5345   3
  11  13   0 4718.20 124.500   2
 -11 -13   0 4491.31 149.672   1
 -11  13   0 4755.99 153.622   4
 -11 -13   0 4704.39 163.164   3
  11  13   1 38.2491 25.2346   2
 -11 -13  -1-63.4507 34.8578   1
 -11  13  -1-18.4491 28.4985   4
 -11 -13  -1-34.6226 37.8269   3
 -11 -13  -2 6847.89 192.001   1
 -11  13  -2 6476.84 186.919   4
 -11 -13  -2 7131.60 207.179   3
 -11 -13  -3 524.564 57.4086   1
 -11  13  -3 623.889 62.6548   4
 -11 -13  -3 572.308 65.1952   3
 -11 -13  -4 330.484 50.8460   1
 -11  13  -4 272.593 45.5646   4
 -11 -13  -4 322.975 54.3712   3
 -11 -13  -5 386.300 53.0309   1
 -11  13  -5 335.887 51.1880   4
 -11 -13  -5 347.214 57.3950   3
 -11 -13  -6 5273.19 176.538   1
 -11  13  -6 5593.14 176.978   4
 -11 -13  -6 5889.10 200.550   3
 -11 -13  -7 1123.74 86.5440   1
 -11  13  -7 1108.79 81.2450   4
 -11 -13  -7 1146.05 91.9938   3
 -11 -13  -8 2551.15 126.632   1
 -11  13  -8 2937.54 130.240   4
 -11 -13  -9 100.985 44.0273   1
  11 -15 -17 2166.78 120.755   1
  11 -15 -16 27.0089 36.2796   1
  11  15 -15 2506.06 126.655   2
  11 -15 -15 2332.59 117.644   1
  11  15 -14 429.703 60.0022   2
  11 -15 -14 411.815 55.7951   1
  11  15 -13 15.9972 36.2617   2
  11 -15 -13 20.0680 31.3966   1
  11  15 -12 925.093 76.9304   2
  11 -15 -12 950.752 70.8331   1
  11  15 -11 2286.02 110.540   2
  11 -15 -11 2121.16 101.845   1
  11  15 -10 121.858 38.8612   2
  11 -15 -10 199.729 37.1390   1
  11  15  -9 9858.01 231.266   2
  11 -15  -9 9875.64 221.330   1
  11  15  -8 2606.06 109.914   2
  11 -15  -8 2708.68 106.209   1
  11  15  -7 25.0586 27.6897   2
  11 -15  -7 89.0518 29.1624   1
  11  15  -6 3134.34 115.922   2
 -11  15   6 3349.10 134.811   4
  11 -15  -6 2974.27 106.615   1
  11  15  -5 3090.82 112.496   2
 -11  15   5 3170.86 131.820   4
  11 -15  -5 3282.56 109.582   1
  11  15  -4 82.1941 28.5703   2
 -11  15   4 52.9622 30.7342   4
  11 -15  -4 72.2617 26.3992   1
 -11 -15   4 128.574 44.1089   1
  11  15  -3 6114.23 155.178   2
  11 -15  -3 5867.37 147.055   1
 -11 -15   3 5991.08 184.683   1
 -11  15   3 6058.29 182.676   4
  11  15  -2 668.924 51.1373   2
 -11 -15   2 563.328 62.5062   1
 -11  15   2 718.881 66.3893   4
 -11 -15   2 679.753 70.2297   3
 -11 -15   1 4562.65 160.835   1
 -11  15   1 4362.47 153.473   4
 -11 -15   1 4432.81 164.568   3
 -11 -15   0 1915.32 106.037   1
 -11  15   0 1991.40 103.181   4
 -11 -15   0 1902.14 110.464   3
 -11 -15  -1 1138.57 85.4753   1
 -11  15  -1 1356.38 86.6734   4
 -11 -15  -1 1530.26 99.7325   3
 -11 -15  -2 1691.54 101.318   1
 -11  15  -2 1557.21 94.0379   4
 -11 -15  -2 1564.11 102.376   3
 -11 -15  -3 1456.64 96.0049   1
 -11  15  -3 1490.17 91.5583   4
 -11 -15  -3 1538.35 103.300   3
 -11 -15  -4 133.184 41.4252   1
 -11  15  -4 106.141 37.7350   4
 -11 -15  -4 128.047 42.3135   3
 -11 -15  -5 2979.76 137.059   1
 -11  15  -5 3097.59 133.118   4
 -11 -15  -6 885.684 81.5425   1
 -11  15  -6 951.915 77.3403   4
 -11 -15  -7 37.8166 38.2096   1
  11 -17 -15 844.739 79.1255   1
  11 -17 -14 1619.34 102.030   1
  11  17 -13 7.48173 34.2381   2
  11 -17 -13-18.1906 39.1496   1
  11  17 -12 2012.39 109.994   2
  11 -17 -12 2100.25 109.842   1
  11  17 -11 928.919 76.9889   2
  11 -17 -11 705.489 64.8212   1
  11  17 -10 46.8499 32.8919   2
  11 -17 -10 117.917 38.5631   1
  11  17  -9 2743.73 121.405   2
  11 -17  -9 2856.82 119.553   1
  11  17  -8 862.832 68.4939   2
  11 -17  -8 1008.65 71.9002   1
  11  17  -7 1231.82 79.1150   2
  11 -17  -7 1262.83 77.7341   1
  11  17  -6 915.560 65.9814   2
 -11  17   6 1026.42 84.0935   4
  11 -17  -6 1026.30 69.9033   1
  11  17  -5 2369.85 102.270   2
  11 -17  -5 2338.16 101.304   1
 -11 -17   5 2529.49 129.857   1
 -11  17   5 2437.17 123.120   4
 -11 -17   4 58.7924 48.9198   1
 -11  17   4 104.729 41.8139   4
 -11 -17   3 7829.32 228.699   1
 -11  17   3 7559.62 219.379   4
 -11 -17   3 7620.66 229.276   3
 -11 -17   2 113.983 44.2647   1
 -11  17   2 231.631 48.4727   4
 -11 -17   2 162.225 47.1787   3
 -11 -17   1 343.753 57.7402   1
 -11  17   1 335.914 54.2217   4
 -11 -17   1 296.957 57.0305   3
 -11 -17   0 1607.26 102.704   1
 -11  17   0 1572.97 97.9260   4
 -11 -17   0 1577.40 105.681   3
 -11 -17  -1 18.5976 37.9707   1
 -11  17  -1 61.0444 42.4569   4
 -11 -17  -1 4.90589 38.7860   3
 -11  17  -2 1575.43 98.7845   4
 -11 -17  -2 1700.34 108.227   1
 -11  17  -3 2445.31 122.576   4
 -11 -17  -3 2495.69 129.949   1
 -11  17  -4 31.2274 37.0012   4
 -11  17  -5 1480.41 99.4501   4
  11 -19 -12 1480.78 98.2785   1
  11  19 -11 48.3504 38.1137   2
  11 -19 -11 69.3239 43.2213   1
  11  19 -10 13.6156 35.7605   2
  11 -19 -10 8.84132 35.9783   1
  11  19  -9 1163.40 83.7452   2
  11 -19  -9 1164.42 83.2262   1
  11  19  -8 2156.34 109.897   2
  11 -19  -8 2064.41 107.033   1
 -11  19   6 582.793 72.0602   4
 -11  19   5 1430.74 99.8790   4
 -11  19   4 224.816 48.1188   4
 -11  19   3 265.526 53.6184   4
 -11  19   2 792.395 76.9463   4
 -11  19   1 432.573 59.8526   4
 -11  19   0 1860.29 111.485   4
 -11  19  -1-49.2872 40.8912   4
 -11  19  -2 474.604 62.3247   4
  12   0 -24 4388.55 163.022   2
  12   0 -23 7.64940 36.0775   2
  12   0 -22 476.203 58.0760   2
 -12   0  22 636.721 71.8359   5
  12   0 -21 35.9610 32.8272   2
 -12   0  21-15.7940 38.4876   5
  12   0 -20 25.9448 32.1114   2
 -12   0  20-18.8981 34.4783   5
  12   0 -19-14.2653 28.4944   2
 -12   0  19-35.7301 32.9337   5
  12   0 -18 6219.80 170.061   2
 -12   0  18 6289.48 179.659   5
  12   0 -17 25.8027 27.6512   2
 -12   0  17 56.7600 30.1824   5
  12   0 -16 17692.8 311.816   2
 -12   0  16 17799.7 318.439   5
  12   0 -15 36.6487 26.7896   2
 -12   0  15 14.1601 25.3101   5
 -12   0  15 2.22973 18.8585   4
  12   0 -14 5261.05 143.237   2
 -12   0  14 5294.38 141.330   5
 -12   0  14 5688.14 125.097   4
  12   0 -13-35.2290 27.8195   2
 -12   0  13 7.52861 16.1885   4
 -12   0  13 40.1943 24.5636   5
 -12   0  12 15629.9 259.098   5
 -12   0  12 15925.5 245.391   4
  12   0 -12 15196.3 269.143   2
 -12   0  11 13.2695 17.9477   5
 -12   0  11-8.55199 15.8865   4
 -12   0  10 5200.78 116.910   1
 -12   0  10 5331.92 118.065   5
 -12   0  10 5352.08 119.271   4
 -12   0   9 4.78063 13.3478   1
 -12   0   9-9.38134 16.9409   5
 -12   0   9-0.27319 16.7471   4
 -12   0   8 1946.71 58.8259   1
 -12   0   8 2239.52 74.2614   4
 -12   0   8 2042.32 59.6936   5
 -12   0   7-1.76666 9.86738   1
 -12   0   7-7.35096 13.0262   5
 -12   0   7-7.97877 16.9070   4
 -12   0   6 439.065 23.5141   1
 -12   0   6 453.126 23.5995   5
 -12   0   6 420.796 34.8997   4
 -12   0   5 1.75258 7.88166   1
 -12   0   5 19.9894 20.6868   4
 -12   0   4 10985.4 143.207   1
 -12   0   4 12019.4 210.848   4
 -12   0   3 22.1970 6.34313   1
 -12   0   3 12.8853 20.2155   4
 -12   0   2 45751.9 501.928   1
 -12   0   2 48857.4 611.215   4
 -12   0   1 11.8264 4.83797   1
 -12   0   1 14.8215 15.3712   3
 -12   0   1 42.6912 26.9622   4
 -12   0   0 739.289 21.4201   1
 -12   0   0 744.069 42.0488   3
 -12   0   0 706.223 52.3851   4
 -12   0  -1 9.90772 7.93904   1
 -12   0  -1 14.0902 15.1449   3
 -12   0  -1 36.2849 28.6569   4
 -12   0  -2 4876.42 85.0561   1
  12   0   2 4830.15 74.6063   5
 -12   0  -2 4496.87 136.449   4
 -12   0  -2 4763.64 113.993   3
 -12   0  -3 9.84678 11.4541   1
  12   0   3 21.6269 11.9427   5
 -12   0  -3 42.1096 28.8958   4
 -12   0  -3 7.80535 18.2751   3
  12   0   4 26608.4 332.144   5
 -12   0  -4 26206.7 427.522   4
  12   0   5 7.19592 14.2579   5
 -12   0  -5-0.13705 28.7525   4
 -12   0  -6 7437.22 201.114   4
 -12   0  -7 15.8693 32.3940   4
 -12   0  -8 108.456 37.2626   4
 -12   0  -9-54.5958 39.7643   4
 -12   0 -10 13550.2 312.693   4
 -12   0 -11 18.7415 34.3871   4
  12   2 -24 1096.31 87.6661   2
  12   2 -23 118.317 40.3290   2
  12  -2 -22 250.992 46.1661   2
  12   2 -22 310.352 52.4940   2
 -12   2  22 311.640 53.0581   5
 -12  -2  22 440.525 62.4710   5
  12  -2 -21 2668.32 111.600   2
  12   2 -21 2598.26 119.194   2
 -12  -2  21 2819.01 130.422   5
 -12   2  21 2793.86 132.349   5
  12  -2 -20 83.3363 30.3793   2
  12   2 -20 88.3576 35.3576   2
 -12   2  20 45.1415 38.0930   5
 -12  -2  20 167.548 43.0150   5
  12  -2 -19 7382.25 186.575   2
  12   2 -19 7639.58 201.475   2
 -12  -2  19 7922.66 210.725   5
 -12   2  19 7944.47 214.401   5
  12  -2 -18 103.104 27.0416   2
  12   2 -18 123.196 34.3809   2
 -12   2  18 106.449 34.7505   5
  12  -2 -17 328.389 41.5897   2
  12   2 -17 317.354 43.3583   2
 -12  -2  17 346.423 28.1305   4
 -12   2  17 274.908 42.2337   5
  12  -2 -16 1135.72 65.4056   2
  12   2 -16 1242.79 72.9064   2
 -12  -2  16 1301.21 50.7657   4
 -12   2  16 1200.83 73.4254   5
  12  -2 -15 3604.22 113.992   2
  12   2 -15 3474.10 119.517   2
 -12  -2  15 3925.72 91.3118   4
 -12   2  15 3620.35 121.832   5
  12   2 -14 24.8608 27.1818   2
  12  -2 -14 77.8028 25.8841   2
 -12   2  14 28.6091 26.0515   5
 -12  -2  14 31.9863 16.7757   4
  12   2 -13 14896.0 271.021   2
 -12  -2  13 15480.9 225.608   4
 -12   2  13 15000.2 250.324   4
 -12   2  13 14880.6 261.947   5
  12  -2 -13 14757.4 260.640   2
 -12  -2  12 1912.44 61.3914   4
 -12   2  12 1854.09 73.0452   4
 -12   2  12 1722.59 73.1139   5
  12   2 -12 1950.91 83.2065   2
  12   2 -11 27.5252 26.7341   2
 -12   2  11 45.3442 22.4629   4
 -12   2  11 45.3710 23.1974   5
 -12  -2  11 30.2006 16.4804   4
 -12   2  10 54.1954 14.3499   1
 -12   2  10 88.6619 24.7133   4
 -12   2  10 38.5732 19.6285   5
 -12  -2  10 67.4437 17.8084   4
 -12   2   9 3246.42 81.7102   1
 -12  -2   9 3192.63 82.1138   5
 -12   2   9 3459.82 98.6676   4
 -12   2   9 3320.43 88.3512   5
 -12  -2   9 3328.15 87.4242   4
 -12   2   8 2252.07 61.8847   1
 -12  -2   8 2328.81 63.1674   5
 -12  -2   8 2456.41 74.9512   4
 -12   2   8 2394.05 69.8645   5
 -12   2   8 2395.39 81.2278   4
 -12   2   7 13002.0 186.810   1
 -12  -2   7 13595.5 188.704   5
 -12   2   7 13808.2 232.286   4
 -12  -2   7 13991.8 222.282   4
 -12   2   6 1147.78 33.9002   1
 -12  -2   6 1220.92 55.2576   4
 -12   2   6 1172.77 58.7156   4
 -12  -2   6 1159.67 34.7566   5
 -12   2   5 24127.1 283.192   1
 -12   2   5 26225.1 369.820   4
 -12  -2   5 25177.1 283.625   5
 -12  -2   5 25321.7 356.406   4
  12  -2  -4 2586.61 56.3158   5
 -12  -2   4 2780.17 88.6175   4
 -12   2   4 2831.85 93.0918   4
 -12  -2   3 43.3626 12.8700   1
 -12   2   3 21.9570 23.5350   4
  12  -2  -3 31.9152 9.71562   5
 -12  -2   3 39.8828 20.4987   4
 -12  -2   2 103.516 14.8044   1
  12  -2  -2 91.6698 12.1907   5
 -12   2   2 57.5260 23.5833   4
 -12  -2   2 114.770 26.2300   4
 -12  -2   1 22881.9 285.342   1
  12  -2  -1 21919.6 268.674   5
 -12   2   1 23020.4 354.213   4
 -12  -2   1 22393.3 329.663   3
 -12  -2   1 22168.0 348.736   4
 -12   2   1 22846.1 297.879   3
 -12  -2   0 3767.91 77.7017   1
 -12   2   0 3754.30 117.865   4
 -12   2   0 3785.12 84.6491   3
 -12  -2   0 3540.54 114.280   4
 -12  -2   0 3872.38 106.045   3
 -12  -2  -1 22037.1 288.096   1
 -12   2  -1 22453.1 361.035   4
 -12   2  -1 22253.4 298.036   3
 -12  -2  -1 21624.9 329.688   3
 -12  -2  -1 21722.0 356.234   4
 -12  -2  -2 1712.84 54.3138   1
 -12   2  -2 1655.98 56.5156   3
 -12   2  -2 1619.68 81.4439   4
 -12  -2  -2 1684.02 70.5625   3
 -12  -2  -2 1641.66 82.5245   4
 -12  -2  -3 8674.44 149.858   1
 -12  -2  -3 8467.90 178.497   3
 -12   2  -3 8538.71 201.921   4
 -12  -2  -3 8688.08 204.198   4
 -12  -2  -4 85.7693 19.2817   1
  12   2   4 129.114 17.1822   5
 -12   2  -4 80.4557 32.8705   4
 -12  -2  -4 103.634 26.6657   3
 -12  -2  -4 59.8488 31.2208   4
 -12  -2  -5 2001.01 69.2973   1
 -12  -2  -5 2028.24 84.3420   3
 -12  -2  -5 2087.37 101.301   4
 -12   2  -5 2021.73 97.8234   4
 -12  -2  -6 10976.3 196.455   1
 -12  -2  -6 10775.6 252.211   4
 -12   2  -6 10731.5 247.368   4
 -12  -2  -7 23136.6 342.944   1
 -12  -2  -7 22548.7 409.988   4
 -12   2  -7 22748.5 406.486   4
 -12   2  -8 318.441 50.3783   4
 -12  -2  -8 333.783 50.5696   4
 -12   2  -9 3425.94 142.945   4
 -12  -2  -9 3407.86 145.449   4
 -12   2 -10 169.162 43.2462   4
 -12  -2 -10 193.287 45.3496   4
 -12   2 -11 276.248 53.0299   4
 -12  -2 -11 377.909 60.9505   4
  12   4 -23 174.949 48.2145   2
  12   4 -22 8.46045 33.8871   2
 -12   4  22 39.1127 39.6331   5
  12   4 -21 379.441 58.2853   2
 -12   4  21 441.744 62.9446   5
  12  -4 -20 10.5593 24.5017   2
  12   4 -20 60.4964 34.5445   2
 -12   4  20 51.2994 38.6729   5
  12  -4 -19 5.40911 22.9976   2
  12   4 -19 26.0195 36.8489   2
 -12   4  19-8.82541 35.4094   5
  12  -4 -18 1034.85 62.8374   2
  12   4 -18 1050.74 73.7092   2
 -12   4  18 923.263 73.7933   5
  12  -4 -17 292.766 36.7396   2
  12   4 -17 351.571 46.8439   2
 -12   4  17 358.851 51.0084   5
  12  -4 -16 10298.1 208.712   2
  12   4 -16 10377.3 232.356   2
 -12   4  16 10399.2 231.980   5
  12   4 -15 29.6958 28.0102   2
  12  -4 -15 47.5761 24.0555   2
 -12  -4  15 33.4744 12.5814   4
 -12   4  15 22.7116 31.1943   5
  12   4 -14 2404.73 100.577   2
 -12   4  14 2662.18 103.544   5
 -12  -4  14 2772.33 63.4823   4
  12  -4 -14 2647.84 93.4887   2
  12   4 -13 140.058 31.8250   2
  12  -4 -13 127.560 29.7926   2
 -12   4  13 132.657 32.4728   5
 -12  -4  13 117.346 16.8950   4
  12   4 -12 1023.41 64.4104   2
 -12  -4  12 961.722 38.5275   4
 -12   4  12 857.619 56.0238   5
  12   4 -11 1330.05 71.1830   2
 -12   4  11 1453.37 67.4868   4
 -12   4  11 1317.57 65.0884   5
 -12  -4  11 1414.61 48.1382   4
 -12   4  10 27808.8 378.278   1
 -12  -4  10 28358.7 362.422   4
 -12   4  10 27833.6 405.842   4
 -12   4  10 27661.5 393.364   5
  12   4 -10 28367.6 417.961   2
 -12   4   9 1951.69 62.2371   1
 -12  -4   9 1882.41 61.1325   4
 -12   4   9 1848.69 76.1024   4
 -12   4   9 1910.76 71.0500   5
  12   4  -9 1940.98 82.1524   2
 -12   4   8 13702.8 204.003   1
  12  -4  -8 13996.1 222.638   5
  12   4  -8 13546.5 215.242   4
 -12   4   8 14268.4 245.824   4
 -12  -4   8 14720.9 220.331   4
 -12   4   7 2274.28 57.7206   1
  12  -4  -7 2320.15 70.9419   5
  12   4  -7 2417.01 74.6817   4
 -12   4   7 2573.50 89.9634   4
 -12  -4   7 2493.06 75.8150   4
 -12   4   6 1522.24 40.0020   1
  12  -4  -6 1468.27 54.2331   5
 -12   4   6 1572.16 70.7043   4
 -12  -4   6 1664.86 63.2967   4
 -12   4   5 2874.76 96.8918   4
  12  -4  -5 2882.73 73.8098   5
 -12  -4   5 2730.88 85.5613   4
 -12   4   4 49135.1 629.521   4
  12  -4  -4 46986.1 566.709   5
 -12  -4   4 47610.3 607.947   4
 -12  -4   3 3562.68 86.1397   1
 -12   4   3 3354.86 108.020   4
  12  -4  -3 3268.64 76.5398   5
 -12  -4   3 3405.12 102.062   4
 -12  -4   2 17714.7 252.390   1
  12  -4  -2 17063.4 238.655   5
 -12   4   2 18087.8 299.617   4
 -12  -4   2 17533.2 287.793   4
 -12   4   2 17492.7 222.549   3
 -12  -4   1 6396.96 124.139   1
 -12   4   1 6488.69 160.368   4
 -12   4   1 6351.02 99.3499   3
 -12  -4   1 6582.55 157.152   4
 -12  -4   0 810.878 40.1306   1
 -12   4   0 747.376 54.7725   4
 -12  -4   0 713.658 49.6213   3
 -12  -4   0 716.969 52.2342   4
 -12  -4  -1 34.6052 16.7804   1
 -12  -4  -1 14.2996 25.1912   4
 -12  -4  -1 38.9221 23.2169   3
 -12   4  -1 27.2475 26.5331   4
 -12  -4  -2 4111.95 101.161   1
 -12   4  -2 4195.34 133.077   4
 -12  -4  -2 4036.52 131.914   4
 -12  -4  -2 4338.44 125.375   3
 -12  -4  -3 925.337 48.7363   1
 -12   4  -3 953.964 66.6485   4
 -12  -4  -3 948.185 68.8746   4
 -12  -4  -3 931.612 59.6634   3
 -12  -4  -4 17887.7 276.581   1
 -12  -4  -4 17890.2 331.636   4
 -12  -4  -4 17577.1 308.721   3
 -12   4  -4 17417.3 325.019   4
 -12  -4  -5 2180.47 79.1860   1
 -12  -4  -5 2050.53 101.688   4
 -12   4  -5 2027.97 98.4546   4
 -12  -4  -5 2099.85 92.8067   3
 -12  -4  -6 3723.07 109.118   1
 -12  -4  -6 3505.89 122.964   3
 -12  -4  -6 3534.48 137.200   4
 -12   4  -6 3439.79 131.548   4
 -12  -4  -7 5481.74 140.929   1
 -12  -4  -7 5496.12 177.964   4
 -12   4  -7 5146.33 167.810   4
 -12   4  -8-19.2990 35.0406   4
 -12  -4  -8-3.15056 33.5465   4
 -12   4  -9 645.891 66.3719   4
 -12  -4  -9 644.597 68.2693   4
 -12   4 -10 2708.41 129.003   4
 -12  -4 -10 2934.60 138.895   4
 -12   4 -11 141.525 42.1630   4
 -12   4 -12 1496.44 103.487   4
  12   6 -22 29.4244 40.2677   2
  12   6 -21 3705.16 153.441   2
 -12   6  21 4097.49 165.103   5
  12   6 -20 88.2129 40.4622   2
 -12   6  20 57.3673 39.0217   5
  12   6 -19 1519.09 94.0187   2
 -12   6  19 1452.34 95.2882   5
  12  -6 -18 35.1417 20.7046   2
  12   6 -18 27.2407 36.4336   2
 -12   6  18-14.0328 38.6296   5
  12  -6 -18 58.1542 34.3414   1
  12  -6 -17 430.046 39.6595   2
  12   6 -17 439.143 54.0387   2
 -12   6  17 405.145 52.2043   5
  12  -6 -17 422.608 49.7367   1
  12   6 -16 5166.93 161.322   2
  12  -6 -16 5257.11 134.843   2
 -12   6  16 5104.65 160.070   5
  12  -6 -16 5027.42 150.876   1
  12   6 -15 374.073 47.4274   2
  12  -6 -15 401.468 38.7391   2
  12  -6 -15 421.407 44.8540   1
 -12   6  15 410.134 50.2789   5
  12   6 -14 627.340 55.8062   2
  12  -6 -14 654.023 51.1082   1
 -12   6  14 539.420 52.3617   5
  12  -6 -14 616.224 46.1765   2
  12   6 -13 6578.01 172.026   2
  12  -6 -13 6481.11 154.707   1
 -12   6  13 6484.56 166.935   5
 -12  -6  13 6651.05 95.7335   4
  12   6 -12 222.883 36.2987   2
  12  -6 -12 249.437 32.1617   1
 -12   6  12 227.682 37.6483   5
 -12  -6  12 256.718 17.8694   4
  12  -6 -11 3492.48 99.3615   1
  12   6 -11 3335.51 113.877   2
 -12  -6  11 3533.81 73.9747   4
  12   6 -10 7391.88 175.566   2
  12  -6 -10 7406.31 147.941   1
 -12   6  10 7481.94 172.257   4
 -12  -6  10 7617.17 129.043   4
 -12   6   9 3920.06 96.0983   1
  12  -6  -9 3999.42 95.6528   1
 -12   6   9 4060.55 121.622   4
  12   6  -9 3580.68 85.6632   4
  12   6  -9 4015.49 122.500   2
 -12  -6   9 3979.97 89.5010   4
  12  -6  -8 2561.14 69.1605   1
 -12   6   8 2432.63 69.2944   1
 -12   6   8 2556.54 95.1916   4
  12   6  -8 2314.21 69.9981   4
  12   6  -8 2564.51 94.9153   2
 -12  -6   8 2594.70 73.2370   4
  12  -6  -7 22932.2 292.902   1
 -12   6   7 21912.2 294.008   1
  12   6  -7 21578.3 313.177   4
 -12   6   7 23353.4 357.539   4
 -12  -6   7 22966.3 316.271   4
  12  -6  -6 622.986 27.1096   1
 -12   6   6 600.686 48.4780   4
 -12  -6   6 657.747 40.4820   4
  12  -6  -5 5764.59 88.8408   1
  12  -6  -5 5705.56 124.054   5
 -12   6   5 5776.66 148.119   4
 -12  -6   5 5921.78 132.611   4
 -12   6   4 26788.1 401.250   4
  12  -6  -4 25740.7 356.921   5
 -12  -6   4 26405.9 377.942   4
 -12  -6   3 320.600 33.0582   1
 -12   6   3 317.617 38.3441   4
  12  -6  -3 276.520 29.0962   5
 -12  -6   3 262.846 15.5589   5
 -12  -6   3 293.306 33.9329   4
 -12  -6   2 5623.23 128.047   1
 -12  -6   2 5485.15 76.8376   5
 -12   6   2 6092.70 156.369   4
 -12  -6   2 5780.55 144.744   4
 -12  -6   1 25074.7 353.992   1
 -12   6   1 24448.0 390.378   4
 -12  -6   1 24969.9 385.229   4
 -12  -6   1 24843.0 387.117   3
 -12  -6   0 3067.80 91.2073   1
 -12   6   0 3092.62 111.510   4
 -12  -6   0 3093.19 109.671   4
 -12  -6   0 2987.88 107.003   3
 -12  -6  -1 14263.9 236.921   1
 -12   6  -1 14316.3 273.698   4
 -12  -6  -1 13912.1 265.852   3
 -12  -6  -1 14058.6 270.943   4
 -12  -6  -2 2296.77 81.5102   1
 -12   6  -2 2199.06 97.0290   4
 -12  -6  -2 2227.59 94.7725   3
 -12  -6  -2 2207.28 98.1014   4
 -12  -6  -3 273.043 33.6510   1
 -12  -6  -3 222.539 39.1148   4
 -12   6  -3 311.606 42.8370   4
 -12  -6  -3 262.312 38.4941   3
 -12  -6  -4 11676.6 218.664   1
 -12   6  -4 11203.9 248.019   4
 -12  -6  -4 11459.6 255.090   4
 -12  -6  -4 11195.4 241.419   3
 -12  -6  -5 287.026 35.3310   1
 -12  -6  -5 356.407 46.8133   3
 -12  -6  -5 316.084 45.6947   4
 -12   6  -5 232.267 42.0407   4
 -12  -6  -6 3877.09 121.376   1
 -12  -6  -6 4118.10 152.721   4
 -12   6  -6 3911.05 142.313   4
 -12  -6  -6 4046.26 140.734   3
 -12  -6  -7 6550.31 165.640   1
 -12  -6  -7 6141.66 181.461   3
 -12  -6  -7 6363.82 195.740   4
 -12   6  -7 6421.43 189.325   4
 -12  -6  -8 0.55720 22.4223   1
 -12   6  -8 13.6175 35.7326   4
 -12  -6  -8 28.6826 33.7799   4
 -12  -6  -9 5976.34 198.537   4
 -12   6  -9 5521.57 183.876   4
 -12   6 -10 714.108 68.5105   4
 -12  -6 -10 977.019 84.9311   4
 -12   6 -11-36.4919 34.3691   4
  12  -8 -21 485.810 64.3933   1
  12   8 -20 617.547 66.8708   2
 -12   8  20 617.489 73.3812   5
  12  -8 -20 764.189 72.2994   1
  12   8 -19 764.480 73.8003   2
 -12   8  19 781.051 76.4871   5
  12  -8 -19 622.796 64.6943   1
  12   8 -18 5953.62 188.598   2
 -12   8  18 5834.48 188.365   5
  12  -8 -18 5979.49 181.834   1
  12   8 -17 634.059 63.0436   2
 -12   8  17 497.977 61.4471   5
  12  -8 -17 498.817 54.8588   1
  12   8 -16 1121.41 76.7526   2
  12  -8 -16 1208.03 58.6519   2
 -12   8  16 1226.68 84.2604   5
  12  -8 -16 1175.32 76.2358   1
  12   8 -15 4064.92 142.801   2
  12  -8 -15 3886.49 108.598   2
 -12   8  15 3906.92 140.416   5
  12  -8 -15 3941.51 130.564   1
  12   8 -14 108.155 35.7393   2
  12  -8 -14 115.734 26.7705   2
 -12   8  14 209.151 43.1985   5
  12  -8 -14 138.939 31.5214   1
  12  -8 -13 3342.38 110.890   1
  12   8 -13 3384.61 124.779   2
  12  -8 -12 1892.40 78.9716   1
  12   8 -12 1889.33 90.7083   2
  12  -8 -11 219.314 29.6122   1
  12   8 -11 136.655 31.5766   2
  12   8 -10 16563.3 294.590   2
  12  -8 -10 16478.2 259.818   1
  12   8 -10 15307.7 218.033   4
 -12  -8  10 16388.8 220.268   4
  12   8  -9 1249.89 70.2645   2
  12  -8  -9 1008.61 49.8826   1
 -12   8   9 1165.89 68.6147   4
  12   8  -9 1038.97 42.5243   4
 -12  -8   9 1125.19 44.1294   4
  12   8  -8 2273.66 91.5780   2
  12  -8  -8 2242.93 69.9474   1
 -12   8   8 2109.92 69.7549   1
  12   8  -8 2024.94 64.8280   4
 -12   8   8 2371.65 96.1031   4
 -12  -8   8 2288.49 68.1556   4
  12  -8  -7 2874.80 75.2234   1
  12   8  -7 2720.66 79.8635   4
 -12   8   7 2802.73 105.679   4
 -12  -8   7 2840.74 81.5009   4
  12   8  -7 2909.50 103.424   2
 -12   8   7 2665.38 68.9341   3
  12  -8  -6 1565.13 50.1567   1
 -12   8   6 1457.90 75.7741   4
 -12  -8   6 1623.48 63.5702   4
  12   8  -6 1565.58 74.6669   2
 -12   8   6 1413.33 43.3451   3
  12  -8  -5 25003.4 307.520   1
 -12   8   5 25410.4 392.468   4
 -12  -8   5 24664.4 354.195   4
 -12   8   5 23530.3 286.613   3
  12  -8  -4 11654.0 161.616   1
 -12   8   4 11564.0 234.969   4
 -12  -8   4 11616.4 214.181   4
  12  -8  -3 172.788 14.2153   1
 -12  -8   3 199.111 33.7836   1
 -12   8   3 191.400 35.4829   4
 -12  -8   3 118.162 27.2074   4
  12  -8  -2 7251.44 99.8673   1
 -12  -8   2 7221.61 162.249   1
 -12   8   2 7242.71 180.339   4
 -12  -8   2 6927.91 117.392   5
 -12  -8   2 7290.52 168.619   4
  12  -8  -1 4677.48 68.5920   1
 -12  -8   1 4757.75 127.199   1
 -12   8   1 4813.18 144.518   4
 -12  -8   1 4706.79 136.113   4
 -12  -8   1 4613.19 142.360   3
 -12  -8   0 1555.55 72.1599   1
  12  -8   0 1413.29 30.4088   1
 -12   8   0 1530.25 80.8578   4
 -12  -8   0 1502.52 77.8833   4
 -12  -8   0 1374.27 78.4680   3
 -12  -8  -1 9515.46 194.799   1
 -12   8  -1 9352.62 216.044   4
 -12  -8  -1 9013.84 213.996   3
 -12  -8  -1 9217.29 212.464   4
 -12  -8  -2 23.6888 26.2573   1
 -12   8  -2 59.2581 31.4097   4
 -12  -8  -2 57.9307 31.4913   3
 -12  -8  -2 58.2605 30.5180   4
 -12  -8  -3 2683.94 98.7261   1
 -12   8  -3 2507.74 108.685   4
 -12  -8  -3 2612.27 111.095   3
 -12  -8  -3 2512.46 111.128   4
 -12  -8  -4 3196.08 110.578   1
 -12   8  -4 3062.22 121.713   4
 -12  -8  -4 3047.39 122.494   3
 -12  -8  -4 3224.13 129.453   4
 -12  -8  -5 207.367 35.5497   1
 -12  -8  -5 200.837 40.4864   3
 -12  -8  -5 153.594 40.0289   4
 -12   8  -5 230.144 44.0033   4
 -12  -8  -6 6031.46 164.420   1
 -12  -8  -6 6173.49 190.638   4
 -12   8  -6 6117.25 181.763   4
 -12  -8  -6 5846.97 181.410   3
 -12  -8  -7 4394.73 142.981   1
 -12  -8  -7 4334.87 164.128   4
 -12   8  -7 4187.01 152.604   4
 -12  -8  -7 4095.36 153.542   3
 -12  -8  -8 336.920 45.9696   1
 -12   8  -8 323.800 50.9394   4
 -12  -8  -9 859.042 68.9144   1
 -12   8  -9 752.392 70.4499   4
 -12   8 -10 235.152 49.0685   4
 -12   8 -11 45.2203 36.5027   4
  12 -10 -20-21.5373 39.3397   1
  12  10 -19 1284.53 93.4620   2
 -12  10  19 1350.03 101.341   5
  12 -10 -19 1171.68 88.7480   1
  12  10 -18 1584.36 101.547   2
  12 -10 -18 1486.15 95.3025   1
  12  10 -17 12.4675 34.7487   2
  12 -10 -17 46.1778 32.9232   1
  12  10 -16 3519.71 140.445   2
  12 -10 -16 3150.31 126.172   1
  12  10 -15 2785.26 121.786   2
  12 -10 -15 2495.44 108.382   1
  12  10 -14 97.5049 34.2233   2
  12 -10 -14 97.3757 24.5889   2
  12 -10 -14 87.0461 28.7569   1
  12  10 -13 2855.94 118.338   2
  12 -10 -13 2785.37 105.102   1
  12  10 -12 11357.6 246.394   2
  12 -10 -12 10696.3 219.024   1
  12  10 -11 328.870 44.5395   2
  12 -10 -11 297.347 35.8977   1
  12  10 -10 4432.91 140.086   2
  12 -10 -10 4478.65 121.122   1
  12  10  -9 399.388 45.3697   2
  12 -10  -9 348.319 34.7286   1
  12  10  -8 59.3481 27.8694   2
 -12  10   8 110.262 30.9177   4
  12 -10  -8 125.377 22.3093   1
  12  10  -7 1068.30 64.4376   2
 -12  10   7 1133.83 71.2073   4
  12 -10  -7 1121.00 51.0642   1
  12  10  -6 1634.97 79.0832   2
  12 -10  -6 1747.35 61.3466   1
 -12  10   6 1760.66 87.8272   4
  12  10  -5 47.7362 27.8739   2
  12 -10  -5 89.5414 18.5303   1
 -12  10   5 80.9146 33.8996   4
 -12 -10   5 108.513 25.4454   4
  12 -10  -4 3983.72 88.2373   1
 -12  10   4 4029.82 134.498   4
 -12 -10   4 3926.43 114.094   4
  12  10  -4 3996.80 120.865   2
  12 -10  -3 7765.62 131.416   1
 -12 -10   3 7579.25 179.966   1
 -12  10   3 7643.07 191.877   4
  12  10  -3 7806.73 174.425   2
 -12 -10   3 7546.19 172.826   4
  12 -10  -2 18073.4 241.822   1
 -12 -10   2 18114.5 312.457   1
 -12  10   2 17549.9 322.913   4
 -12 -10   2 17361.5 304.471   4
 -12 -10   1 507.804 49.4694   1
  12 -10  -1 499.692 28.2149   1
 -12  10   1 445.929 50.7430   4
 -12 -10   1 549.989 57.2332   3
 -12 -10   1 497.993 49.3474   4
 -12 -10   0 400.000 43.9558   1
 -12  10   0 412.330 48.0872   4
 -12 -10   0 471.707 54.9114   3
 -12 -10   0 437.637 49.2051   4
 -12 -10  -1 9332.88 207.070   1
 -12  10  -1 9195.84 220.006   4
 -12 -10  -1 9409.03 228.407   3
 -12 -10  -1 9469.21 219.623   4
 -12 -10  -2 1232.87 72.3291   1
 -12  10  -2 1228.79 77.6747   4
 -12 -10  -2 1381.01 85.3406   3
 -12 -10  -3 865.185 63.4159   1
 -12  10  -3 853.781 67.8335   4
 -12 -10  -3 869.540 71.9098   3
 -12 -10  -4 5827.00 165.478   1
 -12  10  -4 5828.72 176.211   4
 -12 -10  -4 5902.96 183.997   3
 -12 -10  -5 4693.16 148.860   1
 -12  10  -5 4555.69 156.858   4
 -12 -10  -5 4636.28 164.131   3
 -12 -10  -6 3145.42 124.158   1
 -12  10  -6 3073.59 131.102   4
 -12 -10  -6 3016.60 135.396   3
 -12 -10  -7 2048.36 103.231   1
 -12  10  -7 2247.72 113.635   4
 -12 -10  -7 2239.99 117.821   3
 -12 -10  -8 23.4269 32.8522   1
 -12  10  -8-37.3715 35.1622   4
 -12 -10  -8 39.8670 38.4612   3
 -12 -10  -9 1458.81 91.8851   1
 -12  10  -9 1370.32 92.2334   4
 -12  10 -10 1367.21 96.9188   4
  12 -12 -19 4548.58 171.936   1
  12  12 -18 6398.92 208.705   2
  12 -12 -18 5791.74 192.550   1
  12  12 -17 184.601 44.8789   2
  12 -12 -17 231.995 44.8461   1
  12  12 -16 1085.32 82.7127   2
  12 -12 -16 1069.47 78.6022   1
  12  12 -15 1999.93 108.012   2
  12 -12 -15 1742.72 94.7987   1
  12  12 -14 586.286 61.6776   2
  12 -12 -14 564.661 55.9473   1
  12  12 -13 1891.80 100.296   2
  12 -12 -13 1908.50 92.4181   1
  12  12 -12 1425.53 85.7992   2
  12 -12 -12 1530.13 79.2918   1
  12  12 -11 118.358 36.5206   2
  12 -12 -11 136.541 29.1857   1
  12  12 -10 9279.73 217.334   2
  12 -12 -10 8939.66 193.911   1
  12  12  -9 178.975 36.7841   2
  12 -12  -9 174.615 31.8680   1
  12  12  -8 597.361 54.5150   2
 -12  12   8 644.941 61.4912   4
  12 -12  -8 565.309 44.2519   1
  12  12  -7 13908.5 258.838   2
 -12  12   7 14270.3 282.385   4
  12  12  -6 8.40137 26.8103   2
 -12  12   6 33.1305 30.1785   4
  12 -12  -6 59.4235 21.9730   1
  12  12  -5 996.637 62.6479   2
 -12  12   5 934.941 68.4949   4
  12 -12  -5 1080.16 52.3635   1
  12  12  -4 234.140 36.1695   2
 -12  12   4 96.0624 33.0879   4
  12 -12  -4 210.619 26.7716   1
 -12 -12   4 173.582 39.9561   1
  12  12  -3 32.0694 28.7781   2
  12 -12  -3 23.5526 17.7364   1
 -12 -12   3 32.1790 34.6464   1
 -12  12   3 22.1408 30.6414   4
 -12 -12   2 5051.31 154.772   1
 -12  12   2 5558.41 164.876   4
  12  12  -2 5295.66 140.902   2
 -12 -12   2 4964.81 164.444   3
 -12 -12   1 4580.19 147.046   1
 -12  12   1 4392.73 148.347   4
  12  12  -1 4510.58 127.490   2
 -12 -12   1 4531.66 157.258   3
  12  12   0 46.1757 26.8827   2
 -12 -12   0 42.7834 29.3825   1
 -12  12   0 37.7841 31.8848   4
 -12 -12   0 55.7961 34.2225   3
 -12 -12  -1 11357.5 251.080   1
 -12  12  -1 11355.2 258.310   4
 -12 -12  -1 11691.2 272.660   3
  12  12   1 11656.8 220.438   2
 -12 -12  -2 90.0351 35.5824   1
 -12  12  -2 150.850 41.5886   4
 -12 -12  -2 98.9006 39.6303   3
 -12 -12  -3 1988.25 98.2797   1
 -12  12  -3 1998.02 103.454   4
 -12 -12  -3 1941.38 108.832   3
 -12 -12  -4 1923.23 99.7248   1
 -12  12  -4 2076.63 105.792   4
 -12 -12  -4 2029.69 111.746   3
 -12 -12  -5 1549.91 92.7807   1
 -12  12  -5 1661.23 95.8338   4
 -12 -12  -5 1660.64 103.153   3
 -12 -12  -6 762.314 68.9142   1
 -12 -12  -6 1000.70 86.2402   3
 -12  12  -6 767.641 69.3595   4
 -12 -12  -7 3802.97 149.475   1
 -12  12  -7 3853.39 153.077   4
 -12 -12  -7 4048.99 167.015   3
 -12 -12  -8 48.7792 36.3160   1
 -12  12  -8-30.8984 39.0314   4
 -12 -12  -9 1984.60 114.309   1
 -12  12  -9 2163.07 118.418   4
  12 -14 -18 1072.55 87.7509   1
  12 -14 -17 37.2686 33.6399   1
  12  14 -16 3363.34 148.540   2
  12 -14 -16 3223.49 138.075   1
  12  14 -15 178.791 43.9333   2
  12 -14 -15 134.246 38.3674   1
  12  14 -14 154.533 39.6146   2
  12 -14 -14 138.588 39.0382   1
  12  14 -13 594.144 62.2302   2
  12 -14 -13 563.079 55.6852   1
  12  14 -12 1730.14 98.7120   2
  12 -14 -12 1641.11 87.6964   1
  12  14 -11 248.719 45.3222   2
  12 -14 -11 195.304 36.8879   1
  12  14 -10 7363.52 198.404   2
  12 -14 -10 7488.55 183.831   1
  12  14  -9-27.4880 31.3898   2
  12 -14  -9 54.2524 25.9418   1
  12  14  -8 2004.27 96.4897   2
 -12  14   8 2124.63 108.826   4
  12 -14  -8 2208.94 89.8021   1
  12  14  -7 286.379 41.8215   2
 -12  14   7 283.549 47.4264   4
  12 -14  -7 234.003 35.3652   1
  12  14  -6 1844.27 88.5354   2
 -12  14   6 1855.81 101.133   4
  12 -14  -6 2002.44 81.1540   1
  12  14  -5 112.974 33.7138   2
 -12  14   5 57.4585 39.7554   4
  12 -14  -5 94.9919 26.8743   1
  12  14  -4 6045.99 160.150   2
 -12  14   4 6240.06 186.341   4
 -12 -14   4 6495.53 188.685   1
  12  14  -3 18.3926 24.0018   2
 -12 -14   3 20.9409 33.0805   1
 -12  14   3 43.0429 35.0006   4
  12  14  -2 3241.97 109.993   2
 -12 -14   2 3168.25 132.217   1
 -12  14   2 3348.41 133.528   4
 -12 -14   2 3546.95 145.420   3
  12  14  -1 520.168 46.1814   2
 -12 -14   1 565.535 60.7960   1
 -12  14   1 590.211 61.9192   4
 -12 -14   1 497.352 58.9553   3
 -12 -14   0 8.63206 32.2664   1
 -12  14   0 21.3364 33.2704   4
 -12 -14   0 21.5283 36.5062   3
 -12 -14  -1 666.237 63.8356   1
 -12  14  -1 651.730 66.0492   4
 -12 -14  -1 599.410 66.1103   3
 -12 -14  -2 2268.15 113.414   1
 -12  14  -2 2424.46 117.501   4
 -12 -14  -2 2677.47 140.888   3
 -12 -14  -3 1.70260 34.8843   1
 -12  14  -3 50.3769 33.4899   4
 -12 -14  -3 22.0223 37.0061   3
 -12 -14  -4 2807.35 130.102   1
 -12  14  -4 2540.61 123.129   4
 -12 -14  -4 2803.69 139.160   3
 -12 -14  -5 1206.23 88.2697   1
 -12  14  -5 1131.21 84.0003   4
 -12 -14  -6 771.283 74.4932   1
 -12  14  -6 771.787 74.0238   4
 -12 -14  -7 269.442 57.6505   1
 -12  14  -7 280.290 50.7484   4
  12 -16 -16 13.1178 36.2503   1
  12 -16 -15 1091.36 85.8232   1
  12  16 -14 307.191 54.6276   2
  12 -16 -14 333.630 54.0412   1
  12  16 -13 3810.57 153.252   2
  12 -16 -13 3397.67 138.026   1
  12  16 -12 348.391 51.7152   2
  12 -16 -12 292.839 47.2624   1
  12  16 -11 1769.45 101.834   2
  12 -16 -11 1692.74 92.5216   1
  12  16 -10 241.197 46.3168   2
  12 -16 -10 352.344 47.3464   1
  12  16  -9 1192.68 80.3914   2
  12 -16  -9 1191.99 74.5243   1
  12  16  -8 345.468 47.0215   2
 -12  16   8 412.258 58.7076   4
  12 -16  -8 359.044 43.0290   1
  12  16  -7 7845.65 202.407   2
 -12  16   7 8698.32 235.236   4
  12 -16  -7 8208.67 193.227   1
  12  16  -6-7.42463 29.6697   2
 -12  16   6 36.0707 35.2504   4
  12  16  -5 1387.90 79.4061   2
 -12  16   5 1455.71 95.4763   4
 -12 -16   5 1414.68 96.2187   1
  12  16  -4 272.111 42.4351   2
 -12 -16   4 254.064 52.4869   1
 -12  16   4 283.704 49.7821   4
 -12 -16   3 585.722 68.0175   1
 -12  16   3 427.405 59.3415   4
 -12 -16   3 526.608 67.0141   3
 -12 -16   2 1376.86 95.1195   1
 -12  16   2 1405.53 91.5472   4
 -12 -16   2 1447.51 99.2857   3
 -12 -16   1 4540.71 166.896   1
 -12  16   1 4611.76 164.395   4
 -12 -16   1 4822.32 181.025   3
 -12 -16   0-18.8394 37.3139   1
 -12  16   0 2.01790 35.4766   4
 -12 -16   0 71.0530 42.6801   3
 -12 -16  -1 3047.72 139.328   1
 -12  16  -1 3086.43 136.933   4
 -12 -16  -1 3377.77 153.903   3
 -12 -16  -2 72.5534 40.5429   1
 -12  16  -2 18.3744 36.6944   4
 -12 -16  -3 235.116 48.1844   1
 -12  16  -3 234.919 50.8583   4
 -12 -16  -4 77.5039 37.9317   1
 -12  16  -4 56.7452 38.1054   4
 -12  16  -5 964.050 83.2483   4
  12 -18 -14 654.013 71.7133   1
  12 -18 -13 9.38137 35.5247   1
  12  18 -12 434.383 58.0521   2
  12 -18 -12 433.646 59.2714   1
  12  18 -11 23.3404 34.6987   2
  12 -18 -11 53.4454 37.9798   1
  12  18 -10 3093.81 134.849   2
  12 -18 -10 3037.72 128.438   1
  12  18  -9 861.409 73.9172   2
  12  18  -8 2464.18 115.231   2
 -12  18   8 2828.83 137.335   4
  12  18  -7 970.295 74.4324   2
 -12  18   7 1113.37 89.3535   4
 -12 -18   6 490.787 70.5679   1
 -12  18   6 358.255 60.6578   4
 -12 -18   5 1024.60 89.1713   1
 -12  18   5 934.166 80.2654   4
 -12 -18   4 1125.69 91.9802   1
 -12  18   4 917.475 81.5870   4
 -12 -18   4 776.354 81.5078   3
 -12  18   3 14.8946 38.9010   4
 -12 -18   3 57.0647 46.1741   1
 -12  18   2 2406.77 126.079   4
 -12 -18   2 2539.69 134.147   1
 -12  18   1 49.7874 38.5017   4
 -12 -18   1 94.1485 45.5473   1
 -12  18   0 277.498 53.5285   4
 -12  18  -1 138.882 46.2969   4
 -12  18  -2 381.619 59.4574   4
  13   1 -24-27.0371 35.2658   2
  13  -1 -23 318.774 50.0521   2
  13   1 -23 364.848 56.6490   2
  13  -1 -22 1838.67 98.2511   2
  13   1 -22 1812.90 101.162   2
 -13   1  22 1864.03 112.406   5
 -13  -1  22 2231.13 122.564   5
  13  -1 -21 753.837 65.7453   2
  13   1 -21 898.389 72.2118   2
 -13  -1  21 1042.76 82.0863   5
 -13   1  21 933.083 79.5686   5
  13  -1 -20 6264.90 177.182   2
  13   1 -20 6168.09 182.823   2
 -13   1  20 6551.55 197.002   5
 -13  -1  20 6348.23 192.948   5
  13  -1 -19 837.465 65.3106   2
  13   1 -19 717.412 63.1271   2
 -13   1  19 810.154 70.2883   5
 -13  -1  19 726.665 65.6653   5
  13  -1 -18 1252.60 75.7657   2
  13   1 -18 1264.42 77.6837   2
 -13   1  18 1279.96 82.0037   5
 -13  -1  18 1333.69 81.0751   5
  13  -1 -17 2276.37 98.1480   2
  13   1 -17 2573.29 106.368   2
 -13   1  17 2320.35 104.792   5
 -13  -1  17 2238.83 99.9560   5
 -13  -1  17 2396.24 78.1765   4
  13  -1 -16 2391.95 97.9327   2
  13   1 -16 2378.15 101.151   2
 -13   1  16 2400.03 101.189   5
 -13  -1  16 2470.37 100.546   5
 -13   1  16 2530.88 86.9520   4
 -13  -1  16 2454.71 77.8152   4
  13  -1 -15 2822.77 105.528   2
  13   1 -15 2791.80 107.228   2
 -13   1  15 3054.01 109.928   5
 -13  -1  15 2833.51 104.164   5
 -13   1  15 3060.92 95.9267   4
 -13  -1  15 3204.41 89.0658   4
  13   1 -14 22389.0 368.585   2
 -13  -1  14 22748.2 357.268   5
 -13   1  14 23500.1 342.715   4
 -13  -1  14 23367.3 327.328   4
 -13   1  14 23123.9 363.013   5
  13  -1 -14 22549.2 364.879   2
 -13  -1  13 5063.11 130.338   5
 -13   1  13 5143.03 124.225   4
 -13   1  13 4892.54 130.212   5
 -13  -1  13 5181.86 116.624   4
  13   1 -13 4800.23 138.893   2
  13  -1 -13 4607.51 132.854   2
 -13  -1  12 887.661 51.1631   5
 -13  -1  12 899.942 47.1371   4
 -13   1  12 948.417 52.4840   4
 -13   1  12 1004.39 55.4552   5
  13   1 -12 903.728 60.6934   2
 -13  -1  11 1533.46 62.7354   5
 -13  -1  11 1594.01 61.9259   4
 -13   1  11 1516.86 64.8635   4
 -13   1  11 1447.62 62.4482   5
 -13   1  10 455.797 32.1451   1
 -13  -1  10 481.641 34.4302   5
 -13  -1  10 546.693 38.5695   4
 -13   1  10 449.715 37.8420   4
 -13   1  10 469.302 36.2767   5
 -13   1   9 2670.96 72.8554   1
 -13  -1   9 2702.38 76.5543   1
 -13   1   9 2866.61 90.3029   4
 -13  -1   9 2737.86 84.3892   4
 -13   1   9 2736.80 76.7968   5
 -13  -1   9 2775.20 74.7871   5
 -13  -1   8 5584.19 112.781   1
 -13   1   8 5425.57 105.888   1
 -13   1   8 6075.33 138.497   4
 -13   1   8 5678.43 111.703   5
 -13  -1   8 5817.77 107.493   5
 -13  -1   8 5776.94 130.488   4
 -13   1   7 341.606 22.3087   1
 -13  -1   7 358.697 25.0014   1
 -13   1   7 438.303 38.2636   4
 -13  -1   7 388.795 35.4151   4
 -13  -1   7 359.119 22.8892   5
 -13   1   6 20365.3 255.633   1
 -13  -1   6 21564.4 320.538   4
 -13   1   6 21763.6 326.183   4
 -13   1   5 4658.41 69.6946   1
 -13  -1   5 4932.05 124.634   4
 -13   1   5 5155.95 131.337   4
 -13  -1   4 439.059 22.3003   1
 -13  -1   4 522.031 43.9299   4
 -13   1   4 472.409 41.1302   4
 -13  -1   3 22130.6 268.281   1
 -13  -1   3 22279.6 347.375   4
 -13   1   3 22403.5 349.941   4
 -13  -1   2 1215.53 32.7344   1
 -13   1   2 1303.08 68.1421   4
 -13  -1   2 1151.23 64.8910   4
 -13  -1   1 138.593 12.7153   1
 -13  -1   1 106.328 22.2670   3
 -13   1   1 134.180 21.4210   3
 -13   1   1 152.512 32.9423   4
 -13  -1   1 125.075 30.3570   4
 -13  -1   0 17732.1 224.511   1
 -13   1   0 18247.8 315.806   4
 -13  -1   0 17788.4 278.659   3
 -13   1   0 17877.8 262.610   3
 -13  -1   0 17858.3 311.559   4
 -13  -1  -1 35.3362 11.1734   1
 -13  -1  -1 33.3043 25.8748   4
 -13  -1  -1 37.6892 19.0259   3
 -13   1  -1 16.0084 24.7617   4
 -13   1  -1 36.4930 18.0185   3
 -13  -1  -2 1783.07 50.3256   1
 -13  -1  -2 1747.73 71.5306   3
 -13   1  -2 1556.32 83.8767   4
 -13   1  -2 1700.89 64.0595   3
 -13  -1  -2 1738.28 87.7547   4
 -13  -1  -3 16186.5 226.320   1
 -13  -1  -3 16209.5 270.445   3
 -13   1  -3 15475.5 303.280   4
 -13  -1  -3 15882.8 308.485   4
 -13  -1  -4 652.584 35.0736   1
 -13   1  -4 654.883 60.9716   4
 -13  -1  -4 676.579 60.9569   4
 -13  -1  -4 676.706 47.8881   3
 -13  -1  -5 2421.56 112.736   4
 -13   1  -5 2386.10 111.150   4
 -13  -1  -6 14121.0 304.172   4
 -13   1  -6 14329.0 303.392   4
 -13   1  -7 13.8976 31.2187   4
 -13  -1  -7-8.28795 36.4343   4
 -13   1  -8 9275.25 245.129   4
 -13  -1  -8 9291.45 247.415   4
 -13   1  -9 98.0793 35.7649   4
 -13  -1  -9 191.389 49.2906   4
 -13   1 -10 74.8467 42.5269   4
 -13  -1 -10 95.3341 44.9671   4
  13   3 -23 2869.94 135.619   2
  13   3 -22 47.8321 37.9255   2
 -13   3  22 16.0426 38.6257   5
 -13  -3  22 34.5853 41.0529   5
  13  -3 -21 547.870 53.1544   2
  13   3 -21 470.004 57.9744   2
 -13   3  21 478.838 60.6796   5
 -13  -3  21 606.414 66.4226   5
  13  -3 -20 2707.15 109.280   2
  13   3 -20 2513.30 117.796   2
 -13   3  20 2761.84 128.082   5
  13  -3 -19 176.057 35.2606   2
  13   3 -19 126.176 36.5334   2
 -13   3  19 193.695 45.2901   5
  13   3 -18 1005.74 72.3313   2
  13  -3 -18 1058.75 66.4526   2
 -13   3  18 1118.89 77.0485   5
  13  -3 -17 13610.7 260.230   2
  13   3 -17 13563.4 278.779   2
 -13   3  17 13682.0 279.448   5
  13  -3 -16 591.867 50.1481   2
  13   3 -16 681.329 60.5420   2
 -13  -3  16 631.222 34.5068   4
 -13   3  16 526.534 51.6384   5
  13   3 -15 564.883 52.3516   2
  13  -3 -15 642.716 51.6185   2
 -13   3  15 592.075 53.0849   5
 -13  -3  15 667.055 35.3677   4
  13   3 -14 608.850 54.7555   2
  13  -3 -14 589.707 50.2165   2
 -13   3  14 512.694 48.0570   5
 -13  -3  14 665.668 35.7249   4
 -13   3  14 613.246 46.9850   4
  13   3 -13 2222.07 94.4165   2
 -13   3  13 2227.47 86.1015   4
 -13  -3  13 2270.85 66.9954   4
 -13   3  13 2196.56 87.7176   5
  13  -3 -13 2124.32 87.1816   2
  13   3 -12 341.814 42.7902   2
 -13   3  12 428.242 40.5390   5
 -13  -3  12 462.814 31.5422   4
 -13   3  12 458.995 41.5237   4
 -13  -3  11 12357.9 197.575   4
 -13   3  11 12035.9 223.301   4
 -13   3  11 11795.5 214.541   5
  13   3 -11 11901.1 235.447   2
 -13   3  10 210.442 23.4183   1
 -13   3  10 303.489 32.5608   5
 -13   3  10 233.379 31.5357   4
 -13  -3  10 252.485 26.4330   4
 -13   3   9 14497.4 219.625   1
 -13   3   9 15071.9 258.586   4
 -13  -3   9 15426.9 236.694   4
 -13   3   9 15108.7 237.639   5
 -13   3   8 5627.83 105.878   1
 -13  -3   8 5899.54 108.652   5
 -13  -3   8 6023.41 129.986   4
 -13   3   8 5896.39 143.221   4
 -13   3   7 7.93660 9.42565   1
 -13  -3   7 13.1604 10.6095   5
 -13   3   7-2.17015 19.8607   4
 -13  -3   7 56.2201 20.9420   4
 -13   3   6 1101.02 29.7428   1
  13  -3  -6 1145.71 43.4405   5
 -13  -3   6 1131.38 31.5405   5
 -13   3   6 1241.28 64.2536   4
 -13  -3   6 1181.92 57.3360   4
  13  -3  -5 26572.3 340.310   5
 -13   3   5 28029.8 407.824   4
 -13  -3   5 27631.4 391.195   4
 -13   3   4 2337.96 90.0465   4
  13  -3  -4 2258.92 56.6289   5
 -13  -3   4 2300.03 84.7435   4
 -13  -3   3 20980.8 276.992   1
 -13   3   3 21283.0 338.808   4
  13  -3  -3 19876.7 259.420   5
 -13  -3   3 20471.2 325.203   4
 -13  -3   2 5919.19 110.072   1
 -13   3   2 5812.22 152.048   4
  13  -3  -2 5619.88 97.2040   5
 -13  -3   2 5921.25 149.703   4
 -13   3   2 5906.18 106.695   3
 -13  -3   1 7023.05 123.655   1
  13  -3  -1 6940.77 112.364   5
 -13   3   1 6867.38 171.367   4
 -13   3   1 7034.78 120.237   3
 -13  -3   1 6937.90 157.504   3
 -13  -3   1 7050.08 168.840   4
 -13  -3   0 10435.1 166.272   1
 -13   3   0 10147.9 220.681   4
 -13   3   0 10742.1 162.664   3
 -13  -3   0 10098.2 219.094   4
 -13  -3   0 10341.9 204.941   3
 -13  -3  -1 1259.36 48.3240   1
 -13   3  -1 1137.09 71.9202   4
 -13  -3  -1 1197.84 63.5341   3
 -13  -3  -1 1089.80 69.6201   4
 -13  -3  -2 5932.15 119.044   1
 -13  -3  -2 5481.27 161.564   4
 -13  -3  -2 5904.95 149.104   3
 -13   3  -2 5758.25 164.114   4
 -13  -3  -3 8997.24 162.158   1
 -13  -3  -3 8982.79 216.584   4
 -13  -3  -3 8891.33 194.184   3
 -13   3  -3 8763.18 214.822   4
 -13  -3  -4 2461.85 78.2793   1
 -13  -3  -4 2594.56 114.344   4
 -13  -3  -4 2646.35 100.055   3
 -13   3  -4 2577.35 112.167   4
 -13  -3  -5 14026.7 232.850   1
 -13  -3  -5 14266.2 300.733   4
 -13   3  -5 13929.3 292.782   4
 -13  -3  -5 13667.0 265.548   3
 -13  -3  -6 2153.54 108.673   4
 -13   3  -6 2135.67 107.954   4
 -13   3  -7 0.77063 34.7709   4
 -13  -3  -7 69.2755 36.5320   4
 -13   3  -8 2367.55 119.757   4
 -13  -3  -8 2610.52 127.867   4
 -13   3  -9 1567.09 100.060   4
 -13  -3  -9 1556.93 102.996   4
 -13   3 -10 82.4860 44.9171   4
  13   5 -22 935.172 79.7113   2
  13   5 -21 416.798 57.6951   2
 -13   5  21 505.238 69.4020   5
  13   5 -20 828.877 75.7817   2
 -13   5  20 592.429 70.8864   5
  13  -5 -19 254.810 38.0321   2
  13   5 -19 391.411 56.8335   2
 -13   5  19 380.218 59.8472   5
  13   5 -18 6349.77 187.515   2
  13  -5 -18 6321.89 160.706   2
 -13   5  18 6393.17 189.369   5
  13  -5 -17-23.4594 25.0819   2
  13   5 -17 8.28247 29.4767   2
 -13   5  17-51.2749 36.4586   5
  13   5 -16 577.107 57.9854   2
  13  -5 -16 560.325 47.9634   2
 -13   5  16 418.553 50.2182   5
  13   5 -15 1476.81 82.8992   2
 -13   5  15 1386.21 79.3882   5
  13  -5 -15 1359.35 69.3774   2
  13   5 -14 10150.4 227.451   2
 -13   5  14 10300.4 220.897   5
 -13  -5  14 10344.0 151.820   4
  13  -5 -14 9878.37 202.785   2
  13   5 -13 970.030 65.9797   2
 -13  -5  13 970.811 37.9080   4
 -13   5  13 974.754 62.8766   5
  13   5 -12 3912.37 128.667   2
  13  -5 -12 3923.16 109.208   1
 -13   5  12 4092.07 123.125   4
 -13   5  12 3913.99 119.476   5
 -13  -5  12 4069.51 87.2222   4
 -13   5  11 2936.88 102.599   4
 -13   5  11 2727.71 95.3745   5
 -13  -5  11 2913.12 74.3640   4
  13   5 -11 2638.88 103.758   2
 -13   5  10 1442.63 57.4790   1
 -13   5  10 1599.08 75.4042   4
 -13  -5  10 1579.47 56.0941   4
  13   5 -10 1599.57 78.8584   2
 -13   5   9 1258.70 49.6499   1
  13   5  -9 1230.53 51.9275   4
 -13   5   9 1355.28 69.6435   4
 -13  -5   9 1381.62 53.9170   4
  13   5  -9 1271.61 69.6082   2
 -13   5   8 5069.40 101.149   1
 -13   5   8 5468.02 144.131   4
 -13  -5   8 5230.32 117.703   4
 -13   5   7 1471.63 44.1220   1
  13  -5  -7 1344.05 56.8807   5
 -13   5   7 1476.78 73.5255   4
 -13  -5   7 1568.56 62.8935   4
 -13   5   6 33367.8 474.179   4
  13  -5  -6 32400.3 425.964   5
 -13  -5   6 33056.2 445.958   4
 -13   5   5 87.7708 28.2972   4
  13  -5  -5 90.6961 19.1602   5
 -13  -5   5 99.1202 24.9839   4
  13  -5  -4 3027.18 80.0749   5
 -13   5   4 3291.84 111.833   4
 -13  -5   4 3151.19 100.764   4
 -13  -5   3 2046.89 69.5012   1
 -13   5   3 1971.18 87.0891   4
  13  -5  -3 1944.16 62.1277   5
 -13   5   3 2059.42 45.3581   3
 -13  -5   3 2026.18 82.8249   4
 -13  -5   2 8137.70 153.077   1
 -13   5   2 8381.21 192.151   4
 -13  -5   2 7875.46 180.335   4
 -13   5   2 7999.92 109.133   3
 -13  -5   1 1022.71 48.4993   1
 -13   5   1 980.092 65.0382   4
 -13  -5   1 1012.24 63.8514   4
 -13  -5   1 1066.23 64.4695   3
 -13  -5   0 17485.6 263.490   1
 -13   5   0 17679.4 316.593   4
 -13  -5   0 17008.4 306.993   4
 -13  -5   0 17225.8 302.074   3
 -13  -5  -1 42.3366 17.6100   1
 -13  -5  -1 37.5394 30.5608   4
 -13  -5  -1-13.9487 29.6274   3
 -13   5  -1 70.2102 28.9440   4
 -13  -5  -2 1422.51 60.9970   1
 -13   5  -2 1407.44 80.9546   4
 -13  -5  -2 1439.57 82.0030   4
 -13  -5  -2 1332.27 73.8579   3
 -13  -5  -3 1889.55 72.3351   1
 -13   5  -3 1779.13 94.4918   4
 -13  -5  -3 1901.12 95.8271   4
 -13  -5  -3 1746.23 85.5702   3
 -13  -5  -4 24.6230 19.6609   1
 -13  -5  -4 88.3990 33.0540   3
 -13  -5  -4 4.28713 30.2895   4
 -13   5  -4 6.68916 28.1557   4
 -13  -5  -5 198.588 30.1769   1
 -13  -5  -5 267.508 42.0027   3
 -13  -5  -5 128.554 37.8822   4
 -13   5  -5 186.214 39.7088   4
 -13  -5  -6 12849.5 239.296   1
 -13  -5  -6 12815.3 291.336   4
 -13   5  -6 12662.0 282.903   4
 -13  -5  -6 12736.7 270.336   3
 -13  -5  -7 836.702 75.3888   4
 -13   5  -7 930.108 78.2452   4
 -13  -5  -8 6857.42 215.083   4
 -13   5  -8 6597.42 203.309   4
 -13  -5  -9 184.692 49.9981   4
 -13   5  -9 123.214 43.2786   4
 -13   5 -10 275.158 51.6659   4
  13   7 -21 305.864 53.5026   2
 -13   7  21 206.862 54.2070   5
  13   7 -20 38.0969 36.4532   2
 -13   7  20 10.5783 42.4605   5
  13   7 -19 1233.46 88.3114   2
 -13   7  19 1161.64 86.4500   5
  13  -7 -19 1103.75 83.0629   1
  13   7 -18 663.839 64.9783   2
 -13   7  18 500.594 61.9772   5
  13  -7 -18 533.931 58.1853   1
  13   7 -17 7800.32 213.520   2
  13  -7 -17 7816.94 173.995   2
 -13   7  17 7715.09 209.820   5
  13  -7 -17 7679.22 198.214   1
  13   7 -16-26.3248 32.4840   2
  13  -7 -16 20.4557 21.6979   2
 -13   7  16-49.5751 37.2249   5
  13  -7 -16-2.43303 26.3302   1
  13   7 -15 50.0918 33.6225   2
  13  -7 -15 114.874 30.5022   2
 -13   7  15 73.4052 36.8873   5
  13  -7 -15 94.5551 28.7824   1
  13   7 -14 192.509 40.3242   2
  13  -7 -14 200.441 34.2458   2
 -13   7  14 187.281 39.9128   5
  13  -7 -14 159.670 31.4296   1
  13  -7 -13-2.71475 20.4350   1
  13   7 -13 3.03057 29.5867   2
  13  -7 -12-2.30910 20.4788   1
  13   7 -12 38.8206 31.7946   2
 -13  -7  12 26.8607 12.4954   4
  13   7 -11 19392.5 338.386   2
  13  -7 -11 19636.2 300.667   1
 -13   7  11 19183.7 333.988   4
 -13  -7  11 20138.2 266.079   4
  13   7 -10 460.667 48.3294   2
  13  -7 -10 372.051 32.5532   1
 -13   7  10 401.657 44.1568   4
  13   7 -10 338.173 26.3406   4
 -13  -7  10 368.542 27.3940   4
  13  -7  -9 7225.85 137.889   1
 -13   7   9 6943.59 138.644   1
 -13   7   9 7411.80 178.996   4
  13   7  -9 6692.37 134.594   4
  13   7  -9 7281.17 177.054   2
 -13  -7   9 7546.29 139.238   4
  13  -7  -8 1320.49 48.5898   1
 -13   7   8 1253.55 49.2600   1
  13   7  -8 1192.26 52.3386   4
 -13   7   8 1392.62 73.9247   4
 -13  -7   8 1351.77 55.8088   4
  13   7  -8 1445.37 74.5753   2
  13  -7  -7 754.575 33.9761   1
 -13   7   7 807.677 58.8471   4
 -13  -7   7 810.906 45.8333   4
  13   7  -7 782.471 57.1678   2
  13  -7  -6 2118.37 51.8202   1
 -13   7   6 2093.81 91.2801   4
 -13  -7   6 2087.44 76.3650   4
  13  -7  -5 22848.3 272.430   1
 -13   7   5 23465.7 375.180   4
 -13  -7   5 22978.0 345.639   4
 -13   7   4 37.7732 25.9751   4
 -13  -7   4 30.2577 21.6745   4
 -13  -7   3 37828.1 499.449   1
 -13   7   3 37266.0 538.641   4
 -13  -7   3 36721.5 422.628   5
 -13  -7   3 36793.6 515.776   4
 -13  -7   2 1009.74 55.6905   1
 -13   7   2 929.761 63.4260   4
 -13  -7   2 860.254 58.2550   4
 -13  -7   1 3983.50 111.556   1
 -13   7   1 3926.16 131.723   4
 -13  -7   1 4093.27 128.891   4
 -13  -7   1 3968.65 130.412   3
 -13  -7   0 293.575 33.1199   1
 -13   7   0 261.665 40.0435   4
 -13  -7   0 274.249 41.5466   3
 -13  -7   0 242.613 37.3048   4
 -13  -7  -1 733.639 48.1851   1
 -13   7  -1 767.521 62.4754   4
 -13  -7  -1 697.225 58.9842   3
 -13  -7  -1 715.039 59.3010   4
 -13  -7  -2 4121.60 117.863   1
 -13   7  -2 3881.13 136.780   4
 -13  -7  -2 4040.20 136.874   3
 -13  -7  -2 4101.99 140.649   4
 -13  -7  -3 13820.6 248.456   1
 -13   7  -3 13229.0 280.796   4
 -13  -7  -3 13040.0 274.993   3
 -13  -7  -3 13632.4 287.530   4
 -13  -7  -4 1321.05 69.6500   1
 -13   7  -4 1200.56 82.7713   4
 -13  -7  -4 1159.01 82.2376   4
 -13  -7  -4 1062.40 74.3363   3
 -13  -7  -5 20743.4 342.749   1
 -13  -7  -5 20687.5 392.726   4
 -13  -7  -5 20358.2 376.019   3
 -13   7  -5 20348.8 380.618   4
 -13  -7  -6 8.83514 24.2837   1
 -13  -7  -6 18.9783 33.9103   3
 -13  -7  -6-42.9869 35.8084   4
 -13   7  -6 42.4156 35.8172   4
 -13   7  -7 132.907 39.3449   4
 -13  -7  -7 231.553 51.7514   4
 -13  -7  -7 215.570 44.5005   3
 -13   7  -8 568.954 63.0813   4
 -13  -7  -8 756.869 75.3040   4
 -13   7  -9 635.646 69.3789   4
 -13   7 -10 105.456 41.6361   4
  13  -9 -21 564.266 66.3826   1
  13   9 -20 5978.71 201.602   2
 -13   9  20 6042.58 205.563   5
  13  -9 -20 6108.33 195.315   1
  13   9 -19 613.042 66.7780   2
 -13   9  19 706.392 74.4713   5
  13  -9 -19 602.446 63.2505   1
  13   9 -18 1208.04 87.6889   2
 -13   9  18 1273.66 93.3535   5
  13  -9 -18 1127.13 78.2226   1
  13  -9 -17 43.8214 27.3410   1
  13   9 -17 86.0571 38.5401   2
  13  -9 -16 604.802 56.3747   1
  13   9 -16 557.616 62.3615   2
  13  -9 -15 130.211 32.3409   1
  13   9 -15 180.032 47.4013   2
  13  -9 -15 131.270 28.4770   2
  13  -9 -14 2492.96 99.0984   1
  13   9 -14 2480.37 112.819   2
  13  -9 -13-22.8223 27.2138   1
  13   9 -13 13.6180 31.8269   2
  13  -9 -12 2713.99 96.3073   1
  13   9 -12 2853.51 114.768   2
  13  -9 -11 1364.67 65.1877   1
  13   9 -11 1411.94 80.4947   2
  13   9 -10 1797.19 88.1134   2
  13  -9 -10 1799.41 71.1445   1
 -13   9  10 1696.12 88.1383   4
 -13  -9  10 1829.17 56.9738   4
  13   9  -9 481.929 48.0561   2
  13  -9  -9 514.793 38.0538   1
 -13   9   9 509.347 50.5952   4
 -13  -9   9 556.674 35.0626   4
  13   9  -8 2852.17 107.369   2
  13  -9  -8 2881.06 81.0127   1
 -13   9   8 2984.14 115.258   4
 -13  -9   8 2865.25 83.3539   4
  13   9  -7 248.352 38.7637   2
  13  -9  -7 325.286 26.9254   1
 -13   9   7 240.554 38.9648   4
 -13  -9   7 304.572 31.8740   4
  13  -9  -6 4439.23 93.1106   1
 -13   9   6 4577.15 143.431   4
 -13  -9   6 4547.70 118.741   4
  13   9  -6 4589.09 135.022   2
  13   9  -5 89.4201 34.1838   2
  13  -9  -5 47.0994 14.2967   1
 -13   9   5 24.4581 28.2075   4
 -13  -9   5 102.107 26.2205   4
  13  -9  -4 31.7456 11.5629   1
 -13  -9   4 13.6970 25.6442   1
 -13   9   4 41.5966 28.6388   4
 -13  -9   4 27.4497 23.0859   4
 -13  -9   3 13699.7 253.087   1
 -13   9   3 13840.3 275.490   4
 -13  -9   3 13199.2 252.462   4
 -13  -9   2 1075.71 63.9767   1
 -13   9   2 1048.62 70.6524   4
 -13  -9   2 1071.06 66.9251   4
 -13  -9   1 2229.83 89.8662   1
 -13   9   1 2229.04 101.791   4
 -13  -9   1 2181.57 95.4768   4
 -13  -9   1 2347.40 106.349   3
 -13  -9   0 24181.9 376.361   1
 -13   9   0 24074.3 406.025   4
 -13  -9   0 23011.3 392.996   4
 -13  -9   0 23680.1 407.584   3
 -13  -9  -1 311.741 39.3112   1
 -13   9  -1 283.354 45.8629   4
 -13  -9  -1 295.937 42.8427   3
 -13  -9  -1 334.846 45.9856   4
 -13  -9  -2 2256.65 93.4535   1
 -13   9  -2 2389.28 109.683   4
 -13  -9  -2 2370.17 110.587   3
 -13  -9  -2 2287.58 107.333   4
 -13  -9  -3 512.945 49.0354   1
 -13  -9  -3 444.536 55.6015   3
 -13  -9  -3 502.361 57.0954   4
 -13   9  -3 479.801 56.6802   4
 -13  -9  -4 666.178 56.4001   1
 -13  -9  -4 697.507 68.3200   4
 -13   9  -4 788.694 69.7688   4
 -13  -9  -4 573.333 61.6386   3
 -13  -9  -5 1151.77 73.3643   1
 -13   9  -5 1159.31 83.9938   4
 -13  -9  -5 1051.81 83.8666   3
 -13  -9  -5 1218.64 87.3803   4
 -13  -9  -6 4133.30 139.675   1
 -13  -9  -6 4255.08 159.412   3
 -13   9  -6 4099.02 154.030   4
 -13  -9  -7 23.3130 26.7996   1
 -13  -9  -7-12.0593 35.6054   3
 -13   9  -7 42.6632 34.3980   4
 -13   9  -8 5532.42 187.393   4
 -13   9  -9 242.252 51.4391   4
  13 -11 -20 27.0294 37.4711   1
  13 -11 -19 4724.32 172.431   1
  13  11 -18 373.106 55.5524   2
  13 -11 -18 292.905 48.0043   1
  13  11 -17 3321.42 143.561   2
  13 -11 -17 2844.68 125.475   1
  13  11 -16 229.424 45.6174   2
  13 -11 -16 355.634 48.4418   1
  13  11 -15 789.542 70.6600   2
  13 -11 -15 708.769 61.8708   1
  13  11 -14 1392.66 88.0446   2
  13 -11 -14 1249.52 76.2490   1
  13  11 -13 5538.31 173.628   2
  13 -11 -13 5534.50 154.402   1
  13  11 -12 53.0583 31.3084   2
  13 -11 -12 53.7164 23.7731   1
  13  11 -11 7231.70 191.916   2
  13 -11 -11 6792.27 162.571   1
  13  11 -10 338.509 45.3982   2
  13 -11 -10 326.167 35.8840   1
  13  11  -9 1956.25 92.9886   2
 -13  11   9 1830.53 95.4969   4
  13 -11  -9 1492.48 66.0204   1
  13  11  -8 1101.83 71.0669   2
 -13  11   8 1193.55 78.9849   4
  13 -11  -8 1181.82 56.0591   1
  13  11  -7 416.051 45.1389   2
 -13  11   7 356.957 46.5102   4
  13 -11  -7 452.360 35.2374   1
  13  11  -6 47.2154 30.4509   2
  13 -11  -6 22.8374 17.6987   1
 -13  11   6-27.8967 28.5039   4
  13 -11  -5 2546.33 72.8641   1
 -13  11   5 2744.16 115.717   4
  13  11  -5 2540.84 100.233   2
  13  11  -4 376.723 44.0505   2
 -13 -11   4 343.630 45.9403   1
 -13  11   4 340.495 48.3937   4
 -13 -11   3 11165.7 238.744   1
 -13  11   3 11649.4 254.928   4
  13  11  -3 11429.2 229.250   2
  13  11  -2 76.1964 33.4463   2
 -13 -11   2 6.23555 28.7492   1
 -13  11   2 44.8319 28.9723   4
 -13 -11   2 17.2939 34.9332   3
 -13 -11   1 1099.34 70.9874   1
 -13  11   1 1051.41 74.6188   4
 -13 -11   1 1034.54 75.8051   3
 -13 -11   0 1844.92 90.6524   1
 -13  11   0 1702.13 94.2939   4
 -13 -11   0 1847.55 103.745   3
 -13 -11  -1 231.004 41.8385   1
 -13  11  -1 172.398 41.8342   4
 -13 -11  -1 170.426 42.9785   3
 -13 -11  -2 1598.65 86.4179   1
 -13  11  -2 1617.31 94.6316   4
 -13 -11  -2 1519.44 95.5229   3
 -13 -11  -3 3294.50 125.607   1
 -13  11  -3 3170.75 131.826   4
 -13 -11  -3 3289.20 139.773   3
 -13 -11  -4 21.3430 30.0845   1
 -13  11  -4-39.2383 31.5381   4
 -13 -11  -4-5.68846 35.9596   3
 -13 -11  -5 3290.45 129.652   1
 -13  11  -5 3535.34 142.266   4
 -13 -11  -5 3704.18 153.448   3
 -13 -11  -6 613.830 60.3994   1
 -13 -11  -6 608.601 71.1439   3
 -13  11  -6 593.938 64.3606   4
 -13 -11  -7 218.967 44.4762   1
 -13 -11  -7 161.358 45.0489   3
 -13  11  -7 184.601 46.8576   4
 -13  11  -8 479.262 64.2257   4
  13 -13 -19 0.76626 37.1795   1
  13 -13 -18 1237.73 89.0236   1
  13  13 -17 1075.89 88.2872   2
  13 -13 -17 1192.02 85.1107   1
  13  13 -16 385.833 54.7811   2
  13 -13 -16 271.995 48.5054   1
  13  13 -15 70.6778 38.0426   2
  13 -13 -15 40.8254 34.1869   1
  13  13 -14 5293.44 177.175   2
  13 -13 -14 4985.41 159.576   1
  13  13 -13-3.08455 32.0848   2
  13 -13 -13 0.95118 26.2923   1
  13  13 -12 5078.65 166.924   2
  13 -13 -12 4874.08 146.406   1
  13  13 -11 55.5173 31.4850   2
  13 -13 -11 125.633 31.7876   1
  13  13 -10 250.494 43.4699   2
  13 -13 -10 247.325 35.9762   1
  13  13  -9 448.668 52.5333   2
 -13  13   9 381.031 54.9984   4
  13 -13  -9 306.849 38.0798   1
  13  13  -8 6818.30 184.664   2
 -13  13   8 7134.53 203.690   4
  13 -13  -8 7419.27 163.466   1
  13  13  -7 298.404 41.7781   2
 -13  13   7 312.203 48.0702   4
  13 -13  -7 318.694 34.8195   1
  13  13  -6 1352.17 77.1223   2
 -13  13   6 1571.08 92.8863   4
  13  13  -5 806.503 61.0905   2
 -13  13   5 973.249 76.2406   4
  13  13  -4 958.333 62.9681   2
 -13  13   4 1007.52 76.5161   4
 -13 -13   4 972.945 71.4284   1
  13  13  -3 68.4721 31.2697   2
 -13 -13   3 12.4587 31.1073   1
 -13  13   3 45.7382 34.1744   4
  13  13  -2 794.669 58.1292   2
 -13 -13   2 758.355 65.7331   1
 -13  13   2 752.167 66.3273   4
 -13 -13   2 756.618 70.8250   3
  13  13  -1 16.0636 25.9568   2
 -13 -13   1 1.25520 30.7839   1
 -13  13   1 4.95646 34.7045   4
 -13 -13   1 59.4968 39.4386   3
 -13 -13   0 5447.81 170.900   1
 -13  13   0 5472.29 177.552   4
 -13 -13   0 5644.61 188.432   3
  13  13   0 5649.92 148.472   2
 -13 -13  -1-41.6555 32.2069   1
 -13  13  -1 61.9268 38.1605   4
 -13 -13  -1-9.91064 37.5385   3
 -13 -13  -2 5598.83 174.886   1
 -13  13  -2 5382.64 178.233   4
 -13 -13  -2 5560.42 190.282   3
 -13 -13  -3 18.6144 32.1190   1
 -13  13  -3 31.7230 38.4222   4
 -13 -13  -3-3.85578 40.2312   3
 -13 -13  -4 1766.27 101.378   1
 -13  13  -4 1780.37 103.851   4
 -13 -13  -4 1836.03 112.198   3
 -13 -13  -5 2085.42 112.426   1
 -13  13  -5 2313.59 119.658   4
 -13 -13  -6 2237.60 118.642   1
 -13  13  -6 2292.00 119.840   4
 -13 -13  -7 7.71346 43.1682   1
 -13  13  -7 30.5073 39.7502   4
  13 -15 -17 651.962 69.2597   1
  13 -15 -16 195.685 47.3297   1
  13  15 -15 711.757 72.8931   2
  13 -15 -15 676.954 68.2341   1
  13  15 -14 610.752 68.6368   2
  13 -15 -14 685.645 66.4694   1
  13  15 -13 445.001 59.9726   2
  13 -15 -13 601.291 58.9519   1
  13  15 -12 1604.02 98.1050   2
  13 -15 -12 1540.33 86.3998   1
  13  15 -11 4989.56 168.823   2
  13 -15 -11 4857.11 150.185   1
  13  15 -10 64.7524 35.6824   2
  13 -15 -10 74.9329 29.7248   1
  13  15  -9 3104.03 126.934   2
 -13  15   9 3076.80 136.907   4
  13 -15  -9 3229.38 114.269   1
  13  15  -8 630.730 60.7278   2
 -13  15   8 682.791 71.1576   4
  13  15  -7 294.443 46.3837   2
 -13  15   7 407.553 54.7077   4
  13  15  -6 3894.99 133.658   2
 -13  15   6 3575.60 146.684   4
  13  15  -5 203.729 37.9200   2
 -13  15   5 297.147 50.1573   4
 -13 -15   5 316.764 54.1826   1
  13  15  -4-2.27689 26.5467   2
 -13 -15   4 33.8346 34.4675   1
 -13  15   4-4.08291 33.7517   4
  13  15  -3 6144.30 162.529   2
 -13 -15   3 5921.99 188.451   1
 -13  15   3 5919.69 188.567   4
 -13 -15   3 6088.41 201.720   3
 -13 -15   2 929.710 79.2042   1
 -13  15   2 856.982 76.0670   4
 -13 -15   2 969.990 83.6806   3
 -13 -15   1 277.019 50.0053   1
 -13  15   1 329.498 53.0849   4
 -13 -15   1 270.936 53.6546   3
 -13 -15   0 2041.39 112.264   1
 -13  15   0 2174.53 117.242   4
 -13 -15   0 1916.07 115.192   3
 -13 -15  -1 1210.62 88.4977   1
 -13  15  -1 1149.28 86.4220   4
 -13 -15  -1 1277.54 97.0876   3
 -13 -15  -2 259.184 51.5667   1
 -13  15  -2 263.230 48.8763   4
 -13 -15  -3 1084.93 83.8500   1
 -13  15  -3 1026.58 83.8471   4
 -13 -15  -4-37.3673 44.5116   1
 -13  15  -4 15.5520 34.8018   4
 -13 -15  -5 120.671 44.9310   1
 -13  15  -5 175.310 48.4721   4
  13 -17 -15 617.038 68.2085   1
  13 -17 -14 1563.75 98.7785   1
  13  17 -13-11.2564 37.8850   2
  13 -17 -13-1.09499 33.4336   1
  13  17 -12 623.534 68.3184   2
  13 -17 -12 802.824 69.5079   1
  13  17 -11 1762.34 104.771   2
  13  17 -10 232.688 48.9102   2
  13  17  -9 507.743 59.0196   2
 -13  17   9 543.111 68.6124   4
  13  17  -8 2750.95 120.836   2
 -13  17   8 2923.78 141.602   4
  13  17  -7 202.299 41.5885   2
 -13  17   7 316.873 54.9676   4
  13  17  -6 179.906 40.1462   2
 -13 -17   6 300.082 58.4174   1
 -13  17   6 206.341 48.8086   4
 -13 -17   5 569.011 71.1116   1
 -13  17   5 613.650 70.3751   4
 -13 -17   4 1197.44 90.3541   1
 -13  17   4 1307.52 93.9266   4
 -13 -17   4 1469.92 104.423   3
 -13 -17   3 1008.17 87.0856   1
 -13  17   3 970.351 84.1447   4
 -13 -17   3 1102.34 93.2021   3
 -13  17   2 758.503 73.9234   4
 -13 -17   2 1006.88 85.7456   1
 -13  17   1 708.069 74.0712   4
 -13 -17   1 643.968 70.9172   1
 -13  17   0 217.743 47.4153   4
 -13 -17   0 223.255 51.3326   1
 -13  17  -1 242.344 51.3452   4
 -13 -17  -1 442.705 65.4815   1
 -13  17  -2 1106.74 91.2344   4
  13  19 -10 604.284 68.6878   2
  13  19  -9 826.714 74.3658   2
  14   0 -24 707.708 71.1446   2
  14   0 -23 39.0699 36.2321   2
  14   0 -22 4824.84 166.892   2
 -14   0  22 5224.82 185.280   5
  14   0 -21 15.6993 32.5575   2
 -14   0  21-11.5970 39.4524   5
  14   0 -20 583.834 59.1214   2
 -14   0  20 543.669 61.9869   5
  14   0 -19 13.6757 32.0531   2
 -14   0  19-8.85400 32.0716   5
  14   0 -18 7866.26 201.075   2
 -14   0  18 8315.47 209.481   5
 -14   0  18 8257.43 169.522   4
  14   0 -17-30.7438 35.2672   2
 -14   0  17 53.8953 23.6754   4
 -14   0  17 33.8525 32.5985   5
  14   0 -16 2035.44 92.6729   2
 -14   0  16 2195.66 94.9476   5
 -14   0  16 1840.86 72.4436   4
  14   0 -15 57.8949 28.7037   2
 -14   0  15 18.7950 19.5636   4
 -14   0  15 38.5132 27.6610   5
 -14   0  14 3453.46 111.063   5
 -14   0  14 3280.37 97.7873   4
  14   0 -14 3148.92 114.271   2
  14   0 -13 20.1593 30.2499   2
 -14   0  13 0.14957 24.3543   5
 -14   0  13-13.5619 20.4744   4
 -14   0  12 15789.8 258.107   4
 -14   0  12 15933.7 260.146   5
 -14   0  11-4.76034 18.1319   4
 -14   0  11-20.6387 21.1568   5
 -14   0  10 5950.69 125.684   1
 -14   0  10 6327.89 143.627   4
 -14   0  10 6113.32 126.257   5
 -14   0   9 1.12241 13.1871   1
 -14   0   9 6.60739 15.7149   5
 -14   0   9-28.7741 23.2124   4
 -14   0   8 4477.58 94.2642   1
 -14   0   8 4693.12 94.6450   5
 -14   0   8 4696.04 123.165   4
 -14   0   7 12.1378 10.6901   1
 -14   0   7 46.5329 23.4216   4
 -14   0   6 21939.5 274.507   1
 -14   0   6 23112.7 347.817   4
 -14   0   5 1.96451 7.34868   1
 -14   0   5 21.6980 22.5834   4
 -14   0   4 23021.8 257.347   1
 -14   0   4 22087.2 255.990   1
 -14   0   4 25070.8 367.084   4
 -14   0   3 25.9693 23.8482   4
 -14   0   2 11900.6 238.949   4
 -14   0   2 11855.5 204.893   3
 -14   0   1-13.8783 19.2673   3
 -14   0   1 21.7109 26.1575   4
 -14   0   0 113.550 23.4123   3
 -14   0   0 130.839 34.5486   4
 -14   0  -1 42.4689 28.7195   4
 -14   0  -1 6.84775 16.8593   3
 -14   0  -2 13853.9 236.388   3
 -14   0  -2 13552.8 280.283   4
 -14   0  -3-3.98383 29.0446   4
 -14   0  -3-1.20663 19.7786   3
 -14   0  -4 12217.9 274.250   4
 -14   0  -5-13.2538 31.5653   4
 -14   0  -6 206.195 48.5857   4
 -14   0  -7-5.10014 34.3277   4
 -14   0  -8 113.347 41.8437   4
 -14   0  -9-54.3005 40.0996   4
  14   2 -24 789.647 77.0391   2
  14   2 -23 1569.93 101.924   2
  14  -2 -22-11.0247 29.5548   2
  14   2 -22 36.6660 36.6543   2
 -14   2  22 53.2206 42.0314   5
 -14  -2  22 7.21874 36.0665   5
  14  -2 -21 8338.39 213.320   2
  14   2 -21 8389.04 226.155   2
 -14  -2  21 8265.16 229.891   5
 -14   2  21 8829.20 238.703   5
  14  -2 -20 204.376 41.5195   2
  14   2 -20 111.727 38.1990   2
 -14   2  20 211.570 46.6600   5
 -14  -2  20 223.666 46.9984   5
  14   2 -19 9136.30 228.518   2
  14  -2 -19 8966.50 213.076   2
 -14  -2  19 9097.18 226.954   5
 -14   2  19 8997.24 229.408   5
  14  -2 -18 284.992 43.0210   2
  14   2 -18 336.946 48.9154   2
 -14   2  18 244.009 43.6039   5
 -14  -2  18 284.775 47.7914   5
 -14   2  18 322.090 38.0550   4
  14  -2 -17 39.9661 28.7119   2
  14   2 -17 26.2494 28.3554   2
 -14   2  17 38.4515 32.8809   5
 -14  -2  17 33.2953 27.6448   5
 -14   2  17 35.6079 22.5643   4
  14   2 -16 207.510 38.2162   2
  14  -2 -16 252.533 40.6705   2
 -14   2  16 238.459 39.5158   5
 -14  -2  16 234.880 37.9176   5
 -14  -2  16 220.168 24.8917   4
 -14   2  16 233.383 31.4592   4
  14   2 -15 5032.18 151.983   2
 -14  -2  15 5211.07 143.309   5
 -14  -2  15 5550.55 120.163   4
 -14   2  15 5458.93 139.020   4
 -14   2  15 4993.73 144.382   5
  14  -2 -15 5109.01 147.209   2
  14  -2 -14 127.370 36.4496   2
  14   2 -14 200.178 41.2237   2
 -14   2  14 46.5398 23.5647   4
 -14  -2  14 94.4075 21.6417   4
 -14   2  14 84.8229 28.8821   5
 -14  -2  14 75.1926 27.3407   5
 -14  -2  13 27862.9 406.152   5
 -14  -2  13 29270.8 389.057   4
 -14   2  13 28226.7 411.534   4
 -14   2  13 28313.2 414.908   5
  14   2 -13 28237.6 438.811   2
 -14  -2  12 3284.16 97.0065   5
 -14  -2  12 3322.95 92.4971   4
 -14   2  12 3494.22 107.698   4
 -14   2  12 3502.04 105.131   5
  14   2 -12 3305.69 116.751   2
 -14  -2  11 5175.28 119.399   5
 -14   2  11 5337.77 126.227   5
 -14  -2  11 5256.23 121.539   4
 -14   2  11 5378.52 135.458   4
 -14   2  10 3352.84 87.4575   1
 -14   2  10 3490.38 106.950   4
 -14  -2  10 3553.07 89.8098   5
 -14  -2  10 3602.50 99.3619   4
 -14   2  10 3563.76 95.5644   5
 -14   2   9 7839.61 139.679   1
 -14  -2   9 8251.61 141.687   5
 -14   2   9 8171.47 175.501   4
 -14  -2   9 8204.87 164.183   4
 -14   2   9 8083.96 151.023   5
 -14   2   8 29.9352 12.0628   1
 -14   2   8 19.5613 22.0827   4
 -14  -2   8 39.6726 14.0959   5
 -14  -2   8 58.7913 22.1516   4
 -14   2   7 7361.42 115.521   1
 -14  -2   7 7884.84 165.099   4
 -14   2   7 7950.34 175.059   4
 -14  -2   7 7976.40 117.687   5
 -14   2   6 3610.16 57.5162   1
 -14   2   6 3836.72 115.832   4
 -14  -2   6 3625.06 108.453   4
 -14  -2   5 1273.42 65.0756   4
 -14   2   5 1368.98 69.9809   4
 -14  -2   4 106.964 15.6099   1
 -14   2   4 117.491 31.0572   4
 -14  -2   4 200.286 33.4382   4
 -14  -2   3 742.499 31.0925   1
 -14   2   3 743.912 55.4258   4
 -14  -2   3 749.331 54.0676   4
 -14  -2   2 3714.70 73.5637   1
  14  -2  -2 3521.36 55.5939   5
 -14   2   2 3654.12 120.800   4
 -14  -2   2 3759.05 120.826   4
 -14   2   2 3581.00 87.1176   3
 -14  -2   1 12858.8 175.655   1
 -14   2   1 12847.3 254.410   4
  14  -2  -1 12019.0 150.697   5
 -14   2   1 12658.0 196.737   3
 -14  -2   1 12594.6 250.089   4
 -14  -2   1 12408.3 224.995   3
 -14  -2   0 1264.14 41.8662   1
 -14   2   0 1232.11 74.2622   4
 -14  -2   0 1190.53 62.1362   3
 -14   2   0 1272.08 50.5200   3
 -14  -2   0 1268.40 75.2608   4
 -14  -2  -1 14074.4 200.517   1
 -14   2  -1 13800.6 279.927   4
 -14  -2  -1 14001.1 250.128   3
 -14   2  -1 14477.6 220.976   3
 -14  -2  -1 13787.6 279.610   4
 -14  -2  -2 126.724 18.7436   1
 -14  -2  -2 147.510 38.6325   4
 -14  -2  -2 123.727 29.2823   3
 -14   2  -2 136.513 36.8809   4
 -14  -2  -3 790.626 66.9299   4
 -14  -2  -3 815.390 54.4259   3
 -14   2  -3 872.583 68.6736   4
 -14   2  -4 39.0848 32.5721   4
 -14  -2  -4 12.0161 30.4403   4
 -14  -2  -4 19.8236 24.8902   3
 -14  -2  -5 11569.0 271.462   4
 -14   2  -5 11202.9 265.141   4
 -14   2  -6 243.336 47.2607   4
 -14  -2  -6 235.614 50.2718   4
 -14   2  -7 10448.9 264.184   4
 -14  -2  -7 10104.0 264.070   4
 -14   2  -8 193.188 46.3427   4
 -14  -2  -8 246.140 53.5347   4
 -14   2  -9 751.921 77.7372   4
  14   4 -23 53.9525 41.0376   2
  14   4 -22 1090.89 87.2717   2
 -14   4  22 1067.36 91.3776   5
  14  -4 -21 306.921 44.9956   2
  14   4 -21 361.013 54.4351   2
 -14   4  21 368.084 57.2837   5
  14  -4 -20-5.83992 28.8758   2
  14   4 -20 44.7430 35.6868   2
 -14   4  20 52.2777 39.8019   5
  14   4 -19 2386.69 116.254   2
  14  -4 -19 2236.54 98.5682   2
 -14   4  19 2338.36 115.376   5
  14  -4 -18 5500.93 154.576   2
  14   4 -18 5642.24 175.674   2
 -14   4  18 5684.50 174.727   5
  14  -4 -17 2581.60 100.784   2
  14   4 -17 2528.60 112.976   2
 -14   4  17 2531.53 112.642   5
  14  -4 -16 6001.09 157.876   2
  14   4 -16 6407.10 179.459   2
 -14   4  16 6323.77 174.417   5
  14   4 -15 219.960 41.9016   2
  14  -4 -15 153.732 32.6322   2
 -14  -4  15 162.275 20.4620   4
 -14   4  15 131.162 33.9664   5
 -14   4  15 229.490 35.2399   4
  14  -4 -14 333.104 44.4116   2
  14   4 -14 266.404 43.2708   2
 -14   4  14 292.271 41.1169   5
 -14   4  14 280.290 39.0227   4
 -14  -4  14 256.245 24.6109   4
  14   4 -13 89.6235 35.4679   2
 -14   4  13 41.3809 27.3595   5
 -14   4  13 97.1867 29.2796   4
 -14  -4  13 66.2641 17.2163   4
 -14  -4  12 4008.99 96.3900   4
 -14   4  12 4198.10 124.237   4
 -14   4  12 3968.06 117.068   5
  14   4 -12 3949.07 130.376   2
  14   4 -11 266.006 43.1096   2
 -14   4  11 279.960 36.3262   5
 -14   4  11 296.600 39.6022   4
 -14  -4  11 275.612 28.1724   4
 -14   4  10 9730.27 170.712   1
 -14  -4  10 10191.1 180.783   4
 -14   4  10 10299.9 210.536   4
 -14   4   9 1007.04 42.3340   1
 -14  -4   9 1094.20 53.0880   4
 -14   4   9 994.901 61.0900   4
 -14   4   8 7274.52 122.816   1
 -14   4   8 7844.45 177.105   4
 -14  -4   8 7914.07 158.782   4
 -14   4   7 16795.5 216.681   1
 -14  -4   7 17415.5 223.215   5
  14  -4  -7 16972.6 250.909   5
 -14   4   7 17747.4 300.420   4
 -14  -4   7 17585.3 278.661   4
  14  -4  -6 9026.11 157.472   5
 -14   4   6 9800.17 206.568   4
 -14  -4   6 9505.72 123.397   5
 -14  -4   6 9483.86 188.176   4
  14  -4  -5 2029.46 60.3237   5
 -14   4   5 2012.67 87.9475   4
 -14  -4   5 1936.66 79.4490   4
 -14  -4   4 32335.8 412.930   1
 -14   4   4 32360.9 474.464   4
  14  -4  -4 31298.5 395.504   5
 -14  -4   4 31943.1 458.328   4
 -14  -4   3 513.052 33.6876   1
  14  -4  -3 506.576 29.3350   5
 -14   4   3 569.883 51.8456   4
 -14  -4   3 470.458 45.3890   4
 -14   4   3 527.394 27.9471   3
 -14  -4   2 5339.78 111.126   1
 -14   4   2 5331.92 152.825   4
  14  -4  -2 4950.56 97.6555   5
 -14   4   2 5278.15 93.7501   3
 -14  -4   2 5304.83 146.379   4
 -14  -4   1 1284.31 50.6522   1
 -14   4   1 1325.23 76.7909   4
 -14   4   1 1306.97 40.8835   3
 -14  -4   1 1307.56 69.6085   3
 -14  -4   1 1393.26 77.0719   4
 -14  -4   0 688.813 38.4297   1
 -14  -4   0 595.129 54.2077   4
 -14  -4   0 570.810 47.6057   3
 -14   4   0 546.076 51.7875   4
 -14  -4  -1 110.777 19.8398   1
 -14  -4  -1 64.8490 29.4435   4
 -14  -4  -1 71.9113 26.8998   3
 -14   4  -1 145.946 39.7590   4
 -14  -4  -2 18728.9 274.285   1
 -14   4  -2 17889.8 340.524   4
 -14  -4  -2 18026.4 340.348   4
 -14  -4  -2 17619.0 314.914   3
 -14  -4  -3 3081.97 89.9395   1
 -14  -4  -3 3335.60 131.891   4
 -14  -4  -3 3054.33 112.905   3
 -14   4  -3 3216.49 127.891   4
 -14  -4  -4 13787.0 297.066   4
 -14  -4  -4 13216.5 267.604   3
 -14   4  -4 13566.9 291.901   4
 -14  -4  -5 1052.38 81.2707   4
 -14   4  -5 1028.89 79.7091   4
 -14  -4  -5 1002.73 68.9474   3
 -14  -4  -6 1088.56 85.9785   4
 -14   4  -6 1174.18 84.0475   4
 -14   4  -7 715.777 71.3228   4
 -14  -4  -7 642.205 70.6719   4
 -14   4  -8 54.4373 36.0981   4
 -14  -4  -8 96.7395 44.0512   4
 -14   4  -9 504.656 64.8400   4
  14   6 -21 3430.94 148.962   2
 -14   6  21 3501.54 154.588   5
  14   6 -20 323.160 50.1459   2
 -14   6  20 434.615 59.7538   5
  14   6 -19 2673.16 124.888   2
  14  -6 -19 2478.84 100.532   2
 -14   6  19 2528.12 123.042   5
  14   6 -18 3471.24 140.089   2
  14  -6 -18 3058.56 109.024   2
 -14   6  18 3212.97 134.237   5
  14   6 -17 289.776 46.6644   2
  14  -6 -17 312.208 40.4640   2
 -14   6  17 342.125 52.2510   5
  14  -6 -16 1504.91 74.9677   2
  14   6 -16 1537.85 90.0310   2
 -14   6  16 1477.38 86.7093   5
  14   6 -15 168.982 39.0143   2
  14  -6 -15 282.387 39.3845   2
 -14   6  15 278.759 44.4679   5
  14   6 -14 2128.69 100.456   2
  14  -6 -14 2007.85 84.3094   1
 -14   6  14 2294.67 99.0774   5
  14   6 -13 3219.90 121.262   2
  14  -6 -13 3316.07 104.148   1
 -14   6  13 3399.75 117.515   5
 -14   6  13 3348.84 117.820   4
 -14  -6  13 3289.43 75.3900   4
  14   6 -12 524.054 53.4793   2
  14  -6 -12 511.341 40.4197   1
 -14   6  12 527.029 50.5847   4
 -14  -6  12 486.581 30.5151   4
  14  -6 -11 2636.37 82.0632   1
 -14   6  11 2533.83 101.007   4
  14   6 -11 2678.96 107.645   2
 -14  -6  11 2724.28 75.2416   4
 -14   6  10 9317.80 168.013   1
  14   6 -10 9148.04 167.326   4
 -14   6  10 9606.29 209.314   4
 -14  -6  10 9437.36 168.014   4
  14   6 -10 9136.51 208.544   2
 -14   6   9 3028.16 79.5583   1
 -14   6   9 3072.89 111.121   4
  14   6  -9 3422.84 117.621   2
 -14  -6   9 3248.36 90.3376   4
 -14   6   8 1628.35 51.8964   1
 -14   6   8 1683.51 82.5990   4
 -14  -6   8 1826.39 69.2009   4
 -14   6   7 7553.62 182.633   4
 -14  -6   7 7637.47 160.259   4
 -14   6   6 7500.27 183.415   4
 -14  -6   6 7659.85 164.875   4
 -14   6   5 614.348 54.2584   4
  14  -6  -5 513.652 37.6817   5
 -14  -6   5 613.524 46.7316   4
 -14  -6   4 5185.01 123.385   1
 -14   6   4 5315.28 152.700   4
  14  -6  -4 4729.83 111.475   5
 -14  -6   4 5087.22 137.713   4
 -14  -6   3 228.710 28.9326   1
  14  -6  -3 201.724 26.9196   5
 -14   6   3 226.433 42.2540   4
 -14  -6   3 287.089 37.4209   4
 -14  -6   2 6288.00 139.369   1
 -14   6   2 6400.71 173.066   4
 -14  -6   2 6315.45 165.213   4
 -14  -6   1 20175.5 303.519   1
 -14   6   1 20505.9 357.254   4
 -14  -6   1 19619.3 345.743   4
 -14  -6   1 19694.9 342.560   3
 -14  -6   0 9.91059 17.1569   1
 -14  -6   0 19.9704 26.1508   3
 -14  -6   0 22.5324 26.2282   4
 -14   6   0-9.80622 27.8480   4
 -14  -6  -1 492.694 39.6721   1
 -14  -6  -1 575.715 53.9590   3
 -14  -6  -1 481.405 52.8625   4
 -14   6  -1 512.101 53.0608   4
 -14  -6  -2 8068.60 168.387   1
 -14   6  -2 7894.09 207.767   4
 -14  -6  -2 8009.92 209.417   4
 -14  -6  -2 7740.19 196.260   3
 -14  -6  -3 62.1522 23.1255   1
 -14  -6  -3 92.9510 37.3125   4
 -14  -6  -3 7.21714 30.2341   3
 -14   6  -3 16.1983 30.5310   4
 -14  -6  -4 5001.97 132.939   1
 -14  -6  -4 4748.80 166.370   4
 -14  -6  -4 4683.99 153.602   3
 -14   6  -4 4752.61 163.818   4
 -14  -6  -5 4276.21 161.923   4
 -14   6  -5 4275.99 156.259   4
 -14  -6  -5 4286.14 148.566   3
 -14   6  -6 573.013 60.9934   4
 -14  -6  -6 614.044 61.0092   3
 -14  -6  -6 572.685 66.6888   4
 -14   6  -7 7294.22 216.578   4
 -14  -6  -7 7696.02 229.377   4
 -14   6  -8 36.6393 37.6259   4
 -14   6  -9 888.291 81.9010   4
  14   8 -20 2322.46 124.205   2
 -14   8  20 2336.70 132.012   5
  14  -8 -20 1921.73 108.851   1
  14   8 -19 2033.52 112.298   2
 -14   8  19 1904.05 112.180   5
  14  -8 -19 1923.54 105.293   1
  14   8 -18 2107.19 112.920   2
 -14   8  18 2277.89 118.333   5
  14  -8 -18 2296.14 109.606   1
  14   8 -17-6.86837 35.8203   2
  14  -8 -17 22.1255 24.0578   2
  14  -8 -17 12.8042 27.8470   1
 -14   8  17 37.4081 37.5751   5
  14  -8 -16 1728.74 87.2802   1
  14   8 -16 1807.27 99.6805   2
  14  -8 -16 1700.13 77.4057   2
  14  -8 -15 950.531 64.3774   1
  14   8 -15 887.264 71.8475   2
  14  -8 -15 828.198 58.1304   2
  14   8 -14 609.849 62.0220   2
  14  -8 -14 489.550 46.1259   1
  14   8 -13 4193.45 144.282   2
  14  -8 -13 4314.81 124.156   1
  14   8 -12 9490.75 222.884   2
  14  -8 -12 9352.21 187.203   1
 -14   8  12 9206.19 217.299   4
  14   8 -11 19.3816 31.1904   2
  14  -8 -11-7.75136 18.5080   1
 -14   8  11-37.1887 30.7806   4
 -14  -8  11 19.1981 15.7059   4
  14   8 -10 2849.13 111.620   2
  14  -8 -10 2811.80 83.6653   1
 -14   8  10 2963.90 114.510   4
 -14  -8  10 2831.35 79.3028   4
  14  -8  -9 929.009 44.9401   1
 -14   8   9 886.096 64.8616   4
 -14  -8   9 961.378 49.0436   4
  14   8  -9 990.107 67.4412   2
  14  -8  -8 1245.94 47.5248   1
 -14   8   8 1283.71 75.7219   4
 -14  -8   8 1223.35 57.1444   4
  14   8  -8 1238.87 73.2442   2
  14  -8  -7 2265.73 60.0379   1
 -14   8   7 2239.42 100.488   4
 -14  -8   7 2353.00 82.8265   4
  14   8  -7 2340.69 98.2818   2
  14  -8  -6 1110.24 35.5833   1
 -14   8   6 1092.51 70.9384   4
 -14  -8   6 1207.52 61.8349   4
 -14   8   5 592.454 55.4579   4
 -14  -8   5 530.748 44.8418   4
 -14  -8   4 3058.81 101.639   1
 -14   8   4 3007.49 117.264   4
 -14  -8   4 3101.35 106.747   4
 -14  -8   3 9715.65 199.740   1
 -14   8   3 10231.3 231.745   4
 -14  -8   3 9833.57 212.550   4
 -14  -8   2 7495.39 168.487   1
 -14   8   2 7766.49 198.145   4
 -14  -8   2 7225.46 182.465   4
 -14  -8   1 5197.01 137.969   1
 -14   8   1 5543.49 165.260   4
 -14  -8   1 5125.05 153.734   4
 -14  -8   1 5110.30 157.811   3
 -14  -8   0 77.1760 27.0777   1
 -14   8   0 75.5043 35.2836   4
 -14  -8   0 18.6038 29.3825   3
 -14  -8   0 48.8364 31.0168   4
 -14  -8  -1 5732.95 146.906   1
 -14   8  -1 5716.61 174.586   4
 -14  -8  -1 5640.89 170.417   3
 -14  -8  -1 5526.38 168.261   4
 -14  -8  -2 2148.73 88.8645   1
 -14   8  -2 2112.28 105.601   4
 -14  -8  -2 2130.72 104.764   3
 -14  -8  -2 2178.54 107.814   4
 -14  -8  -3 14.5044 23.9747   1
 -14  -8  -3 1.69930 30.8345   3
 -14   8  -3-20.8835 36.0586   4
 -14  -8  -3 28.1142 37.8194   4
 -14  -8  -4 4633.82 137.995   1
 -14   8  -4 4605.93 161.776   4
 -14  -8  -4 4389.75 161.928   4
 -14  -8  -4 4219.29 152.858   3
 -14  -8  -5 5238.23 185.246   4
 -14  -8  -5 5083.16 173.456   3
 -14   8  -5 5490.29 181.298   4
 -14  -8  -6 4200.47 165.382   4
 -14   8  -6 3694.79 151.758   4
 -14  -8  -6 3614.84 146.702   3
 -14  -8  -7 4523.68 169.075   3
 -14   8  -7 4259.05 165.783   4
 -14   8  -8 65.5293 38.7681   4
  14 -10 -20 160.010 42.5239   1
  14  10 -19 150.586 49.7144   2
  14 -10 -19 66.9456 35.9256   1
  14  10 -18 2180.25 118.581   2
  14 -10 -18 1967.76 107.095   1
  14  10 -17 2.90264 32.4066   2
  14 -10 -17 64.8806 35.0508   1
  14  10 -16 3745.95 148.127   2
  14 -10 -16 3466.96 128.986   1
  14  10 -15 2254.24 112.508   2
  14 -10 -15 1884.43 92.4659   1
  14  10 -14 22.9877 34.0778   2
  14 -10 -14 34.2617 25.7074   1
  14  10 -13 1647.13 93.2387   2
  14 -10 -13 1473.31 75.1430   1
  14  10 -12 583.205 58.8421   2
  14 -10 -12 603.611 47.7595   1
  14  10 -11-9.47374 33.7299   2
 -14  10  11 17.5474 28.8881   4
  14 -10 -11 30.5029 23.0288   1
  14  10 -10 2571.62 109.826   2
  14 -10 -10 2430.33 83.9621   1
 -14  10  10 2453.42 111.695   4
  14  10  -9 44.9531 29.8313   2
  14 -10  -9 79.6484 21.7308   1
 -14  10   9-13.2837 29.7135   4
 -14 -10   9 78.9358 20.8179   4
  14  10  -8 267.613 42.9527   2
  14 -10  -8 202.244 24.9836   1
 -14  10   8 113.928 34.7842   4
 -14 -10   8 219.170 29.5063   4
  14 -10  -7 2727.93 74.2630   1
 -14  10   7 2681.45 114.531   4
  14  10  -7 2714.97 108.684   2
 -14 -10   7 2371.36 85.0915   4
  14  10  -6 10.4944 27.1452   2
 -14  10   6 19.5643 30.8111   4
 -14 -10   6 69.9012 26.0434   4
 -14  10   5 3363.27 128.135   4
  14  10  -5 3539.45 120.851   2
 -14 -10   5 3289.58 109.415   4
  14  10  -4 324.344 46.6693   2
 -14 -10   4 243.629 40.3676   1
 -14  10   4 166.882 38.0738   4
 -14 -10   4 226.903 35.6345   4
 -14 -10   3 396.380 46.7160   1
 -14  10   3 382.307 48.2005   4
 -14 -10   3 406.476 44.7010   4
 -14 -10   2 3811.77 125.619   1
 -14  10   2 3865.94 141.241   4
 -14 -10   2 3558.43 126.281   4
 -14 -10   2 3713.54 141.020   3
 -14 -10   1 482.544 48.3566   1
 -14  10   1 476.555 55.9047   4
 -14 -10   1 444.596 54.7221   3
 -14 -10   1 490.088 51.3203   4
 -14 -10   0-15.7057 23.6557   1
 -14  10   0 31.0678 30.8584   4
 -14 -10   0-53.2091 36.6942   3
 -14 -10   0-8.28533 30.0789   4
 -14 -10  -1 886.282 62.3581   1
 -14  10  -1 958.369 73.9060   4
 -14 -10  -1 839.789 71.5845   3
 -14 -10  -1 953.276 72.2054   4
 -14 -10  -2 1517.66 82.6005   1
 -14  10  -2 1476.96 92.7204   4
 -14 -10  -2 1505.91 93.8721   3
 -14 -10  -2 1445.82 91.2549   4
 -14 -10  -3 147.157 35.3813   1
 -14  10  -3 102.665 42.5433   4
 -14 -10  -3 119.490 41.0357   4
 -14 -10  -3 155.706 45.4181   3
 -14 -10  -4 7485.87 193.431   1
 -14  10  -4 7116.19 210.287   4
 -14 -10  -4 7143.84 213.992   3
 -14 -10  -5 46.0684 29.5457   1
 -14 -10  -5 151.357 45.3444   3
 -14  10  -5 140.648 45.8291   4
 -14 -10  -6 366.203 58.1855   3
 -14  10  -6 323.676 55.3082   4
 -14  10  -7 1632.40 103.409   4
 -14 -10  -7 1613.87 105.814   3
  14 -12 -19 2555.94 128.529   1
  14 -12 -18 716.281 70.3034   1
  14  12 -17 61.3827 37.5429   2
  14 -12 -17 58.4018 36.9183   1
  14  12 -16 332.480 53.6231   2
  14 -12 -16 324.630 49.5818   1
  14  12 -15 3960.76 154.018   2
  14 -12 -15 3816.25 136.387   1
  14  12 -14 255.610 47.1475   2
  14 -12 -14 293.952 43.2120   1
  14  12 -13 4086.45 151.449   2
  14 -12 -13 3894.79 129.512   1
  14  12 -12 4476.75 155.344   2
  14 -12 -12 4311.97 131.154   1
  14  12 -11 220.754 43.9695   2
 -14  12  11 186.761 42.3841   4
  14 -12 -11 179.393 32.2369   1
  14  12 -10 2267.14 106.498   2
 -14  12  10 2207.50 111.949   4
  14 -12 -10 2123.03 83.7065   1
  14  12  -9 3953.67 138.484   2
 -14  12   9 4070.60 149.850   4
  14 -12  -9 3980.88 111.515   1
  14  12  -8 186.057 44.6059   2
 -14  12   8 54.8431 31.5408   4
  14  12  -7 7202.87 186.898   2
 -14  12   7 7622.52 207.919   4
  14  12  -6 24.8962 28.8320   2
 -14  12   6 7.37934 32.5167   4
  14  12  -5 749.363 60.9638   2
 -14 -12   5 821.197 66.6247   1
 -14  12   5 827.254 69.7421   4
 -14 -12   4 2397.21 107.267   1
 -14  12   4 2573.14 117.091   4
  14  12  -4 2369.97 100.718   2
  14  12  -3 68.6802 28.5910   2
 -14 -12   3 79.6630 34.3790   1
 -14  12   3 77.1725 34.9325   4
 -14 -12   2 1912.00 96.4827   1
 -14  12   2 1846.47 102.621   4
  14  12  -2 1929.66 89.5871   2
 -14 -12   2 2085.77 111.386   3
 -14 -12   1 7120.21 193.038   1
 -14  12   1 7530.06 212.655   4
  14  12  -1 7472.73 181.172   2
 -14 -12   1 7480.96 217.240   3
  14  12   0 332.399 43.6844   2
 -14 -12   0 301.664 44.5416   1
 -14  12   0 298.236 50.2705   4
 -14 -12   0 221.361 48.1754   3
 -14 -12  -1 7273.52 196.367   1
 -14  12  -1 7404.64 213.518   4
 -14 -12  -1 7317.94 217.790   3
 -14 -12  -2 1234.70 80.9165   1
 -14  12  -2 1285.16 89.4787   4
 -14 -12  -2 1250.56 90.5176   3
 -14 -12  -3 4.43954 33.3258   1
 -14 -12  -3-23.9952 35.9016   3
 -14  12  -3-9.99533 36.4430   4
 -14 -12  -4 312.521 47.0873   1
 -14  12  -4 388.023 54.7902   4
 -14 -12  -4 286.623 52.3219   3
 -14 -12  -5 1126.52 81.9949   1
 -14  12  -5 1104.23 87.2779   4
 -14  12  -6 408.413 57.1533   4
  14 -14 -18 683.875 71.1049   1
  14 -14 -17 216.299 48.8135   1
  14 -14 -16 1661.05 98.6457   1
  14  14 -15 1875.73 110.265   2
  14 -14 -15 1663.64 95.0898   1
  14  14 -14-7.26760 33.4804   2
  14 -14 -14 3.38483 29.9646   1
  14  14 -13 0.97917 33.9524   2
  14 -14 -13-10.5031 27.6993   1
  14  14 -12 1644.40 100.056   2
  14 -14 -12 1715.77 87.1316   1
  14  14 -11-4.87269 30.9058   2
 -14  14  11 24.6147 41.6389   4
  14 -14 -11-1.98081 26.8670   1
  14  14 -10 3832.32 143.767   2
 -14  14  10 4074.94 158.198   4
  14  14  -9 857.045 69.5542   2
 -14  14   9 834.202 74.3871   4
  14  14  -8 339.662 48.8108   2
 -14  14   8 329.706 50.5483   4
  14  14  -7 90.0667 35.8664   2
 -14  14   7 164.786 44.9404   4
  14  14  -6 198.219 38.4549   2
 -14  14   6 197.433 44.4452   4
  14  14  -5 2001.29 96.0661   2
 -14  14   5 2131.93 114.013   4
 -14 -14   5 2111.35 109.276   1
  14  14  -4 5029.49 151.170   2
 -14 -14   4 5102.60 169.683   1
 -14  14   4 5382.87 179.605   4
  14  14  -3 86.2401 32.6551   2
 -14 -14   3-65.2218 42.7016   1
 -14  14   3 47.2496 36.8030   4
 -14 -14   3 21.0667 36.3515   3
  14  14  -2 1992.92 91.2061   2
 -14 -14   2 1830.54 101.220   1
 -14  14   2 2041.86 112.780   4
 -14 -14   2 2084.70 127.947   3
 -14 -14   1 332.714 51.2472   1
 -14  14   1 391.666 55.9368   4
 -14 -14   1 430.509 60.6069   3
 -14 -14   0 70.0749 36.3849   1
 -14  14   0 0.88650 36.1343   4
 -14 -14   0 8.83014 36.8263   3
 -14 -14  -1 235.202 43.6658   1
 -14  14  -1 222.525 43.8239   4
 -14 -14  -1 464.746 65.2846   3
 -14 -14  -2 954.513 78.1979   1
 -14  14  -2 1265.37 92.2032   4
 -14 -14  -2 1189.26 95.0182   3
 -14  14  -3 122.241 43.1059   4
 -14 -14  -3 177.022 44.9701   1
 -14  14  -4 2955.85 139.598   4
 -14 -14  -4 2782.58 131.162   1
 -14 -14  -5 230.878 50.6952   1
  14 -16 -16 128.005 47.1713   1
  14 -16 -15 1293.41 89.7976   1
  14  16 -13 1659.13 104.560   2
  14  16 -12-14.8038 38.0587   2
  14  16 -11 433.544 59.8319   2
 -14  16  11 390.664 62.9852   4
  14  16 -10 843.753 72.0407   2
 -14  16  10 1022.96 87.7453   4
  14  16  -9 391.253 53.7976   2
 -14  16   9 509.773 65.9182   4
  14  16  -8 278.027 45.1275   2
 -14  16   8 316.269 53.5484   4
  14  16  -7 3002.53 124.289   2
 -14  16   7 3326.98 147.683   4
  14  16  -6 422.882 53.3377   2
 -14  16   6 334.870 58.9305   4
 -14 -16   6 338.985 58.4234   1
  14  16  -5 5246.39 161.959   2
 -14 -16   5 5530.30 188.052   1
 -14  16   5 5446.40 190.481   4
 -14 -16   4 452.945 62.4141   1
 -14  16   4 406.027 60.1044   4
 -14 -16   4 455.714 66.4392   3
 -14 -16   3 134.373 46.2251   1
 -14  16   3 129.861 41.7217   4
 -14 -16   3 113.161 46.6473   3
 -14  16   2 107.101 45.3495   4
 -14 -16   2 228.244 51.0850   1
 -14  16   1 2847.71 137.032   4
 -14 -16   1 3005.82 138.438   1
 -14  16   0 167.681 45.3903   4
 -14 -16   0 110.211 41.7822   1
 -14  16  -1 2655.56 132.755   4
 -14 -16  -1 2538.88 129.877   1
 -14 -16  -2 12.3219 38.8668   1
  14  18 -11 8.07296 36.1414   2
  14  18 -10 2601.97 126.611   2
  14  18  -9 90.9901 43.0253   2
  14  18  -8 140.532 41.3111   2
  15  -1 -24 64.2979 41.3077   2
  15   1 -24-10.2956 39.0306   2
  15  -1 -23 1068.41 80.1580   2
  15   1 -23 1275.85 92.3001   2
  15  -1 -22 4159.26 154.016   2
  15   1 -22 4123.44 156.947   2
 -15  -1  22 4251.92 166.610   5
 -15   1  22 4330.20 168.949   5
  15  -1 -21-17.9496 33.2489   2
  15   1 -21-0.05475 33.2216   2
 -15   1  21-15.8188 42.9507   5
 -15  -1  21-14.9458 38.7302   5
  15   1 -20 6812.10 196.640   2
  15  -1 -20 6783.36 191.600   2
 -15  -1  20 6613.81 197.135   5
 -15   1  20 7043.08 203.151   5
  15  -1 -19 3105.49 124.087   2
  15   1 -19 3218.70 129.420   2
 -15  -1  19 3231.41 130.557   5
 -15   1  19 3239.06 131.596   5
  15  -1 -18-0.04524 28.0030   2
  15   1 -18 33.2038 32.4635   2
 -15   1  18 54.8218 24.1850   4
 -15   1  18 10.5695 34.9350   5
 -15  -1  18 30.2563 31.5100   5
  15  -1 -17 2074.27 96.9936   2
  15   1 -17 2121.05 101.620   2
 -15  -1  17 2194.70 99.7125   5
 -15   1  17 2062.10 82.6786   4
 -15   1  17 2029.63 96.8535   5
 -15  -1  17 2197.30 77.4957   4
  15  -1 -16 1195.80 76.4047   2
  15   1 -16 1312.24 79.4044   2
 -15  -1  16 1270.17 73.1413   5
 -15  -1  16 1264.19 58.4776   4
 -15   1  16 1173.19 62.3181   4
 -15   1  16 1255.96 72.9407   5
  15   1 -15 2150.05 97.9514   2
 -15  -1  15 2091.41 87.3709   5
 -15  -1  15 2212.96 77.8671   4
 -15   1  15 2048.71 81.8420   4
 -15   1  15 1995.96 87.7497   5
  15  -1 -15 2075.32 94.8402   2
 -15  -1  14 5375.44 139.455   5
 -15  -1  14 5531.75 130.747   4
 -15   1  14 5277.11 135.807   4
 -15   1  14 5291.97 140.286   5
  15  -1 -14 5250.88 151.535   2
  15   1 -14 5114.06 153.140   2
 -15  -1  13 4894.82 127.173   5
 -15  -1  13 5045.81 125.608   4
 -15   1  13 4946.57 129.322   5
 -15   1  13 4909.08 129.970   4
  15   1 -13 4881.44 146.415   2
 -15   1  12 975.797 56.2528   4
 -15  -1  12 1043.48 55.7606   4
 -15   1  12 988.933 55.1589   5
 -15  -1  12 1017.21 53.3663   5
 -15   1  11 4783.35 129.482   4
 -15  -1  11 4858.98 124.365   4
 -15   1  11 4653.58 114.934   5
 -15  -1  11 4853.32 113.610   5
 -15   1  10 1280.60 51.7251   1
 -15  -1  10 1263.45 54.0565   1
 -15   1  10 1482.33 70.2605   4
 -15   1  10 1440.65 57.3761   5
 -15  -1  10 1386.82 53.7138   5
 -15  -1  10 1382.84 65.0984   4
 -15   1   9 1988.84 60.0903   1
 -15  -1   9 1903.81 63.0395   1
 -15  -1   9 2130.48 82.3576   4
 -15   1   9 2125.31 84.3329   4
 -15   1   9 2157.50 66.1475   5
 -15  -1   9 2140.40 61.8605   5
 -15   1   8 4054.40 83.8790   1
 -15  -1   8 4084.28 91.3984   1
 -15  -1   8 4536.92 123.617   4
 -15  -1   8 4355.06 84.9323   5
 -15   1   8 4306.06 124.046   4
 -15  -1   7 604.767 30.7233   1
 -15   1   7 648.861 26.0699   1
 -15  -1   7 704.500 50.3596   4
 -15   1   7 749.328 53.0431   4
 -15  -1   6 72.4190 12.4534   1
 -15   1   6 43.6525 8.11312   1
 -15   1   6 4.02802 21.8893   4
 -15  -1   6 45.2645 23.1961   4
 -15  -1   5 1489.88 41.3179   1
 -15   1   5 1523.33 76.3187   4
 -15  -1   5 1503.31 75.3604   4
 -15  -1   4 339.844 17.7080   1
 -15   1   4 348.577 40.2010   4
 -15  -1   4 384.025 41.9480   4
 -15  -1   3 5122.16 76.3179   1
 -15   1   3 5167.31 149.415   4
 -15  -1   3 5212.21 148.132   4
 -15  -1   2 4374.31 66.6639   1
 -15   1   2 4918.18 146.691   4
 -15  -1   2 4738.32 143.378   4
 -15  -1   2 4562.89 120.091   3
 -15   1   2 4795.70 112.256   3
 -15   1   1 1631.95 63.7193   3
 -15   1   1 1795.75 90.1591   4
 -15  -1   1 1750.61 89.0745   4
 -15  -1   1 1779.68 73.3317   3
 -15  -1   0 9048.37 185.392   3
 -15   1   0 9606.79 175.901   3
 -15   1   0 9175.20 220.354   4
 -15  -1   0 9115.12 218.599   4
 -15   1  -1 253.052 43.9428   4
 -15  -1  -1 261.400 44.6540   4
 -15   1  -1 246.740 28.4670   3
 -15  -1  -1 222.179 32.0658   3
 -15  -1  -2 793.837 52.7649   3
 -15   1  -2 886.615 70.8079   4
 -15  -1  -2 802.155 69.0284   4
 -15   1  -2 800.646 47.0433   3
 -15  -1  -3 13291.9 244.119   3
 -15   1  -3 12622.4 283.329   4
 -15  -1  -3 12941.9 286.865   4
 -15  -1  -4 1678.68 99.1096   4
 -15   1  -4 1511.72 93.7233   4
 -15  -1  -5 1132.87 84.3575   4
 -15   1  -5 1232.46 88.2843   4
 -15   1  -6 2477.44 124.728   4
 -15  -1  -6 2443.58 123.859   4
 -15   1  -7 2.29913 38.2967   4
 -15  -1  -7 44.4768 41.2989   4
  15   3 -23 2857.80 138.217   2
  15  -3 -22 641.539 61.7615   2
  15   3 -22 600.804 65.7501   2
 -15   3  22 677.638 74.8170   5
 -15  -3  22 690.002 71.9436   5
  15  -3 -21-24.1976 32.3492   2
  15   3 -21-30.9092 36.4243   2
 -15   3  21-8.33704 36.8602   5
 -15  -3  21 1.78205 37.8690   5
  15   3 -20 3334.18 138.176   2
  15  -3 -20 3220.00 124.154   2
 -15  -3  20 3138.68 132.961   5
 -15   3  20 3265.98 137.232   5
  15  -3 -19 2822.38 115.786   2
  15   3 -19 3093.33 131.033   2
 -15  -3  19 2932.21 122.819   5
 -15   3  19 2988.13 110.016   4
 -15   3  19 2915.29 127.284   5
  15  -3 -18 749.519 60.6351   2
  15   3 -18 758.183 66.8823   2
 -15   3  18 723.211 63.3583   5
 -15  -3  18 738.372 62.8953   5
 -15   3  18 790.879 58.5724   4
  15  -3 -17 3899.28 131.967   2
  15   3 -17 4093.33 144.563   2
 -15  -3  17 4012.68 134.219   5
 -15   3  17 4031.81 127.120   4
 -15   3  17 4047.34 138.477   5
  15   3 -16 4742.98 153.915   2
 -15  -3  16 4689.33 141.165   5
 -15   3  16 4940.53 139.600   4
 -15   3  16 4760.23 146.749   5
  15  -3 -16 4698.34 144.916   2
  15  -3 -15 225.053 41.2464   2
  15   3 -15 247.938 43.2241   2
 -15   3  15 205.464 33.4666   4
 -15   3  15 208.355 35.7587   5
 -15  -3  15 227.592 35.4241   5
 -15  -3  15 329.190 30.2942   4
  15   3 -14 2182.55 101.640   2
 -15  -3  14 2430.41 76.8085   4
 -15  -3  14 2294.33 88.0431   5
 -15   3  14 2154.94 89.1872   4
 -15   3  14 2197.83 90.8117   5
  15   3 -13 590.433 54.7343   2
 -15   3  13 557.489 47.8085   5
 -15   3  13 586.400 49.6646   4
 -15  -3  13 558.114 38.8493   4
 -15  -3  13 451.008 40.3042   5
 -15  -3  12 5226.91 125.197   5
 -15  -3  12 5529.20 125.463   4
 -15   3  12 5295.85 133.900   5
 -15   3  12 5204.97 141.935   4
  15   3 -12 5209.56 152.931   2
 -15  -3  11 19277.8 285.503   5
 -15   3  11 19081.2 299.406   5
 -15  -3  11 19701.8 296.143   4
 -15   3  11 19491.1 322.040   4
 -15   3  10 1702.09 58.7555   1
 -15   3  10 1740.72 79.8465   4
 -15  -3  10 1727.09 59.7828   5
 -15  -3  10 1788.15 71.0049   4
 -15   3   9 11786.2 181.589   1
 -15  -3   9 12327.6 185.157   5
 -15   3   9 11991.4 235.235   4
 -15  -3   9 12554.0 220.592   4
 -15   3   8 1090.91 36.9565   1
 -15   3   8 1187.88 67.2904   4
 -15  -3   8 1115.65 59.6609   4
 -15  -3   8 1099.63 38.2379   5
 -15   3   7 11349.3 151.143   1
 -15  -3   7 12569.2 227.854   4
 -15   3   7 12401.7 241.109   4
 -15  -3   7 12225.4 154.831   5
 -15   3   6 6797.75 169.713   4
 -15  -3   6 6814.44 161.097   4
 -15  -3   5 9026.46 152.692   1
 -15   3   5 9005.60 202.596   4
 -15  -3   5 8740.37 192.723   4
 -15  -3   4 511.715 30.7194   1
  15  -3  -4 477.318 23.8778   5
 -15   3   4 498.403 48.3820   4
 -15  -3   4 465.962 45.6325   4
 -15  -3   3 10961.3 168.746   1
 -15   3   3 10636.6 232.135   4
 -15   3   3 10909.0 174.776   3
 -15  -3   3 10649.8 226.059   4
 -15  -3   2 3827.39 83.3687   1
 -15   3   2 3775.46 129.537   4
 -15   3   2 3705.39 85.8953   3
 -15  -3   2 3631.42 115.569   3
 -15  -3   2 3903.11 128.892   4
 -15  -3   1 288.960 23.2808   1
 -15  -3   1 237.952 40.7782   4
 -15  -3   1 247.842 34.6601   3
 -15   3   1 326.040 45.0445   4
 -15   3   1 251.717 23.1616   3
 -15   3   0 4729.06 152.611   4
 -15  -3   0 4547.59 132.281   3
 -15   3   0 4579.25 97.7232   3
 -15  -3   0 4556.21 149.042   4
 -15  -3  -1 9352.47 202.808   3
 -15   3  -1 9209.88 226.571   4
 -15  -3  -1 9480.91 228.481   4
 -15  -3  -2 44.0568 34.8182   4
 -15  -3  -2 31.3079 23.4822   3
 -15   3  -2 78.2348 35.7539   4
 -15  -3  -3 7567.30 211.432   4
 -15  -3  -3 7975.04 189.950   3
 -15   3  -3 7705.10 211.349   4
 -15  -3  -4 4852.28 169.578   4
 -15   3  -4 4662.03 164.110   4
 -15  -3  -4 4495.81 140.785   3
 -15  -3  -5 3003.87 136.704   4
 -15   3  -5 2758.55 127.746   4
 -15  -3  -6 2258.40 120.682   4
 -15   3  -6 2203.55 118.982   4
 -15   3  -7 15.3497 36.3163   4
 -15  -3  -7 41.5830 40.0982   4
 -15   3  -8 1199.74 92.1599   4
  15   5 -22 5813.99 199.641   2
  15   5 -21 469.693 62.0818   2
 -15   5  21 468.694 65.5324   5
  15   5 -20 8796.91 240.851   2
  15  -5 -20 8636.56 207.804   2
 -15   5  20 8708.37 238.148   5
  15  -5 -19 227.059 38.4880   2
  15   5 -19 231.016 47.3729   2
 -15   5  19 167.291 44.6578   5
  15  -5 -18 32.7147 27.1585   2
  15   5 -18 32.6681 35.7525   2
 -15   5  18 19.7023 34.0847   5
  15   5 -17 430.469 54.3260   2
  15  -5 -17 388.469 45.7425   2
 -15   5  17 456.398 55.8524   5
  15   5 -16 341.490 48.4074   2
  15  -5 -16 422.257 46.1382   2
 -15   5  16 393.346 51.2245   5
 -15   5  16 429.275 48.6457   4
  15   5 -15 173.782 39.4410   2
  15  -5 -15 182.902 38.4885   2
 -15   5  15 233.928 42.1014   5
 -15   5  15 90.1980 29.8720   4
  15   5 -14 5898.09 170.751   2
 -15   5  14 5794.30 160.105   4
 -15   5  14 5909.66 159.717   5
 -15  -5  14 5791.20 115.895   4
  15   5 -13 54.6547 35.7322   2
 -15   5  13 24.3292 26.4588   4
 -15   5  13 3.29022 26.5866   5
 -15  -5  13 11.7300 16.8873   4
 -15   5  12 7321.24 181.477   4
  15   5 -12 7555.94 192.896   2
 -15  -5  12 7657.97 147.212   4
  15   5 -11 34.7888 32.1594   2
 -15   5  11 54.0655 26.7729   4
 -15  -5  11 46.6803 18.4128   4
 -15   5  10 1640.48 81.6223   4
  15   5 -10 1784.19 89.5400   2
 -15  -5  10 1701.65 66.7307   4
 -15   5   9 1177.34 69.9928   4
 -15  -5   9 1285.15 59.3061   4
 -15   5   8 13317.8 260.238   4
 -15  -5   8 13356.6 234.026   4
 -15   5   7 578.373 52.1120   4
  15  -5  -7 550.045 37.5854   5
 -15  -5   7 582.120 25.0343   5
 -15  -5   7 610.132 46.5875   4
  15  -5  -6 5604.48 119.533   5
 -15   5   6 5718.08 159.172   4
 -15  -5   6 5801.06 144.903   4
 -15   5   5 1779.77 86.2946   4
  15  -5  -5 1597.57 56.7698   5
 -15  -5   5 1682.50 77.3483   4
 -15  -5   4 1513.36 60.8791   1
 -15   5   4 1512.09 82.3543   4
 -15  -5   4 1477.24 76.1393   4
 -15  -5   3 171.249 25.1322   1
 -15   5   3 173.227 35.6169   4
 -15  -5   3 141.376 33.3050   4
 -15  -5   2 5273.56 117.742   1
 -15   5   2 4921.57 154.146   4
 -15  -5   2 5033.17 150.135   4
 -15  -5   2 5013.53 146.210   3
 -15  -5   1 1582.78 61.1953   1
 -15   5   1 1640.43 89.3159   4
 -15  -5   1 1492.16 82.6619   4
 -15  -5   1 1574.01 80.6740   3
 -15  -5   0 6303.15 134.069   1
 -15   5   0 6110.53 178.014   4
 -15  -5   0 6137.35 166.842   3
 -15  -5   0 5987.62 174.226   4
 -15  -5  -1 22.2371 19.8042   1
 -15  -5  -1-30.4187 32.4762   4
 -15  -5  -1 26.9552 27.6827   3
 -15   5  -1 22.0193 29.9296   4
 -15   5  -2 3198.78 132.344   4
 -15  -5  -2 3266.82 133.440   4
 -15  -5  -2 3186.88 119.838   3
 -15  -5  -3 1291.43 87.4185   4
 -15  -5  -3 1299.12 78.8928   3
 -15   5  -3 1226.95 85.0729   4
 -15  -5  -4 3385.44 143.235   4
 -15  -5  -4 3313.90 127.416   3
 -15   5  -4 3229.89 138.397   4
 -15   5  -5 737.268 72.0097   4
 -15  -5  -5 688.494 61.6665   3
 -15  -5  -5 808.067 76.1365   4
 -15  -5  -6 4630.70 173.936   4
 -15   5  -6 4215.78 163.590   4
 -15   5  -7 77.5944 40.8865   4
 -15   7  21 148.409 51.1835   5
  15   7 -20 52.5974 38.7019   2
 -15   7  20 50.0747 41.8893   5
  15   7 -19 4440.99 167.198   2
 -15   7  19 4310.88 162.986   5
  15  -7 -18-41.9445 29.6476   2
  15   7 -18 22.4853 36.7686   2
 -15   7  18 34.4214 38.5166   5
  15  -7 -17 4327.36 132.717   2
  15   7 -17 4320.56 157.352   2
 -15   7  17 4274.20 152.671   5
  15   7 -16 357.726 52.0778   2
  15  -7 -16 239.444 38.5779   2
 -15   7  16 300.447 50.1178   5
  15   7 -15 2184.23 107.767   2
 -15   7  15 2237.04 102.526   4
  15  -7 -15 2205.96 93.2532   1
  15   7 -14 133.754 40.6231   2
 -15   7  14 203.631 38.5675   4
  15  -7 -14 208.499 32.8823   1
  15   7 -13 740.492 64.3784   2
  15  -7 -13 718.595 50.0891   1
 -15   7  13 759.308 62.8908   4
  15   7 -12 716.436 62.9587   2
  15  -7 -12 536.351 41.3387   1
 -15   7  12 719.549 61.3420   4
 -15  -7  12 752.216 38.8093   4
  15  -7 -11 9825.43 179.885   1
 -15   7  11 9355.24 218.797   4
 -15  -7  11 9944.39 174.327   4
  15   7 -11 9801.07 226.777   2
  15   7 -10 3.40233 30.2918   2
 -15   7  10 79.2277 31.6257   4
 -15  -7  10 83.4707 22.6507   4
 -15   7   9 4991.25 151.879   4
 -15  -7   9 5004.86 123.291   4
  15   7  -9 4916.37 149.073   2
 -15   7   8 364.141 46.2985   4
 -15  -7   8 422.022 38.4022   4
 -15   7   7 354.554 45.3041   4
 -15  -7   7 367.161 38.0185   4
 -15   7   6 62.2072 30.7830   4
 -15  -7   6-9.79349 21.6035   4
 -15  -7   5 4993.63 130.091   1
 -15   7   5 5175.47 157.372   4
 -15  -7   5 5080.06 140.949   4
 -15  -7   4 4745.02 125.302   1
 -15   7   4 4775.19 153.118   4
 -15  -7   4 4575.39 136.969   4
 -15  -7   3 9922.85 194.273   1
 -15   7   3 9723.25 229.307   4
 -15  -7   3 9805.98 219.356   4
 -15  -7   2 3799.76 109.412   1
 -15   7   2 3617.95 134.136   4
 -15  -7   2 3591.42 127.098   4
 -15  -7   2 3736.78 132.626   3
 -15  -7   1 32.1800 22.7351   1
 -15   7   1 43.9905 33.2130   4
 -15  -7   1-26.1087 32.0309   3
 -15  -7   1 23.1439 28.4131   4
 -15  -7   0 2197.89 83.5088   1
 -15   7   0 2268.80 108.722   4
 -15  -7   0 2268.86 103.935   3
 -15  -7   0 2289.37 106.295   4
 -15  -7  -1 7446.75 166.477   1
 -15   7  -1 7423.81 204.969   4
 -15  -7  -1 7204.19 195.264   3
 -15  -7  -1 7532.57 206.032   4
 -15  -7  -2 218.103 31.9127   1
 -15  -7  -2 179.771 41.5824   4
 -15  -7  -2 191.992 41.9032   3
 -15   7  -2 259.659 44.1194   4
 -15   7  -3 9205.33 240.711   4
 -15  -7  -3 9225.45 241.542   4
 -15  -7  -3 9465.88 232.863   3
 -15  -7  -4 2293.14 119.126   4
 -15  -7  -4 2179.20 109.614   3
 -15   7  -4 2239.23 116.444   4
 -15  -7  -5 2629.77 130.957   4
 -15   7  -5 2591.31 127.190   4
 -15  -7  -5 2647.28 122.980   3
 -15  -7  -6 2065.70 120.636   4
 -15   7  -6 1854.60 110.338   4
 -15  -7  -6 1781.22 103.829   3
 -15   7  -7 99.0270 43.6328   4
 -15   9  20 4080.48 168.577   5
  15  -9 -20 3689.53 151.422   1
  15  -9 -19 559.689 63.0845   1
  15   9 -19 669.815 71.6273   2
  15  -9 -18 390.862 51.9159   1
  15   9 -18 426.652 59.5099   2
  15  -9 -17 144.036 35.9936   1
  15   9 -17 149.305 43.2486   2
  15  -9 -16 2897.82 115.092   1
  15   9 -16 3057.68 132.755   2
  15  -9 -16 2925.60 105.415   2
  15   9 -15-1.51199 36.8428   2
  15  -9 -15-3.18375 24.7631   1
  15   9 -14 10176.8 246.946   2
 -15   9  14 9794.82 238.575   4
  15  -9 -14 10399.9 214.580   1
  15   9 -13 1337.36 84.6169   2
 -15   9  13 1350.93 83.8381   4
  15  -9 -13 1238.41 65.5155   1
  15   9 -12 4854.39 157.936   2
 -15   9  12 4757.31 157.643   4
  15  -9 -12 4792.06 125.708   1
  15   9 -11 395.065 52.5751   2
  15  -9 -11 343.501 35.1610   1
 -15   9  11 337.846 48.0595   4
  15   9 -10 1216.51 77.5306   2
  15  -9 -10 1239.55 55.9928   1
 -15   9  10 1169.60 76.1765   4
 -15  -9  10 1143.22 54.2097   4
  15   9  -9 338.694 45.8046   2
  15  -9  -9 338.741 28.8596   1
 -15   9   9 395.747 50.0278   4
 -15  -9   9 364.714 33.8036   4
 -15   9   8 3947.45 139.079   4
  15   9  -8 3860.03 131.340   2
  15   9  -7 14.3944 28.9963   2
 -15   9   7 14.1941 28.4075   4
 -15  -9   7-0.37434 22.0091   4
 -15   9   6 8928.22 220.293   4
 -15  -9   6 8940.94 192.986   4
  15   9  -6 9169.44 211.585   2
 -15  -9   5 6473.26 163.596   1
 -15   9   5 6686.80 186.069   4
 -15  -9   5 6178.79 160.014   4
 -15  -9   4 720.330 53.9046   1
 -15   9   4 704.117 64.8608   4
 -15  -9   4 659.225 53.9986   4
 -15  -9   3 143.041 32.9198   1
 -15   9   3 166.510 41.5117   4
 -15  -9   3 103.659 31.2041   4
 -15  -9   2 972.350 62.3861   1
 -15   9   2 1072.50 77.6182   4
 -15  -9   2 1063.88 71.1951   4
 -15  -9   2 1173.78 81.1886   3
 -15  -9   1 847.776 57.4590   1
 -15   9   1 883.578 70.6931   4
 -15  -9   1 788.572 64.4324   4
 -15  -9   1 899.046 71.6626   3
 -15  -9   0 6650.91 166.632   1
 -15   9   0 6643.58 194.853   4
 -15  -9   0 6206.87 188.366   3
 -15  -9   0 6551.07 188.835   4
 -15  -9  -1 130.778 30.8175   1
 -15  -9  -1 214.310 47.4352   3
 -15  -9  -1 130.830 38.2858   4
 -15   9  -1 109.243 37.3156   4
 -15  -9  -2 2020.65 90.5117   1
 -15   9  -2 1707.83 99.4938   4
 -15  -9  -2 1801.14 101.412   3
 -15  -9  -2 1567.89 96.9514   4
 -15  -9  -3 465.312 59.3891   4
 -15   9  -3 530.881 63.7181   4
 -15  -9  -3 519.935 62.8650   3
 -15   9  -4 1298.22 92.3809   4
 -15  -9  -4 1031.92 82.6277   3
 -15  -9  -4 1167.89 92.5351   4
 -15  -9  -5 764.773 75.3140   3
 -15  -9  -5 826.289 79.8819   4
 -15   9  -5 720.255 72.8818   4
 -15   9  -6 3593.86 153.462   4
 -15  -9  -6 3604.89 152.727   3
  15 -11 -20 412.974 58.7985   1
  15 -11 -19 4110.83 156.390   1
  15 -11 -18 103.797 38.0515   1
  15  11 -17 3863.11 158.057   2
  15 -11 -17 3850.48 142.593   1
  15  11 -16 102.290 39.5628   2
  15 -11 -16 57.8755 31.0784   1
  15  11 -15 300.198 50.4245   2
  15 -11 -15 263.853 40.8477   1
  15  11 -14 1884.86 105.472   2
  15 -11 -14 1806.82 88.1910   1
  15  11 -13 4732.50 164.444   2
 -15  11  13 5061.69 170.701   4
  15 -11 -13 4889.69 139.966   1
  15  11 -12-7.15373 32.4651   2
 -15  11  12 0.21729 32.9153   4
  15 -11 -12-5.98696 21.1504   1
  15  11 -11 1954.95 101.085   2
 -15  11  11 1912.16 104.030   4
  15 -11 -11 1868.33 77.5022   1
  15  11 -10-45.4144 36.5910   2
 -15  11  10-50.3154 37.5652   4
  15  11  -9 1769.00 92.7706   2
 -15  11   9 1791.99 98.8557   4
  15  11  -8 1481.12 86.0210   2
 -15  11   8 1542.42 92.3513   4
  15  11  -7 140.050 37.1233   2
 -15  11   7 83.1049 35.5377   4
  15  11  -6 205.628 39.0566   2
 -15  11   6 274.217 45.5299   4
 -15 -11   6 318.818 38.4967   4
 -15 -11   5 6294.07 172.730   1
 -15  11   5 6334.08 188.009   4
 -15 -11   5 5997.73 160.502   4
  15  11  -5 6262.85 172.278   2
  15  11  -4 149.254 39.8320   2
 -15 -11   4 88.2652 30.6764   1
 -15  11   4 151.835 43.7147   4
 -15 -11   4 97.9424 31.6517   4
 -15 -11   3 6636.93 177.917   1
 -15  11   3 6368.02 193.143   4
 -15 -11   3 6306.23 175.347   4
  15  11  -3 6845.99 177.878   2
 -15 -11   2 769.545 62.4300   1
 -15  11   2 792.557 70.3142   4
 -15 -11   2 628.593 66.8470   3
 -15 -11   2 694.577 62.9905   4
 -15 -11   1 2647.97 109.586   1
 -15  11   1 2654.39 123.237   4
 -15 -11   1 2482.26 113.171   4
 -15 -11   1 2517.00 124.822   3
 -15 -11   0 951.877 67.8724   1
 -15  11   0 996.490 78.6324   4
 -15 -11   0 936.157 79.5137   3
 -15 -11   0 1015.84 77.8307   4
 -15 -11  -1 1312.84 80.1882   1
 -15  11  -1 1423.96 93.3017   4
 -15 -11  -1 1283.34 90.9680   3
 -15 -11  -2 62.9899 30.3684   1
 -15 -11  -2 37.1817 33.9972   3
 -15  11  -2 73.1352 40.7483   4
 -15 -11  -3 7990.85 207.234   1
 -15  11  -3 7907.56 228.492   4
 -15 -11  -3 7926.42 233.187   3
 -15 -11  -4-10.2348 37.8992   3
 -15  11  -4 43.5995 34.8190   4
 -15  11  -5 5368.82 191.591   4
  15 -13 -19 71.9233 40.3799   1
  15 -13 -18 1164.23 86.2178   1
  15 -13 -17 897.650 75.3023   1
  15  13 -16 1372.47 97.0536   2
  15 -13 -16 1394.57 86.0218   1
  15  13 -15 75.9343 39.4039   2
  15 -13 -15 85.5657 34.9239   1
  15  13 -14 4829.76 172.925   2
  15 -13 -14 4464.96 145.165   1
  15  13 -13 222.353 48.7088   2
 -15  13  13 236.260 51.9207   4
  15 -13 -13 181.021 37.5830   1
  15  13 -12 2192.16 112.208   2
 -15  13  12 2254.46 118.111   4
  15  13 -11 391.112 55.8278   2
 -15  13  11 423.758 57.8352   4
  15  13 -10 641.939 63.1009   2
 -15  13  10 613.277 66.1562   4
  15  13  -9 1787.91 96.5475   2
 -15  13   9 1814.31 103.800   4
  15  13  -8 1883.08 98.0542   2
 -15  13   8 1890.86 106.926   4
  15  13  -7 551.627 56.3741   2
 -15  13   7 527.776 62.6530   4
  15  13  -6 6384.97 177.855   2
 -15  13   6 6379.66 197.700   4
 -15 -13   6 6483.03 189.386   1
  15  13  -5 26.9815 31.7100   2
 -15  13   5-7.28785 32.2818   4
 -15 -13   5 4.80657 32.9463   1
  15  13  -4 390.172 48.6810   2
 -15 -13   4 302.244 49.9248   1
 -15  13   4 320.836 54.3626   4
  15  13  -3 71.3175 33.6539   2
 -15 -13   3 94.2696 35.8113   1
 -15  13   3 114.194 44.7060   4
 -15 -13   3 60.6872 39.8089   3
 -15 -13   2 3065.00 127.626   1
 -15  13   2 3525.06 146.164   4
  15  13  -2 3234.75 120.517   2
 -15 -13   2 3311.74 146.652   3
  15  13  -1 53.4268 35.0132   2
 -15 -13   1 48.2731 35.6942   1
 -15  13   1 16.2539 32.8879   4
 -15 -13   1-37.3124 40.6265   3
 -15 -13   0 4030.14 148.175   1
 -15  13   0 4155.11 161.625   4
 -15 -13   0 4292.72 169.678   3
 -15 -13  -1-15.7984 34.2097   1
 -15  13  -1-48.6610 40.5538   4
 -15 -13  -1-12.8002 39.4421   3
 -15 -13  -2 674.219 65.6301   1
 -15  13  -2 885.681 82.1448   4
 -15 -13  -2 612.494 73.0599   3
 -15 -13  -3 978.069 78.8807   1
 -15  13  -3 1030.80 85.8359   4
  15  15 -14 305.667 58.8692   2
  15  15 -13-14.5211 38.6239   2
  15  15 -12 195.999 45.6885   2
 -15  15  12 68.0609 39.7571   4
  15  15 -11 2532.02 123.101   2
 -15  15  11 2505.48 131.502   4
  15  15 -10 169.480 44.5684   2
 -15  15  10 194.812 49.5269   4
  15  15  -9 1280.92 87.8430   2
 -15  15   9 1265.49 93.9697   4
  15  15  -8 2097.64 107.779   2
 -15  15   8 2190.54 120.678   4
  15  15  -7 244.387 44.9988   2
 -15  15   7 301.647 53.0617   4
  15  15  -6 1135.68 79.1877   2
 -15  15   6 1522.70 108.703   4
 -15 -15   6 1298.17 92.5507   1
  15  15  -5 5663.79 169.400   2
 -15 -15   5 5846.92 191.494   1
 -15  15   5 5651.96 193.655   4
  15  15  -4 128.406 36.4537   2
 -15 -15   4 71.8723 39.5306   1
 -15  15   4 212.085 48.8242   4
 -15 -15   4 157.246 46.9641   3
 -15 -15   3 3785.39 151.043   1
 -15  15   3 3798.98 157.507   4
 -15 -15   3 3700.17 162.091   3
 -15 -15   2 463.198 62.3785   1
 -15  15   2 431.702 62.7050   4
 -15 -15   2 474.021 68.6985   3
 -15  15   1 975.173 83.6129   4
 -15 -15   1 998.852 81.1266   1
 -15  15   0 1281.56 93.6796   4
 -15 -15   0 1036.69 83.9871   1
 -15 -15  -1 1269.32 91.5029   1
 -15 -15  -2 91.3064 40.9030   1
  15  17 -11 838.426 78.2484   2
  15  17 -10 24.2994 37.1612   2
  15  17  -9 71.5380 37.6144   2
  15  17  -8 1641.86 98.3346   2
  15  17  -7 850.486 71.9139   2
 -15 -17   7 866.178 85.5422   1
 -15 -17   6 94.1990 44.5650   1
 -15 -17   5 981.094 89.0682   1
 -15 -17   4 71.8569 44.3256   1
 -15 -17   3 3237.97 148.780   1
 -15 -17   2 845.138 82.4632   1
  16   0 -24 5636.44 192.476   2
  16   0 -23-4.94778 35.6815   2
  16   0 -22 825.836 74.4810   2
 -16   0  22 800.227 74.7710   5
  16   0 -21 11.0308 33.9696   2
 -16   0  21-118.584 46.7633   5
  16   0 -20 5768.55 180.485   2
 -16   0  20 5828.71 184.015   5
  16   0 -19-6.11211 31.4418   2
 -16   0  19-17.5364 37.0413   5
  16   0 -18 1756.57 94.4130   2
 -16   0  18 1733.18 92.9203   5
  16   0 -17-31.3512 32.6086   2
 -16   0  17-15.6667 29.4949   5
 -16   0  17 36.8052 22.7418   4
  16   0 -16 15555.2 307.932   2
 -16   0  16 16482.6 274.974   4
 -16   0  16 16215.0 295.361   5
  16   0 -15 56.1949 32.6982   2
 -16   0  15-11.8384 26.2580   5
 -16   0  15 15.0948 22.7532   4
 -16   0  14 1494.46 71.3009   4
 -16   0  14 1392.67 70.1971   5
  16   0 -14 1485.63 84.8286   2
 -16   0  13-24.8560 22.2102   4
 -16   0  13 33.2626 25.1893   5
 -16   0  12 8189.41 179.093   4
 -16   0  12 8196.74 164.713   5
 -16   0  11-30.7571 21.2091   5
 -16   0  11-14.1067 20.4715   4
 -16   0  10 5590.62 118.963   1
 -16   0  10 5745.52 118.497   5
 -16   0  10 5908.04 148.246   4
 -16   0   9-9.65642 12.5858   1
 -16   0   9 0.51633 21.6072   4
 -16   0   8 488.470 44.0669   4
 -16   0   7-13.7064 23.5522   4
 -16   0   6 1558.42 36.9879   1
 -16   0   6 1633.65 80.0037   4
 -16   0   5 10.4424 25.0400   4
 -16   0   4 5166.72 151.567   4
 -16   0   3 13.2900 20.5523   3
 -16   0   3-13.6606 26.8077   4
 -16   0   2 3518.38 128.168   4
 -16   0   2 3293.09 99.9468   3
 -16   0   1 10.7769 19.0123   3
 -16   0   1 6.23055 29.1082   4
 -16   0   0 1641.59 70.4647   3
 -16   0   0 1798.27 94.8174   4
 -16   0  -1-4.65913 18.2902   3
 -16   0  -1 48.9810 36.1212   4
 -16   0  -2 12182.9 223.621   3
 -16   0  -2 11576.3 272.164   4
 -16   0  -3 27.1908 33.2408   4
 -16   0  -4 6353.39 200.211   4
 -16   0  -5 55.4240 40.6410   4
 -16   0  -6 1708.24 107.973   4
  16  -2 -23 1931.67 105.332   2
  16   2 -23 1857.03 111.174   2
  16  -2 -22 46.3918 34.8553   2
  16   2 -22 13.7348 38.4520   2
 -16   2  22 86.7834 41.3632   5
 -16  -2  22 52.1742 41.7737   5
  16   2 -21 7789.82 222.764   2
  16  -2 -21 7481.28 207.054   2
 -16  -2  21 7633.43 219.513   5
 -16   2  21 7629.00 221.349   5
  16  -2 -20 664.684 63.2259   2
  16   2 -20 615.374 64.1729   2
 -16   2  20 699.601 68.4520   5
 -16  -2  20 687.554 67.6684   5
  16  -2 -19 1397.18 83.6435   2
  16   2 -19 1392.96 89.8282   2
 -16  -2  19 1406.30 86.6066   5
 -16   2  19 1634.53 79.9999   4
 -16   2  19 1519.93 91.1175   5
  16  -2 -18 86.5399 34.4358   2
  16   2 -18 111.018 38.9708   2
 -16   2  18 131.600 30.5924   4
 -16   2  18 126.040 39.1868   5
 -16  -2  18 89.1704 33.4950   5
  16  -2 -17 1716.54 90.2350   2
  16   2 -17 1732.43 95.1034   2
 -16  -2  17 1692.10 87.5289   5
 -16   2  17 1731.05 81.0992   4
 -16   2  17 1879.23 93.9387   5
  16  -2 -16 782.021 64.3374   2
  16   2 -16 751.463 64.9308   2
 -16  -2  16 825.505 60.5852   5
 -16  -2  16 838.062 48.8840   4
 -16   2  16 778.704 55.9880   4
 -16   2  16 882.175 63.6137   5
  16   2 -15 4753.73 154.080   2
 -16  -2  15 4718.08 135.123   5
 -16  -2  15 4994.75 122.317   4
 -16   2  15 4787.26 136.984   4
 -16   2  15 4814.20 140.623   5
  16  -2 -15 4584.38 146.354   2
  16   2 -14 287.710 44.6515   2
 -16   2  14 207.860 33.8567   5
 -16  -2  14 158.101 25.2497   4
 -16  -2  14 312.952 37.8091   5
 -16   2  14 203.730 32.8973   4
 -16   2  13 7023.43 170.011   4
 -16  -2  13 7541.64 160.290   4
 -16  -2  13 7489.11 160.225   5
 -16   2  13 7273.77 164.740   5
  16   2 -13 7336.67 189.990   2
 -16   2  12 174.079 29.9196   5
 -16  -2  12 175.556 27.2944   5
 -16  -2  12 188.105 29.1347   4
 -16   2  12 188.186 32.4690   4
 -16   2  11 178.663 34.0229   4
 -16   2  11 181.637 29.9555   5
 -16  -2  11 97.5806 22.0568   5
 -16  -2  11 103.556 28.0656   4
 -16   2  10 7.03567 22.7181   4
 -16  -2  10 32.3441 16.5388   5
 -16  -2  10 11.2749 20.3995   4
 -16  -2   9 6692.77 157.535   4
 -16   2   9 6770.67 168.196   4
 -16  -2   9 6754.53 118.254   5
 -16  -2   8 1513.71 54.6441   1
 -16  -2   8 1579.57 73.9953   4
 -16   2   8 1462.07 75.6796   4
 -16  -2   7 1814.46 82.4888   4
 -16   2   7 1849.16 86.5784   4
 -16   2   6-14.7051 25.0141   4
 -16  -2   6 22.6437 23.2576   4
 -16  -2   5 3981.92 81.5411   1
 -16   2   5 4015.86 131.642   4
 -16  -2   5 4096.57 129.341   4
 -16  -2   4 55.3434 13.1552   1
 -16   2   4 51.2052 27.4694   4
 -16  -2   4 36.7846 25.8381   4
 -16   2   3 4010.18 136.544   4
 -16  -2   3 3901.82 132.025   4
 -16   2   3 3985.98 99.3485   3
 -16  -2   2 126.443 32.9745   4
 -16  -2   2 91.1745 27.2400   3
 -16   2   2 143.192 22.3920   3
 -16   2   2 77.9902 31.5211   4
 -16   2   1 7249.70 194.698   4
 -16  -2   1 6746.30 163.008   3
 -16   2   1 7118.87 140.763   3
 -16  -2   1 6935.29 188.878   4
 -16  -2   0 4181.19 124.651   3
 -16   2   0 4312.81 149.747   4
 -16  -2   0 4201.41 146.925   4
 -16  -2  -1 4776.31 135.646   3
 -16   2  -1 4650.08 159.236   4
 -16  -2  -1 4767.91 160.807   4
 -16  -2  -2 929.887 61.3053   3
 -16   2  -2 962.799 76.3423   4
 -16  -2  -2 958.937 75.8333   4
 -16  -2  -3 2231.25 115.768   4
 -16  -2  -3 2122.03 91.5549   3
 -16   2  -3 2024.59 110.517   4
 -16   2  -4 376.926 56.2545   4
 -16  -2  -4 405.077 57.0224   4
 -16  -2  -4 355.775 44.1712   3
 -16  -2  -5 3428.41 149.855   4
 -16   2  -5 3404.97 148.153   4
 -16   2  -6 668.750 70.4376   4
 -16  -2  -6 689.037 77.4219   4
  16   4 -22 511.834 67.0854   2
 -16   4  22 604.189 73.3685   5
 -16  -4  22 497.217 63.3923   5
  16   4 -21 1139.54 86.7270   2
  16  -4 -21 994.395 73.7242   2
 -16  -4  21 1095.52 84.7765   5
 -16   4  21 1307.14 93.3529   5
  16   4 -20 2674.51 128.714   2
  16  -4 -20 2680.28 114.669   2
 -16  -4  20 2366.21 115.663   5
 -16   4  20 2645.12 110.146   4
 -16   4  20 2581.71 125.503   5
  16  -4 -19 81.7425 31.4961   2
  16   4 -19 44.4685 32.8201   2
 -16   4  19 131.798 39.5022   5
 -16  -4  19 190.112 42.1619   5
 -16   4  19 185.464 37.3135   4
  16  -4 -18 3949.29 135.330   2
  16   4 -18 4134.04 152.857   2
 -16   4  18 4102.74 135.569   4
 -16   4  18 4038.25 145.364   5
  16   4 -17 219.535 42.5911   2
  16  -4 -17 244.792 44.9370   2
 -16   4  17 268.307 42.5634   4
 -16   4  17 293.362 45.1779   5
  16   4 -16 5792.79 177.132   2
 -16   4  16 5883.98 162.206   4
 -16   4  16 5764.45 165.062   5
  16  -4 -16 5578.70 162.020   2
  16  -4 -15 324.208 46.3906   2
  16   4 -15 290.987 47.2269   2
 -16   4  15 229.282 39.7805   4
 -16   4  15 312.110 43.2585   5
  16   4 -14 860.361 68.5143   2
 -16  -4  14 940.118 50.4964   4
 -16   4  14 1027.42 66.7436   5
 -16   4  14 973.420 64.9741   4
  16   4 -13 743.870 65.9118   2
 -16  -4  13 623.099 44.5140   5
 -16   4  13 759.817 56.8626   5
 -16   4  13 703.000 56.9418   4
 -16  -4  13 746.193 44.9012   4
 -16  -4  12 5003.88 120.729   5
 -16  -4  12 5057.23 123.494   4
 -16   4  12 4642.90 141.163   4
  16   4 -12 4993.31 155.396   2
 -16  -4  11 19.0295 17.1170   5
 -16   4  11 36.0851 24.4962   4
 -16  -4  11-4.74391 19.1214   4
 -16  -4  10 11887.4 190.350   5
 -16   4  10 12056.6 245.552   4
 -16  -4  10 12575.5 223.613   4
 -16  -4   9 1469.26 48.6821   5
 -16   4   9 1561.86 82.0188   4
 -16  -4   9 1551.89 70.2309   4
 -16   4   8 1058.04 67.7065   4
 -16  -4   8 1085.28 34.6954   5
 -16  -4   8 1022.84 59.7593   4
 -16   4   7 871.841 63.8944   4
 -16  -4   7 829.088 55.7972   4
 -16   4   6 4899.04 148.763   4
 -16  -4   6 4677.85 135.185   4
 -16  -4   5 230.019 26.3513   1
 -16   4   5 256.105 40.0056   4
 -16  -4   5 282.198 38.3712   4
 -16  -4   4 11881.5 191.760   1
 -16   4   4 12020.3 255.421   4
 -16   4   4 12030.6 183.385   3
 -16  -4   4 11675.8 243.287   4
 -16  -4   3 529.075 33.4326   1
 -16  -4   3 552.788 52.7543   4
 -16   4   3 604.214 57.4160   4
 -16   4   2 3582.75 133.315   4
 -16  -4   2 3685.09 122.195   3
 -16  -4   2 3615.40 130.674   4
 -16   4   1 2700.56 117.493   4
 -16  -4   1 2488.52 102.265   3
 -16  -4   1 2545.62 112.139   4
 -16   4   0 1525.27 91.2921   4
 -16  -4   0 1525.01 90.7294   4
 -16  -4   0 1582.75 82.0002   3
 -16  -4  -1 258.645 43.9554   4
 -16  -4  -1 334.952 43.7186   3
 -16   4  -1 322.701 51.6823   4
 -16  -4  -2 11269.3 267.481   4
 -16  -4  -2 10812.1 237.480   3
 -16   4  -2 11233.4 268.106   4
 -16   4  -3-24.3984 37.2909   4
 -16  -4  -3-12.3898 26.3442   3
 -16  -4  -3 14.4551 34.2849   4
 -16  -4  -4 4236.05 164.458   4
 -16   4  -4 4122.72 159.320   4
 -16  -4  -4 4036.92 139.758   3
 -16   4  -5 366.057 58.8823   4
 -16  -4  -5 365.627 58.1869   4
 -16  -4  -5 421.519 51.9818   3
 -16   4  -6 805.353 78.2997   4
  16   6 -21 2642.20 132.054   2
 -16   6  21 2633.36 133.907   5
  16   6 -20 1575.29 102.538   2
 -16   6  20 1447.81 99.5061   5
  16   6 -19 1373.96 94.5097   2
  16  -6 -19 1352.51 78.4098   2
 -16   6  19 1278.17 89.0215   5
  16  -6 -18 854.945 62.8280   2
  16   6 -18 932.541 79.2396   2
 -16   6  18 854.982 75.5038   5
 -16   6  18 846.172 68.0661   4
  16   6 -17 1163.81 85.5254   2
 -16   6  17 1053.99 74.1956   4
 -16   6  17 1030.21 76.7899   5
  16  -6 -17 942.261 66.5616   2
  16   6 -16 445.290 56.3523   2
  16  -6 -16 425.824 49.3476   2
 -16   6  16 479.128 55.9843   5
 -16   6  16 506.043 53.7645   4
  16   6 -15 4561.03 157.781   2
 -16   6  15 4662.77 149.554   4
 -16   6  15 4693.25 148.059   5
  16   6 -14 223.858 44.9999   2
 -16   6  14 287.461 43.2049   4
  16   6 -13 11848.3 259.435   2
 -16   6  13 11572.9 248.832   4
 -16  -6  13 11586.9 194.702   4
 -16   6  12 911.592 66.4563   4
  16   6 -12 947.410 71.3593   2
 -16  -6  12 958.137 49.6163   4
 -16   6  11 2490.80 105.865   4
  16   6 -11 2531.46 110.965   2
 -16  -6  11 2577.95 83.6023   4
 -16   6  10 1600.31 85.4086   4
 -16  -6  10 1610.90 69.2849   4
  16   6 -10 1684.96 90.9780   2
 -16   6   9 3887.26 134.011   4
 -16  -6   9 3978.11 113.514   4
 -16   6   8 386.722 47.4380   4
 -16  -6   8 406.318 39.7281   4
 -16   6   7 9526.94 223.933   4
 -16  -6   7 9704.07 201.704   4
 -16   6   6 1283.30 79.3857   4
 -16  -6   6 1153.22 67.2307   4
 -16  -6   5 4316.73 113.950   1
 -16   6   5 4323.76 144.506   4
 -16  -6   5 4261.41 132.742   4
 -16  -6   4 747.401 47.0729   1
 -16   6   4 673.074 59.7296   4
 -16  -6   4 573.918 52.7356   4
 -16  -6   3 230.513 30.0092   1
 -16   6   3 190.800 40.5154   4
 -16  -6   3 250.393 40.7898   4
 -16  -6   2 71.5533 23.2981   1
 -16   6   2 15.5405 30.7442   4
 -16  -6   2 81.5671 34.7357   3
 -16  -6   2 61.3597 33.8430   4
 -16  -6   1 1698.68 68.0900   1
 -16   6   1 1671.54 93.9292   4
 -16  -6   1 1724.11 93.9233   4
 -16  -6   1 1705.11 91.1382   3
 -16   6   0 2217.90 109.889   4
 -16  -6   0 2132.36 101.438   3
 -16  -6   0 2317.56 111.489   4
 -16   6  -1 1598.55 95.6742   4
 -16  -6  -1 1535.56 92.9052   4
 -16  -6  -1 1530.27 86.5979   3
 -16   6  -2 2347.88 118.167   4
 -16  -6  -2 2348.08 117.737   4
 -16  -6  -2 2394.19 109.972   3
 -16  -6  -3 118.816 37.0924   3
 -16  -6  -3 221.916 48.8368   4
 -16   6  -3 141.356 37.7525   4
 -16  -6  -4 419.878 53.4603   3
 -16  -6  -4 401.355 62.0610   4
 -16   6  -4 354.631 55.7979   4
 -16  -6  -5 3389.30 152.389   4
 -16   6  -5 3150.34 141.581   4
 -16  -6  -5 3139.20 132.754   3
 -16   6  -6 18.4302 44.2285   4
 -16   8  20 300.051 58.0730   5
  16   8 -19 151.580 44.3381   2
 -16   8  19 155.937 50.3533   5
  16   8 -18 3345.87 144.555   2
  16   8 -17 571.183 64.4050   2
  16  -8 -17 516.999 52.8376   2
  16   8 -16 707.366 68.9548   2
 -16   8  16 636.389 60.3950   4
  16  -8 -16 760.467 60.2505   2
  16   8 -15 3343.63 137.530   2
 -16   8  15 3243.82 131.980   4
  16   8 -14 1886.47 101.980   2
 -16   8  14 1746.84 96.3258   4
  16  -8 -14 1777.30 78.8812   1
  16   8 -13 6889.93 194.297   2
 -16   8  13 6918.88 192.160   4
  16  -8 -13 6764.51 156.615   1
  16   8 -12 2737.55 118.981   2
 -16   8  12 2844.62 118.766   4
  16   8 -11 713.691 64.6265   2
 -16   8  11 661.208 61.7883   4
 -16  -8  11 732.461 44.2481   4
 -16   8  10 3549.19 133.899   4
 -16  -8  10 3753.45 105.239   4
  16   8 -10 3614.08 133.196   2
  16   8  -9 158.627 42.7873   2
 -16   8   9 110.057 33.9933   4
 -16  -8   9 96.0856 26.2870   4
  16   8  -8 566.302 59.7135   2
 -16   8   8 383.156 50.8810   4
 -16  -8   8 448.285 43.6008   4
 -16   8   7 1007.88 74.2400   4
 -16  -8   7 885.995 59.0723   4
 -16   8   6 7612.43 205.511   4
 -16  -8   6 8010.29 185.368   4
 -16  -8   5 8887.09 192.028   1
 -16   8   5 9284.80 229.448   4
 -16  -8   5 8798.54 202.749   4
 -16  -8   4 7551.07 172.305   1
 -16   8   4 7414.92 202.600   4
 -16  -8   4 7535.25 189.108   4
 -16  -8   3 767.643 53.2660   1
 -16   8   3 717.886 65.2291   4
 -16  -8   3 787.190 62.8105   4
 -16  -8   2 6058.33 150.622   1
 -16   8   2 5984.93 184.410   4
 -16  -8   2 5883.10 172.880   4
 -16  -8   2 5832.67 177.411   3
 -16  -8   1 2185.63 87.2705   1
 -16   8   1 2116.38 109.462   4
 -16  -8   1 2051.43 104.848   4
 -16  -8   1 2102.40 105.483   3
 -16   8   0 2176.63 112.386   4
 -16  -8   0 2164.37 109.348   3
 -16  -8   0 2334.81 112.166   4
 -16   8  -1 2106.92 111.814   4
 -16  -8  -1 1957.44 104.259   3
 -16  -8  -1 2032.25 107.717   4
 -16   8  -2 1800.73 105.973   4
 -16  -8  -2 1863.10 104.358   3
 -16  -8  -2 1694.85 103.764   4
 -16  -8  -3 631.048 70.9323   4
 -16   8  -3 536.713 65.9414   4
 -16  -8  -3 557.919 62.0009   3
 -16  -8  -4 5060.28 184.935   4
 -16  -8  -4 4939.49 174.326   3
 -16   8  -4 4873.51 179.980   4
 -16  -8  -5 44.3914 33.3587   3
 -16   8  -5 85.4491 47.9789   4
 -16  -8  -6 346.846 56.1370   3
  16 -10 -20 1244.49 90.0088   1
  16 -10 -19 147.091 42.2699   1
  16  10 -18 1700.79 109.564   2
  16 -10 -18 1559.70 92.4152   1
  16  10 -17 283.240 53.3684   2
  16 -10 -17 210.505 39.0718   1
  16  10 -16 2272.57 118.833   2
  16 -10 -16 2099.50 98.1339   1
  16  10 -15 2141.08 112.515   2
 -16  10  15 1920.94 106.198   4
  16 -10 -15 2053.30 91.6646   1
  16  10 -14 81.6557 40.4263   2
 -16  10  14-18.3710 36.6391   4
  16 -10 -14 53.3443 27.1586   1
  16  10 -13 3506.24 139.936   2
 -16  10  13 3454.41 141.310   4
  16 -10 -13 3298.78 108.155   1
  16  10 -12 1435.39 90.2959   2
 -16  10  12 1308.50 86.9875   4
  16  10 -11 20.2720 33.7341   2
 -16  10  11 50.3106 36.2326   4
  16  10 -10 5522.78 170.483   2
 -16  10  10 5667.20 177.837   4
  16  10  -9 134.027 36.4816   2
 -16  10   9 144.103 38.8756   4
 -16 -10   9 232.020 33.4007   4
  16  10  -8 230.090 43.6064   2
 -16  10   8 238.443 44.9015   4
 -16 -10   8 215.340 32.7908   4
 -16  10   7 7113.01 199.842   4
 -16 -10   7 6838.31 166.818   4
  16  10  -7 6797.35 186.714   2
  16  10  -6 569.569 58.0540   2
 -16 -10   6 572.692 55.0035   1
 -16  10   6 655.024 65.0066   4
 -16 -10   6 485.226 47.6526   4
 -16 -10   5 205.709 37.9075   1
 -16  10   5 222.621 45.7749   4
 -16 -10   5 170.956 34.0455   4
 -16 -10   4 1876.50 90.0499   1
 -16  10   4 2237.82 112.265   4
 -16 -10   4 1894.96 92.9910   4
 -16 -10   3 1826.21 88.1466   1
 -16  10   3 1812.91 101.953   4
 -16 -10   3 1550.29 88.7445   4
 -16 -10   3 1827.06 103.960   3
 -16 -10   2 1666.72 83.8445   1
 -16  10   2 1628.17 99.9005   4
 -16 -10   2 1616.69 92.1118   4
 -16 -10   2 1673.79 99.7506   3
 -16 -10   1 1166.68 71.2228   1
 -16  10   1 1181.02 85.2969   4
 -16 -10   1 1098.53 78.5694   4
 -16 -10   1 1114.67 85.2306   3
 -16 -10   0 21.4701 25.5781   1
 -16  10   0 21.1167 34.8454   4
 -16 -10   0 34.9370 37.8926   3
 -16 -10   0-1.76778 31.4556   4
 -16  10  -1 1677.60 103.167   4
 -16 -10  -1 1937.50 110.458   3
 -16 -10  -1 1835.99 107.377   4
 -16  10  -2 4565.46 171.901   4
 -16 -10  -2 4605.22 171.816   3
 -16 -10  -2 4674.28 173.066   4
 -16 -10  -3 24.1310 37.6239   4
 -16  10  -3 54.6852 40.0657   4
 -16 -10  -3-43.7946 37.2015   3
 -16  10  -4 4006.65 166.939   4
 -16 -10  -4 3730.37 159.659   3
  16 -12 -20 1077.15 90.0739   1
  16 -12 -19 1860.65 106.518   1
  16 -12 -18 771.526 68.5611   1
  16 -12 -17 683.013 65.6725   1
  16  12 -16 16.3753 37.7012   2
  16 -12 -16-4.50686 28.5639   1
  16  12 -15 7926.29 230.751   2
 -16  12  15 7826.39 228.370   4
  16  12 -14 189.456 47.9706   2
 -16  12  14 112.095 43.5360   4
  16  12 -13 1725.99 102.899   2
 -16  12  13 1762.45 104.822   4
  16  12 -12 413.125 56.9298   2
 -16  12  12 441.745 60.6266   4
  16  12 -11-9.73067 33.2158   2
 -16  12  11 7.98130 33.9445   4
  16  12 -10 214.421 42.8489   2
 -16  12  10 264.054 47.9629   4
  16  12  -9 3128.80 128.042   2
 -16  12   9 3112.81 136.734   4
  16  12  -8 529.313 59.6096   2
 -16  12   8 564.348 62.7410   4
  16  12  -7 3877.82 139.853   2
 -16  12   7 3852.47 151.370   4
  16  12  -6 3351.30 128.856   2
 -16  12   6 3287.22 140.408   4
 -16 -12   6 3348.19 129.761   1
  16  12  -5 850.758 67.2879   2
 -16 -12   5 831.036 68.6374   1
 -16  12   5 847.878 74.3136   4
 -16 -12   4 1015.73 73.9523   1
 -16  12   4 1062.77 82.0854   4
  16  12  -4 975.604 72.6238   2
 -16 -12   3 1658.56 92.2089   1
 -16  12   3 1943.55 110.135   4
  16  12  -3 1583.96 87.7907   2
 -16 -12   3 1846.93 110.599   3
 -16 -12   2 1129.81 76.5718   1
 -16  12   2 1339.83 93.4927   4
 -16 -12   2 1200.73 89.2135   3
  16  12  -2 1321.56 80.1168   2
 -16 -12   1 3006.84 123.038   1
 -16  12   1 3230.71 142.324   4
 -16 -12   1 3178.66 144.513   3
 -16 -12   0 13.5641 30.8725   1
 -16  12   0 3.78187 36.3623   4
 -16 -12   0 38.3927 38.8042   3
 -16  12  -1 747.205 73.8715   4
 -16 -12  -1 767.761 77.4729   3
 -16  12  -2 1290.09 95.6368   4
 -16 -12  -2 1272.44 97.1419   3
  16  14 -14 162.310 44.7710   2
  16  14 -13 679.085 70.2541   2
 -16  14  13 804.268 80.1677   4
  16  14 -12 705.414 71.5415   2
 -16  14  12 944.984 84.5950   4
  16  14 -11 19.7965 34.5748   2
 -16  14  11 42.4407 36.7427   4
  16  14 -10 4699.74 164.825   2
 -16  14  10 4929.44 179.911   4
  16  14  -9-12.1076 35.4007   2
 -16  14   9 6.50156 39.8442   4
  16  14  -8 239.304 48.7734   2
 -16  14   8 334.518 54.8672   4
  16  14  -7 1017.61 75.6689   2
 -16  14   7 980.001 83.7847   4
 -16 -14   7 1076.71 83.5237   1
  16  14  -6 1242.69 83.7571   2
 -16  14   6 1177.14 91.0140   4
 -16 -14   6 1305.66 88.6259   1
  16  14  -5 673.474 63.3005   2
 -16 -14   5 746.718 71.3853   1
 -16  14   5 839.798 84.2775   4
  16  14  -4 4242.56 145.305   2
 -16 -14   4 4374.62 160.497   1
 -16  14   4 4454.62 171.425   4
 -16 -14   4 4254.95 174.141   3
  16  14  -3 338.720 48.4406   2
 -16 -14   3 295.308 52.4163   1
 -16  14   3 371.829 56.6522   4
 -16 -14   3 393.530 61.0633   3
 -16 -14   2 1799.85 102.818   1
 -16  14   2 1861.31 112.920   4
 -16 -14   2 1759.22 113.788   3
 -16  14   1 410.447 61.0489   4
 -16 -14   1 256.364 49.0796   1
 -16 -14   0-10.5975 38.8130   1
 -16 -14  -1 526.733 60.9237   1
  16  16 -12 236.155 51.4888   2
  16  16 -11 476.700 64.0666   2
  16  16 -10 632.032 67.7090   2
  16  16  -9 1268.07 89.2553   2
  16  16  -8 1597.05 96.3975   2
  16  16  -7 4143.35 153.970   2
 -16 -16   7 4729.05 177.026   1
  16  16  -6 157.313 43.5816   2
 -16 -16   6 164.126 45.9226   1
 -16 -16   5 1094.13 87.9814   1
 -16 -16   4 57.8451 44.1123   1
 -16 -16   3 1775.54 109.847   1
 -16 -16   2-25.4257 44.5172   1
 -16 -16   1 2312.44 125.149   1
  17  -1 -23 960.076 80.2388   2
  17   1 -23 872.666 79.2221   2
  17  -1 -22 3336.97 141.322   2
  17   1 -22 3499.62 148.905   2
 -17  -1  22 3448.04 149.030   5
 -17   1  22 3408.04 151.382   5
  17  -1 -21 442.054 58.9456   2
  17   1 -21 558.564 65.3470   2
 -17   1  21 508.098 64.1022   5
 -17  -1  21 524.377 64.0475   5
  17  -1 -20 662.551 64.9623   2
  17   1 -20 784.564 71.8017   2
 -17   1  20 672.825 65.5294   5
 -17  -1  20 743.493 69.3292   5
  17  -1 -19 1280.91 85.4381   2
  17   1 -19 1246.75 86.9050   2
 -17  -1  19 1499.87 89.8066   5
 -17   1  19 1284.41 85.7927   5
  17   1 -18-0.93515 32.9977   2
  17  -1 -18 12.8096 32.3464   2
 -17   1  18-4.02873 29.4002   5
 -17  -1  18-12.1011 28.8580   5
 -17   1  18 18.5459 23.5700   4
  17  -1 -17 3382.46 130.296   2
  17   1 -17 3424.32 134.321   2
 -17   1  17 3256.33 121.581   5
 -17   1  17 3669.04 115.953   4
 -17  -1  17 3427.01 123.237   5
  17   1 -16 6106.42 181.941   2
 -17   1  16 6368.58 158.955   4
 -17  -1  16 6604.39 153.622   4
 -17   1  16 5912.34 161.704   5
 -17  -1  16 6213.99 163.342   5
  17  -1 -16 5799.17 173.953   2
 -17   1  15 3078.61 107.367   4
 -17  -1  15 3144.53 101.895   4
 -17   1  15 3098.73 109.215   5
 -17  -1  15 3085.21 106.479   5
  17   1 -15 3014.13 122.848   2
  17  -1 -15 2949.60 120.396   2
 -17   1  14 13525.4 254.909   4
 -17  -1  14 13059.8 241.248   4
 -17   1  14 13795.5 248.723   5
 -17  -1  14 13538.4 242.722   5
  17   1 -14 13220.6 278.459   2
 -17   1  13 1537.50 76.6098   4
 -17   1  13 1532.30 70.0812   5
 -17  -1  13 1728.68 76.0170   4
 -17  -1  13 1601.35 68.7486   5
 -17   1  12 293.326 32.6858   5
 -17  -1  12 326.372 33.2387   5
 -17   1  12 333.531 40.5838   4
 -17  -1  12 294.618 35.8660   4
 -17  -1  11 4459.92 128.850   4
 -17   1  11 4471.86 133.217   4
 -17   1  11 4509.17 110.098   5
 -17  -1  11 4281.19 102.834   5
 -17  -1  10 2665.60 99.3620   4
 -17  -1  10 2791.34 73.7660   5
 -17   1  10 2712.07 103.750   4
 -17   1   9 83.1357 30.7261   4
 -17  -1   9 32.2837 26.5552   4
 -17  -1   8 1050.95 65.1899   4
 -17   1   8 1070.73 67.8942   4
 -17   1   7-0.69478 26.1422   4
 -17  -1   7 52.8625 27.9282   4
 -17  -1   6 7613.92 188.300   4
 -17   1   6 7591.06 189.963   4
 -17   1   5 1221.23 76.2566   4
 -17  -1   5 1340.64 78.2508   4
 -17   1   4 429.994 49.9593   4
 -17  -1   4 449.188 48.7156   4
 -17   1   3 3251.30 125.644   4
 -17  -1   3 3180.06 123.070   4
 -17  -1   3 3136.04 104.015   3
 -17   1   3 3080.64 92.7414   3
 -17   1   2 1433.23 62.5364   3
 -17   1   2 1516.85 88.5031   4
 -17  -1   2 1392.79 84.3902   4
 -17  -1   2 1472.30 70.6963   3
 -17  -1   1 6.90302 29.0614   4
 -17  -1   1 42.4298 24.6117   3
 -17   1   1 68.0709 22.2136   3
 -17   1   1 42.4467 32.3002   4
 -17  -1   0 2833.45 100.155   3
 -17   1   0 2656.20 121.468   4
 -17  -1   0 2958.24 126.316   4
 -17  -1  -1 1645.95 76.5966   3
 -17   1  -1 1748.52 101.218   4
 -17  -1  -1 1831.46 102.816   4
 -17   1  -2 156.182 47.0425   4
 -17  -1  -2 15.1220 32.8488   4
 -17  -1  -3 4543.97 169.074   4
 -17   1  -3 4330.10 166.118   4
 -17   1  -4 497.184 62.3589   4
 -17  -1  -4 535.422 63.1911   4
 -17   1  -5 981.903 87.4088   4
  17  -3 -22 80.2619 35.1571   2
  17   3 -22 9.95335 34.2855   2
 -17   3  22 54.5199 43.6144   5
 -17  -3  22 45.3274 35.7423   5
  17  -3 -21 884.089 72.8370   2
  17   3 -21 947.395 80.7113   2
 -17   3  21 935.933 82.3120   5
 -17  -3  21 894.241 76.9144   5
  17  -3 -20 243.814 44.4606   2
  17   3 -20 350.928 56.9414   2
 -17   3  20 297.152 51.1174   5
 -17  -3  20 331.998 50.3439   5
  17  -3 -19 2321.90 108.962   2
  17   3 -19 2388.10 120.740   2
 -17  -3  19 2431.30 111.122   5
 -17   3  19 2340.53 101.079   4
 -17   3  19 2472.55 117.327   5
  17   3 -18-11.6792 39.3767   2
  17  -3 -18 43.4922 34.8176   2
 -17   3  18 18.7442 28.6064   4
 -17   3  18-47.9495 35.9444   5
 -17  -3  18-29.2893 30.4629   5
  17   3 -17 6053.28 184.093   2
 -17  -3  17 5738.05 161.724   5
 -17   3  17 6032.26 165.299   4
 -17   3  17 5745.77 168.038   5
  17  -3 -17 5800.12 172.547   2
  17   3 -16 5871.77 179.262   2
 -17  -3  16 5713.87 154.859   5
 -17   3  16 5915.58 163.549   5
 -17   3  16 5800.43 161.040   4
  17  -3 -16 5562.23 166.676   2
  17   3 -15 187.090 40.4268   2
 -17   3  15 224.645 39.3253   5
 -17  -3  15 198.395 34.1927   5
 -17   3  15 207.795 36.1472   4
 -17  -3  15 240.189 31.4314   4
 -17  -3  14 1102.17 60.6043   5
 -17  -3  14 1117.08 58.0216   4
 -17   3  14 1236.13 69.0085   5
 -17   3  14 1151.83 69.3461   4
  17   3 -14 1030.27 75.8739   2
  17   3 -13 631.560 61.5071   2
 -17  -3  13 547.071 43.2123   5
 -17   3  13 529.955 45.8392   5
 -17   3  13 491.951 48.8359   4
 -17  -3  13 669.176 46.3547   4
 -17  -3  12 23.5110 17.8140   5
 -17   3  12 53.9640 27.7005   4
 -17  -3  12 7.20414 23.0783   4
 -17   3  11 3330.93 118.395   4
 -17  -3  11 3096.22 102.625   4
 -17  -3  11 3237.87 85.7814   5
 -17  -3  10 1137.96 64.0088   4
 -17   3  10 1015.02 67.2847   4
 -17  -3  10 1102.20 44.2884   5
 -17   3   9 1795.76 87.9034   4
 -17  -3   9 1737.50 79.8134   4
 -17   3   8 417.307 47.9834   4
 -17  -3   8 495.525 47.5793   4
 -17   3   7 319.960 42.8739   4
 -17  -3   7 330.302 41.0753   4
 -17  -3   6 6538.27 124.280   1
 -17   3   6 6520.01 178.225   4
 -17  -3   6 6514.79 169.770   4
 -17   3   5 3461.40 128.017   4
 -17  -3   5 3407.97 121.691   4
 -17   3   4 1301.59 80.9802   4
 -17   3   4 1464.28 56.3830   3
 -17  -3   4 1416.27 81.0451   4
 -17   3   3 4648.68 154.319   4
 -17  -3   3 4736.63 139.346   3
 -17  -3   3 4814.22 152.996   4
 -17  -3   2 47.5642 30.9654   4
 -17  -3   2-13.4391 25.7074   3
 -17   3   2 20.6796 32.2673   4
 -17   3   1 4015.16 147.369   4
 -17  -3   1 3857.07 126.754   3
 -17  -3   1 3970.41 145.393   4
 -17  -3   0 4787.52 142.930   3
 -17   3   0 4667.90 163.605   4
 -17  -3   0 4962.06 166.107   4
 -17  -3  -1 1650.17 98.5168   4
 -17  -3  -1 1448.57 79.0153   3
 -17   3  -1 1634.63 98.6047   4
 -17   3  -2 3.93438 31.6956   4
 -17  -3  -2 30.8612 29.9788   3
 -17  -3  -2 57.2447 37.2312   4
 -17  -3  -3 2741.69 132.711   4
 -17  -3  -3 2793.84 112.396   3
 -17   3  -3 2678.80 130.668   4
 -17   3  -4 295.079 52.1159   4
 -17  -3  -4 437.564 63.6428   4
 -17  -5  22 1461.94 98.7871   5
  17   5 -21 2.21811 39.6757   2
 -17   5  21-0.62376 41.0035   5
 -17  -5  21-11.7036 36.2787   5
  17  -5 -20 541.248 57.2148   2
  17   5 -20 541.821 64.4374   2
 -17   5  20 613.117 68.6764   5
 -17  -5  20 558.178 63.8667   5
 -17   5  20 498.540 56.4321   4
  17  -5 -19 27.8307 31.3840   2
  17   5 -19 53.2454 39.0947   2
 -17   5  19 47.3504 42.4567   5
 -17   5  19 48.0166 34.4770   4
  17   5 -18 169.182 43.4255   2
  17  -5 -18 280.215 47.2831   2
 -17   5  18 260.727 41.9825   4
 -17   5  18 165.940 46.5309   5
  17   5 -17 63.9772 33.8079   2
  17  -5 -17 20.3303 30.4680   2
 -17   5  17 7.02999 27.4849   4
 -17   5  17 71.0263 35.4841   5
  17  -5 -16 764.327 64.1058   2
  17   5 -16 958.581 77.1136   2
 -17   5  16 711.214 61.4149   4
 -17   5  16 739.424 64.0959   5
  17   5 -15 81.8561 39.7268   2
 -17   5  15 89.2779 34.8741   5
 -17   5  15 86.9323 30.8163   4
  17   5 -14 13543.0 289.819   2
 -17   5  14 13618.7 278.541   4
  17   5 -13-29.5894 37.5386   2
 -17   5  13-8.41836 26.7435   4
 -17  -5  13 48.3186 22.3227   4
 -17  -5  12 2359.55 78.9438   5
 -17   5  12 2255.34 100.451   4
  17   5 -12 2539.21 113.579   2
 -17  -5  12 2471.24 86.0555   4
 -17   5  11 4817.31 149.917   4
 -17  -5  11 4675.66 108.446   5
  17   5 -11 4800.28 155.723   2
 -17  -5  11 4972.15 128.258   4
 -17   5  10 85.6821 33.7283   4
 -17  -5  10 79.9950 27.0771   4
 -17   5   9 570.874 55.5631   4
 -17  -5   9 601.045 48.3585   4
 -17   5   8 9590.81 225.476   4
 -17  -5   8 9412.83 202.809   4
 -17   5   7 260.967 45.5466   4
 -17  -5   7 224.517 35.5210   4
 -17  -5   6 8944.04 170.746   1
 -17   5   6 8682.45 216.741   4
 -17  -5   6 8720.35 201.304   4
 -17  -5   5 4170.54 106.911   1
 -17   5   5 4414.67 149.684   4
 -17  -5   5 4559.38 141.369   4
 -17   5   4 969.080 72.8261   4
 -17  -5   4 800.201 61.6415   4
 -17   5   3 1170.58 80.7133   4
 -17  -5   3 1176.45 77.2302   4
 -17  -5   3 1198.60 74.7860   3
 -17   5   2 3562.54 139.280   4
 -17  -5   2 3579.05 136.592   4
 -17  -5   2 3568.45 128.098   3
 -17   5   1 1311.02 87.1974   4
 -17  -5   1 1364.18 80.6669   3
 -17  -5   1 1250.11 82.0781   4
 -17   5   0 4908.06 171.326   4
 -17  -5   0 4904.78 168.500   4
 -17  -5   0 4906.70 153.958   3
 -17   5  -1 1133.68 86.7115   4
 -17  -5  -1 1393.47 92.6990   4
 -17  -5  -1 1328.52 81.9841   3
 -17  -5  -2 397.632 57.3360   4
 -17  -5  -2 354.551 49.8398   3
 -17   5  -2 321.335 53.3371   4
 -17  -5  -3 2486.38 128.503   4
 -17  -5  -3 2294.58 111.277   3
 -17   5  -3 2430.74 132.686   4
 -17  -5  -4 1792.35 114.219   4
 -17   5  -4 1521.11 103.813   4
 -17  -5  -4 1775.78 97.1118   3
 -17  -5  -5 209.468 44.3676   3
 -17   7  21 541.549 70.5296   5
 -17   7  21 408.084 56.0915   4
 -17   7  20 743.037 76.6523   5
 -17   7  20 763.796 71.7859   4
  17   7 -19 4160.78 164.116   2
 -17   7  19 4045.85 151.648   4
 -17   7  19 4213.25 160.357   5
  17   7 -18 280.496 53.8932   2
  17  -7 -18 220.772 39.4906   2
 -17   7  18 240.038 50.2353   5
 -17   7  18 244.073 48.1016   4
  17   7 -17 2769.42 130.298   2
 -17   7  17 2534.00 117.430   4
  17  -7 -17 2619.42 109.828   2
  17   7 -16 79.5915 37.4243   2
 -17   7  16 50.9688 33.8049   4
  17   7 -15 34.2334 37.3082   2
 -17   7  15 9.20265 30.9543   4
  17   7 -14 241.421 48.7697   2
 -17   7  14 167.394 42.0526   4
  17   7 -13 4464.45 155.726   2
 -17   7  13 4437.05 151.378   4
  17   7 -12 209.538 46.2759   2
 -17   7  12 223.477 42.9873   4
 -17   7  11 5123.08 163.128   4
 -17  -7  11 5448.90 133.112   4
  17   7 -11 5413.70 169.411   2
  17   7 -10 831.088 68.4252   2
 -17   7  10 835.452 67.1295   4
 -17  -7  10 892.098 55.1421   4
 -17   7   9 2931.87 121.022   4
 -17  -7   9 3092.43 104.639   4
 -17   7   8 3261.62 128.515   4
 -17  -7   8 3100.56 107.614   4
 -17   7   7 897.602 70.0717   4
 -17  -7   7 811.611 58.4442   4
 -17  -7   6 500.979 44.1686   1
 -17   7   6 584.851 59.8952   4
 -17  -7   6 442.539 46.3446   4
 -17  -7   5 10225.0 200.573   1
 -17   7   5 10064.4 243.441   4
 -17  -7   5 9583.41 221.815   4
 -17  -7   4 217.910 31.9655   1
 -17   7   4 137.337 39.5062   4
 -17  -7   4 204.740 40.5894   4
 -17   7   3 14694.5 311.274   4
 -17  -7   3 14590.4 297.220   4
 -17  -7   3 14264.3 296.963   3
 -17   7   2 5587.86 180.814   4
 -17  -7   2 5708.78 174.900   4
 -17  -7   2 5596.03 172.667   3
 -17   7   1 1004.00 80.5279   4
 -17  -7   1 993.045 73.8886   3
 -17  -7   1 985.478 76.1297   4
 -17  -7   0 100.029 38.7918   3
 -17  -7   0 146.526 40.3756   4
 -17   7   0 156.148 44.4436   4
 -17   7  -1 2655.86 128.341   4
 -17  -7  -1 2575.68 119.632   3
 -17  -7  -1 2502.54 125.193   4
 -17  -7  -2 9.81522 37.1817   4
 -17  -7  -2 17.1814 32.5296   3
 -17   7  -2-6.51943 33.7257   4
 -17  -7  -3 5068.59 185.054   4
 -17  -7  -3 4744.82 168.413   3
 -17   7  -3 5106.37 185.635   4
 -17  -7  -4-14.5851 35.7717   3
 -17  -7  -5 2954.22 135.123   3
 -17   9  19-7.61780 35.9550   4
  17   9 -18-12.6289 36.7863   2
 -17   9  18 5.77489 35.5093   4
  17   9 -17 580.154 67.8026   2
 -17   9  17 688.321 71.3832   4
  17   9 -16 4919.31 175.716   2
 -17   9  16 4506.54 165.013   4
  17   9 -15 441.691 59.3118   2
 -17   9  15 342.807 50.9065   4
  17   9 -14 10375.8 257.792   2
 -17   9  14 10304.2 253.469   4
  17   9 -13 139.545 42.6168   2
 -17   9  13 109.041 39.3899   4
  17   9 -12 859.870 72.2001   2
 -17   9  12 950.197 74.8008   4
  17   9 -11 535.200 61.8947   2
 -17   9  11 552.658 60.0226   4
 -17   9  10 1620.94 95.0754   4
 -17  -9  10 1610.71 72.5788   4
  17   9 -10 1746.12 98.0222   2
  17   9  -9 881.241 71.4817   2
 -17   9   9 818.391 70.6727   4
 -17  -9   9 922.631 57.6285   4
 -17   9   8 6091.10 185.557   4
  17   9  -8 6015.93 177.456   2
 -17  -9   8 5807.23 153.537   4
 -17   9   7 2654.59 121.157   4
 -17  -9   7 2722.32 105.287   4
  17   9  -7 2660.13 116.499   2
 -17  -9   6 3538.44 120.079   1
 -17   9   6 3621.45 142.881   4
 -17  -9   6 3815.67 128.411   4
 -17  -9   5 170.093 34.7577   1
 -17   9   5 197.226 44.6210   4
 -17  -9   5 158.908 36.2736   4
 -17  -9   4 750.123 56.2570   1
 -17   9   4 727.481 67.3908   4
 -17  -9   4 770.508 63.6890   4
 -17  -9   3 1899.75 86.1181   1
 -17   9   3 2059.10 110.264   4
 -17  -9   3 1908.01 99.5583   4
 -17  -9   3 1770.36 101.786   3
 -17   9   2 849.464 75.3970   4
 -17  -9   2 900.035 72.4853   4
 -17  -9   2 979.933 77.9440   3
 -17   9   1 246.076 51.3867   4
 -17  -9   1 143.687 41.4709   3
 -17  -9   1 178.859 40.7371   4
 -17   9   0 3682.89 153.391   4
 -17  -9   0 3449.40 144.434   3
 -17  -9   0 3507.28 146.502   4
 -17  -9  -1 52.7682 39.2142   3
 -17  -9  -1 43.6267 36.1525   4
 -17   9  -1 203.280 48.9666   4
 -17  -9  -2 539.844 63.9068   4
 -17  -9  -2 628.464 65.3437   3
 -17   9  -2 555.301 66.6391   4
 -17  -9  -3 161.517 41.7458   3
 -17  -9  -4 2764.06 136.598   3
  17 -11 -20 281.855 54.3105   1
 -17  11  18 24.9764 38.1664   4
 -17  11  17 3403.84 148.747   4
  17  11 -16 660.107 73.2762   2
 -17  11  16 759.391 75.9984   4
  17  11 -15 196.514 49.5618   2
 -17  11  15 232.999 49.6268   4
  17  11 -14 51.6068 37.7010   2
 -17  11  14 52.7480 39.3796   4
  17  11 -13 3695.14 148.323   2
 -17  11  13 3535.64 147.793   4
  17  11 -12-19.8228 40.1982   2
 -17  11  12 95.4487 39.1962   4
  17  11 -11 6148.69 190.023   2
 -17  11  11 6330.30 197.714   4
  17  11 -10 507.512 60.8507   2
 -17  11  10 730.888 69.9774   4
  17  11  -9 1866.74 101.148   2
 -17  11   9 1921.68 107.323   4
  17  11  -8 317.256 49.7145   2
 -17  11   8 237.152 46.7139   4
 -17 -11   8 270.580 36.7905   4
 -17  11   7 2391.37 118.767   4
 -17 -11   7 2245.22 97.2000   4
  17  11  -7 2211.94 109.582   2
  17  11  -6 112.128 42.0578   2
 -17 -11   6 53.9494 29.1367   1
 -17  11   6 51.1056 36.1006   4
 -17 -11   6 17.1384 29.1644   4
 -17 -11   5 2401.77 106.921   1
 -17  11   5 2493.70 123.994   4
  17  11  -5 2274.14 108.045   2
 -17 -11   5 2449.27 108.108   4
  17  11  -4 109.085 40.4138   2
 -17 -11   4 197.889 41.6772   1
 -17  11   4 53.4822 35.8066   4
 -17 -11   4 74.9172 33.8082   4
 -17 -11   3 5914.52 169.279   1
 -17  11   3 6007.94 195.531   4
 -17 -11   3 5830.89 179.391   4
 -17 -11   3 5728.72 192.851   3
 -17 -11   2 154.307 37.5590   1
 -17  11   2 150.134 43.9841   4
 -17 -11   2 130.796 46.5012   3
 -17 -11   2 126.303 41.2434   4
 -17  11   1 313.165 54.5356   4
 -17 -11   1 277.976 53.4993   3
 -17 -11   1 309.249 53.3645   4
 -17  11   0 244.489 53.8243   4
 -17 -11   0 262.639 53.8821   3
 -17 -11   0 237.532 49.5622   4
 -17  11  -1 4184.69 168.237   4
 -17 -11  -1 3910.63 164.193   3
 -17 -11  -1 4093.80 164.872   4
 -17 -11  -2-23.9188 41.2940   3
  17  13 -14 3363.70 147.876   2
 -17  13  14 3336.56 151.726   4
  17  13 -13 296.050 52.4817   2
 -17  13  13 304.312 56.0234   4
  17  13 -12 1245.21 88.9461   2
 -17  13  12 1450.45 100.900   4
  17  13 -11 1041.36 82.7644   2
 -17  13  11 960.710 83.2381   4
  17  13 -10 330.012 53.3412   2
 -17  13  10 412.591 59.5397   4
  17  13  -9 1033.15 78.6892   2
 -17  13   9 1186.80 89.7301   4
  17  13  -8 4946.23 166.233   2
 -17  13   8 5044.51 181.552   4
  17  13  -7-4.38545 33.7791   2
 -17  13   7 8.54120 38.9101   4
 -17 -13   7 66.6304 40.7158   1
  17  13  -6 1945.76 102.620   2
 -17  13   6 2035.03 115.159   4
 -17 -13   6 2090.93 107.599   1
  17  13  -5 249.722 49.6003   2
 -17 -13   5 261.884 48.2708   1
 -17  13   5 417.866 60.1051   4
  17  13  -4 381.432 53.9554   2
 -17 -13   4 659.626 67.2621   1
 -17  13   4 564.344 68.4770   4
 -17 -13   4 670.169 76.1328   3
  17  13  -3 456.074 56.7428   2
 -17 -13   3 384.239 53.7524   1
 -17  13   3 482.267 64.2791   4
 -17 -13   3 519.729 71.3831   3
 -17 -13   2 1901.45 102.991   1
 -17  13   2 2006.93 118.503   4
 -17 -13   2 1809.32 116.140   3
  17  15 -12 633.911 70.8756   2
  17  15 -11 5097.63 179.986   2
  17  15 -10 1.24158 36.2530   2
  17  15  -9 205.983 48.2287   2
  17  15  -8 2658.09 125.451   2
 -17 -15   8 2843.53 136.385   1
  17  15  -7-14.7615 34.9735   2
 -17 -15   7 43.4796 38.9697   1
  17  15  -6 538.316 61.8244   2
 -17 -15   6 624.458 68.0558   1
 -17 -15   5 3761.51 155.644   1
 -17 -15   4 179.383 46.8445   1
 -17 -15   3 947.775 81.5465   1
 -17 -15   2 1553.37 102.603   1
  18   0 -23-3.60028 37.4508   2
  18   0 -22 24.4001 35.4012   2
 -18   0  22-9.02806 37.6632   5
  18   0 -21 17.6048 35.7611   2
 -18   0  21-56.0675 41.2895   5
  18   0 -20 1380.42 92.5875   2
 -18   0  20 1454.28 92.7431   5
  18   0 -19-14.8572 35.2120   2
 -18   0  19-31.7389 33.9036   5
  18   0 -18 6045.66 186.488   2
 -18   0  18 6457.16 179.123   5
  18   0 -17-13.4560 36.2739   2
 -18   0  17-26.5860 26.2371   4
 -18   0  17-0.82227 29.9372   5
 -18   0  16 7357.78 173.621   4
 -18   0  16 6797.98 171.700   5
  18   0 -16 6776.30 194.664   2
  18   0 -15-4.10387 37.0588   2
 -18   0  15-10.0248 24.6086   5
 -18   0  15 11.8926 25.4176   4
 -18   0  14 10960.6 224.190   4
 -18   0  14 10853.6 211.998   5
 -18   0  13-16.4406 24.6799   4
 -18   0  13-4.80279 22.1556   5
 -18   0  12 12594.9 214.326   5
 -18   0  12 12768.9 250.282   4
 -18   0  11 67.9442 28.5426   4
 -18   0  10 1560.22 80.2604   4
 -18   0   9-9.91648 25.3537   4
 -18   0   8 2287.85 98.8793   4
 -18   0   7-4.93215 25.9457   4
 -18   0   6 4800.27 152.176   4
 -18   0   5 11.3634 28.7554   4
 -18   0   4 13861.1 289.004   4
 -18   0   4 13890.3 248.016   3
 -18   0   3 19.9074 20.3109   3
 -18   0   3-39.8230 30.8490   4
 -18   0   2 998.150 58.6919   3
 -18   0   2 1012.74 76.3534   4
 -18   0   1-15.9401 35.4562   4
 -18   0   0 870.263 74.3359   4
 -18   0  -1-34.2366 37.7663   4
 -18   0  -2 7693.54 227.126   4
 -18   0  -3 9.97790 34.9557   4
  18  -2 -23 1616.96 103.692   2
  18  -2 -22 276.789 50.7132   2
  18   2 -22 291.826 54.3976   2
 -18   2  22 352.345 62.0494   5
 -18  -2  22 296.750 54.4510   5
  18  -2 -21 1359.89 92.0916   2
  18   2 -21 1436.85 97.2816   2
 -18  -2  21 1437.76 94.8325   5
 -18   2  21 1447.15 95.9552   5
  18  -2 -20 314.048 51.2041   2
  18   2 -20 363.524 54.6416   2
 -18   2  20 403.095 58.4976   5
 -18  -2  20 394.954 55.4100   5
  18   2 -19 227.045 47.6182   2
  18  -2 -19 156.076 41.0058   2
 -18   2  19 145.883 39.4761   5
 -18  -2  19 172.443 42.4496   5
  18   2 -18 178.143 45.9777   2
  18  -2 -18 169.719 43.9853   2
 -18   2  18 230.543 44.9704   5
 -18  -2  18 329.356 47.8516   5
 -18   2  18 210.604 38.1975   4
  18   2 -17 6288.45 190.784   2
 -18  -2  17 6266.69 169.336   5
 -18   2  17 6146.00 172.001   5
 -18   2  17 6197.62 166.104   4
  18  -2 -17 5907.50 180.485   2
  18  -2 -16 74.7429 35.8681   2
  18   2 -16 40.5152 34.5108   2
 -18   2  16 100.513 33.1510   5
 -18  -2  16 22.3718 30.1780   5
 -18   2  16 76.3560 29.3133   4
 -18   2  15 7012.73 178.263   4
 -18  -2  15 7341.56 166.026   4
 -18   2  15 7068.02 174.133   5
 -18  -2  15 7319.49 169.571   5
  18   2 -15 6829.66 197.440   2
  18   2 -14 63.1780 40.3941   2
 -18  -2  14 59.2998 22.6170   4
 -18   2  14 56.6695 27.6652   4
 -18   2  14 64.4113 29.2985   5
 -18  -2  14 20.1516 22.2634   5
 -18   2  13 7607.68 188.313   4
 -18  -2  13 7651.02 174.486   4
 -18   2  13 7651.08 167.425   5
 -18  -2  13 7670.40 158.795   5
 -18   2  12 226.433 39.3083   4
 -18  -2  12 276.572 37.5144   4
 -18   2  11 154.278 35.6210   4
 -18  -2  11 148.485 28.0804   4
 -18  -2  10 1299.08 71.6279   4
 -18   2  10 1297.98 76.6349   4
 -18  -2   9 6171.11 162.628   4
 -18   2   9 5579.73 163.414   4
 -18   2   8 550.861 54.0230   4
 -18  -2   8 494.889 49.5368   4
 -18   2   7 10720.4 240.103   4
 -18  -2   7 10413.9 230.541   4
 -18   2   6 29.4791 29.1924   4
 -18  -2   6 24.4107 29.9206   4
 -18   2   5 2046.84 100.851   4
 -18  -2   5 1955.51 96.8686   4
 -18  -2   4 277.761 43.7023   4
 -18   2   4 333.395 49.2316   4
 -18  -2   3 79.6212 35.6982   4
 -18  -2   3 33.5805 23.7734   3
 -18   2   3 62.5569 38.3038   4
 -18  -2   2 657.656 53.4618   3
 -18  -2   2 756.782 68.2540   4
 -18   2   2 691.481 66.1476   4
 -18  -2   1 4590.42 136.917   3
 -18   2   1 4540.57 162.670   4
 -18  -2   1 4433.76 159.417   4
 -18  -2   0 195.878 47.1929   4
 -18  -2   0 138.018 29.8554   3
 -18   2   0 100.207 40.1578   4
 -18   2  -1 1477.88 97.6712   4
 -18  -2  -1 1546.73 99.3683   4
 -18   2  -2 513.871 63.6199   4
 -18  -2  -2 591.058 66.9595   4
 -18   2  -3-29.7906 35.1075   4
 -18  -2  -3 19.6126 36.2309   4
 -18   4  22-17.0609 41.9505   5
 -18  -4  22 17.5432 36.0071   5
  18  -4 -21-8.58023 35.3262   2
  18   4 -21 80.7968 45.3842   2
 -18   4  21-0.84645 38.4387   5
 -18  -4  21 46.8145 37.7300   5
  18  -4 -20 470.069 60.3546   2
  18   4 -20 455.337 64.0040   2
 -18   4  20 408.463 51.6461   4
 -18   4  20 477.820 61.2740   5
 -18  -4  20 521.868 60.7555   5
  18   4 -19 29.0568 39.6147   2
  18  -4 -19 117.545 40.6149   2
 -18   4  19 102.934 36.1118   4
 -18   4  19 22.8441 34.4390   5
 -18  -4  19 53.5400 33.9818   5
  18   4 -18 4535.43 164.283   2
 -18  -4  18 4264.45 142.468   5
 -18   4  18 4484.05 147.944   4
 -18   4  18 4230.59 149.376   5
  18  -4 -18 4118.74 147.997   2
  18   4 -17 82.0741 41.3253   2
  18  -4 -17 175.112 44.8174   2
 -18   4  17 132.101 39.8013   5
 -18   4  17 130.790 36.4632   4
 -18  -4  17 175.241 36.6910   5
  18   4 -16 1426.98 92.9147   2
 -18  -4  16 1565.18 78.2628   5
 -18   4  16 1413.82 81.0226   5
 -18   4  16 1378.56 81.8735   4
  18  -4 -16 1514.78 90.9907   2
  18   4 -15 3638.45 141.095   2
 -18  -4  15 3339.30 110.438   5
 -18   4  15 3425.09 120.897   5
 -18   4  15 3273.50 124.047   4
  18   4 -14 361.141 52.3564   2
 -18  -4  14 339.228 37.8903   5
 -18   4  14 328.033 47.1470   4
 -18  -4  14 341.250 37.3080   4
 -18  -4  13 1388.61 67.4974   4
 -18   4  13 1212.94 75.2297   4
  18   4 -13 1402.56 88.7780   2
 -18   4  12 4032.52 138.227   4
 -18  -4  12 4183.53 121.533   4
 -18   4  11 2984.91 118.620   4
 -18  -4  11 3158.92 106.469   4
 -18   4  10 4273.07 144.316   4
 -18  -4  10 4155.12 126.903   4
 -18   4   9 619.787 58.8044   4
 -18  -4   9 601.943 51.8806   4
 -18   4   8 204.058 39.6215   4
 -18  -4   8 282.142 39.2088   4
 -18   4   7 1963.37 100.881   4
 -18  -4   7 2119.53 94.8703   4
 -18   4   6 5699.55 173.366   4
 -18  -4   6 5591.38 161.791   4
 -18   4   5 4450.83 153.451   4
 -18  -4   5 4137.20 139.913   4
 -18   4   4 9627.67 238.920   4
 -18  -4   4 9573.27 228.705   4
 -18   4   3 1215.01 82.8262   4
 -18  -4   3 1290.59 77.7208   3
 -18  -4   3 1304.25 84.0362   4
 -18   4   2 1001.21 79.7261   4
 -18  -4   2 979.799 67.4274   3
 -18  -4   2 1054.33 79.3392   4
 -18  -4   1 176.254 46.1300   4
 -18  -4   1 123.437 34.5377   3
 -18   4   1 121.245 41.8613   4
 -18  -4   0 1024.47 81.4004   4
 -18  -4   0 897.124 67.6988   3
 -18   4   0 897.221 77.6595   4
 -18  -4  -1 59.0442 39.5880   4
 -18  -4  -1 30.2513 27.9884   3
 -18   4  -1 77.6565 46.3020   4
 -18  -4  -2 7256.02 223.168   4
 -18  -4  -2 7128.78 194.473   3
 -18   4  -2 7351.53 224.212   4
 -18   4  -3 13.9577 38.7226   4
 -18  -4  -3 11.1664 38.3990   4
 -18  -6  22 90.1953 44.1482   5
 -18  -6  21 1322.17 92.5979   5
 -18   6  21 1435.21 92.9790   4
 -18   6  21 1475.12 101.260   5
 -18   6  20 302.941 50.9324   4
 -18   6  20 258.021 53.2346   5
  18   6 -19 26.4659 35.7500   2
  18  -6 -19-6.14954 31.5962   2
 -18   6  19 7.34721 32.0029   4
 -18   6  19 101.034 44.8100   5
  18   6 -18 362.000 55.9581   2
  18  -6 -18 297.262 48.7495   2
 -18   6  18 345.171 49.1969   4
 -18   6  18 496.951 60.7241   5
  18   6 -17 1255.35 103.373   2
 -18   6  17 1147.96 78.4805   4
  18  -6 -17 1170.34 76.8965   2
  18   6 -16 916.629 77.6514   2
 -18   6  16 763.464 65.5951   4
  18   6 -15 5664.09 181.793   2
 -18   6  15 5483.86 171.726   4
  18   6 -14 1400.80 92.0802   2
 -18   6  14 1235.80 79.9131   4
 -18   6  13 1828.85 95.7210   4
  18   6 -13 1919.33 102.820   2
  18   6 -12 28.5933 36.6319   2
 -18   6  12 18.9384 31.1812   4
 -18  -6  12 67.8186 24.0186   4
  18   6 -11 1.79425 35.0444   2
 -18   6  11 4.75111 28.5177   4
 -18  -6  11 39.7464 22.9865   4
 -18   6  10 2647.83 116.290   4
 -18  -6  10 2408.94 93.7151   4
 -18   6   9 10092.8 241.662   4
 -18  -6   9 10098.7 213.440   4
 -18   6   8 1722.96 95.9077   4
 -18  -6   8 1740.30 84.1989   4
 -18  -6   7 5931.90 140.973   1
 -18   6   7 5691.99 176.468   4
 -18  -6   7 5701.36 160.535   4
 -18   6   6 2158.44 108.322   4
 -18  -6   6 2147.75 98.8467   4
 -18   6   5 822.349 71.0903   4
 -18  -6   5 800.500 64.2865   4
 -18   6   4 1230.42 86.1094   4
 -18  -6   4 1093.41 78.5707   4
 -18   6   3 4859.27 169.950   4
 -18  -6   3 4646.52 158.220   4
 -18  -6   3 4560.91 154.021   3
 -18  -6   2 595.010 60.8472   3
 -18  -6   2 577.135 61.2231   4
 -18   6   2 462.150 57.3623   4
 -18   6   1 4842.73 173.794   4
 -18  -6   1 4829.56 159.725   3
 -18  -6   1 4659.04 166.560   4
 -18  -6   0 326.751 53.9158   4
 -18  -6   0 291.563 47.8595   3
 -18   6   0 506.133 65.1943   4
 -18   6  -1 1160.06 89.6497   4
 -18  -6  -1 1236.32 90.4670   4
 -18  -6  -1 1058.40 79.6254   3
 -18  -6  -2 1202.60 92.7544   4
 -18  -6  -2 1182.60 83.4610   3
 -18   6  -2 1176.32 93.3013   4
 -18  -6  -3 86.1601 39.9188   3
 -18  -6  -4 834.464 74.0889   3
 -18   8  21 524.171 66.0441   4
 -18   8  20 1542.09 99.1227   4
 -18   8  19 135.061 42.1480   4
  18   8 -18 1444.81 100.759   2
 -18   8  18 1397.18 94.9027   4
  18   8 -17 1859.81 110.467   2
 -18   8  17 1731.28 101.934   4
  18  -8 -17 1727.92 93.0728   2
  18   8 -16-26.5245 40.1437   2
 -18   8  16 66.3700 33.5747   4
  18   8 -15 2437.13 121.268   2
 -18   8  15 2058.76 108.440   4
  18   8 -14 173.534 45.6323   2
 -18   8  14 211.081 45.5772   4
  18   8 -13 1560.93 96.0931   2
 -18   8  13 1373.83 89.1811   4
  18   8 -12 2914.75 128.593   2
 -18   8  12 2871.00 125.640   4
 -18   8  11 1092.18 80.8682   4
  18   8 -11 1329.67 89.4142   2
 -18   8  10 3495.10 138.184   4
 -18  -8  10 3736.45 117.962   4
  18   8 -10 3687.11 141.628   2
  18   8  -9 205.317 46.9969   2
 -18   8   9 177.196 45.8575   4
 -18  -8   9 96.8343 30.3878   4
 -18   8   8 1403.91 91.0891   4
 -18  -8   8 1359.80 76.3052   4
 -18  -8   7 3810.47 121.561   1
 -18   8   7 3660.21 146.279   4
 -18  -8   7 3652.64 127.865   4
 -18  -8   6 1010.20 61.9435   1
 -18   8   6 1223.49 84.3522   4
 -18  -8   6 1058.19 71.0984   4
 -18   8   5 803.238 72.4959   4
 -18  -8   5 831.850 66.2680   4
 -18   8   4 2114.70 113.333   4
 -18  -8   4 2072.15 103.478   4
 -18   8   3 1986.33 110.895   4
 -18  -8   3 1873.32 102.533   4
 -18  -8   3 1931.45 108.059   3
 -18  -8   2 69.0974 40.2000   3
 -18  -8   2 53.3996 33.6780   4
 -18   8   2 114.699 94.5851   4
 -18   8   1 2261.94 118.872   4
 -18  -8   1 2105.86 111.051   3
 -18  -8   1 1976.08 111.310   4
 -18  -8   0 836.674 72.4469   3
 -18  -8   0 887.677 78.0456   4
 -18   8   0 879.862 79.7386   4
 -18   8  -1 1822.00 112.236   4
 -18  -8  -1 1894.84 107.796   3
 -18  -8  -1 1911.26 113.814   4
 -18  -8  -2 2724.42 131.445   3
 -18  -8  -3 341.034 56.5171   3
 -18  -8  -4 561.214 70.1589   3
 -18  10  19 23.8165 37.2772   4
 -18  10  18 1273.33 94.1885   4
 -18  10  17 472.696 64.5323   4
  18  10 -16 1232.91 92.8882   2
 -18  10  16 1165.61 88.3831   4
  18  10 -15 5481.73 187.694   2
 -18  10  15 5204.16 181.928   4
  18  10 -14 834.434 76.0699   2
 -18  10  14 777.170 72.0170   4
  18  10 -13 653.384 70.4581   2
 -18  10  13 600.869 66.2852   4
  18  10 -12 4117.44 156.452   2
 -18  10  12 4371.96 164.872   4
  18  10 -11 523.520 64.3395   2
 -18  10  11 402.013 58.4321   4
  18  10 -10 1730.63 99.6689   2
 -18  10  10 1749.74 103.695   4
 -18  10   9 4068.54 156.264   4
  18  10  -9 4261.61 154.999   2
  18  10  -8 169.532 46.8685   2
 -18  10   8 67.1131 39.0450   4
 -18 -10   8 60.5724 25.2483   4
 -18 -10   7 2710.69 111.010   1
 -18  10   7 2789.68 130.567   4
  18  10  -7 2681.46 121.530   2
 -18 -10   7 2726.69 109.370   4
  18  10  -6 698.650 68.4670   2
 -18 -10   6 667.054 59.1986   1
 -18  10   6 663.985 70.9095   4
 -18 -10   6 642.835 59.5528   4
 -18 -10   5 133.214 35.3491   1
 -18  10   5 36.3180 34.4155   4
 -18 -10   5 75.1611 31.7600   4
 -18  10   4 3459.99 150.064   4
 -18 -10   4 3301.37 133.453   4
 -18 -10   4 3483.86 148.406   3
 -18  10   3 355.595 54.8471   4
 -18 -10   3 415.775 60.5670   3
 -18 -10   3 396.845 56.5699   4
 -18  10   2 1384.82 96.7733   4
 -18 -10   2 1222.16 87.4486   4
 -18 -10   2 1167.53 90.5191   3
 -18  10   1 2581.03 130.868   4
 -18 -10   1 2452.51 128.535   3
 -18 -10   1 2346.88 122.239   4
 -18 -10   0 1071.36 86.9788   3
 -18 -10   0 1030.76 86.1652   4
 -18 -10  -1 744.866 74.4471   3
  18  12 -14 101.250 44.0945   2
 -18  12  14 97.4979 41.7487   4
  18  12 -13 1953.17 112.245   2
 -18  12  13 2058.72 118.308   4
  18  12 -12 1343.62 92.2052   2
 -18  12  12 1255.05 95.9449   4
  18  12 -11 36.4093 39.5273   2
 -18  12  11 41.7839 38.9232   4
  18  12 -10 411.849 57.7810   2
 -18  12  10 428.047 60.9739   4
  18  12  -9 3942.73 152.166   2
 -18  12   9 4282.81 167.369   4
  18  12  -8 132.525 42.9393   2
 -18  12   8 150.887 43.0456   4
 -18 -12   7 2704.50 120.169   1
 -18  12   7 2796.42 134.311   4
  18  12  -7 2529.96 122.330   2
  18  12  -6 889.250 73.0696   2
 -18 -12   6 941.981 73.6523   1
 -18  12   6 1011.59 83.2612   4
  18  12  -5 15.5775 38.1332   2
 -18 -12   5 70.5573 34.0194   1
 -18  12   5 5.35033 34.9233   4
 -18 -12   5 18.1570 30.1196   4
  18  12  -4 536.630 62.8572   2
 -18  12   4 496.089 65.0770   4
 -18 -12   4 472.875 65.1251   3
 -18 -12   4 422.632 54.6616   4
  18  12  -3 616.982 64.5873   2
 -18 -12   3 682.000 73.4763   3
 -18 -12   2 353.333 60.6505   3
  18  14 -12 4720.92 175.842   2
  18  14 -11 1135.45 92.0860   2
  18  14 -10 4355.41 165.002   2
  18  14  -9-4.62108 36.7668   2
  18  14  -8 53.9133 39.8095   2
 -18 -14   8 81.8312 46.3546   1
  18  14  -7 864.775 73.5209   2
 -18 -14   7 808.618 75.4063   1
  18  14  -6 2367.83 116.895   2
 -18 -14   6 2140.34 115.050   1
  18  14  -5 3.48314 37.3030   2
 -18 -14   5 11.6370 37.3546   1
  18  16  -9 2332.31 123.332   2
  18  16  -8 1043.58 87.2086   2
 -18 -16   7 2156.56 123.953   1
  19  -1 -22 993.002 82.5033   2
 -19   1  22 914.391 82.1895   5
 -19  -1  22 803.995 78.1955   5
  19  -1 -21 52.1966 37.1244   2
  19   1 -21 119.703 43.0527   2
 -19   1  21 98.5754 46.6389   5
 -19  -1  21-2.46457 39.5605   5
  19  -1 -20 410.704 58.1323   2
  19   1 -20 350.772 55.9138   2
 -19   1  20 436.658 58.1804   5
 -19  -1  20 440.433 56.7382   5
  19  -1 -19 1751.39 102.880   2
  19   1 -19 1734.74 103.274   2
 -19   1  19 1750.22 96.3623   5
 -19  -1  19 1898.05 98.3869   5
  19  -1 -18 610.918 66.5680   2
  19   1 -18 563.892 66.1667   2
 -19   1  18 588.001 58.7221   5
 -19  -1  18 456.104 54.3174   5
  19  -1 -17 793.078 72.6057   2
  19   1 -17 904.386 77.1587   2
 -19   1  17 876.126 63.5262   5
 -19   1  17 942.110 64.0237   4
 -19  -1  17 846.579 62.1433   5
 -19   1  16 6065.00 165.102   4
 -19   1  16 6023.18 160.396   5
 -19  -1  16 6062.67 157.362   5
 -19  -1  16 5985.29 155.442   4
  19   1 -16 5826.18 184.615   2
  19  -1 -16 5705.13 181.103   2
  19   1 -15 61.6927 40.5466   2
 -19  -1  15 12.5630 24.2238   4
 -19   1  15-34.1780 27.1882   5
 -19  -1  15 15.3740 27.3677   5
 -19   1  15 18.2700 26.3232   4
 -19  -1  14 4678.10 138.195   4
 -19   1  14 4677.25 143.751   4
 -19   1  14 4855.40 130.100   5
 -19  -1  13 4916.73 142.850   4
 -19   1  13 4810.32 146.647   4
 -19  -1  12 1112.19 68.7687   4
 -19   1  12 1084.73 70.1209   4
 -19   1  11 1530.24 84.3172   4
 -19  -1  11 1668.63 83.6543   4
 -19  -1  10 3207.33 117.969   4
 -19   1  10 3198.07 121.677   4
 -19   1   9 1577.14 87.4373   4
 -19  -1   9 1678.00 87.2501   4
 -19  -1   8 6534.32 179.464   4
 -19   1   8 6056.83 175.882   4
 -19   1   7 1980.26 99.5397   4
 -19  -1   7 2152.08 101.840   4
 -19   1   6 4426.92 151.077   4
 -19  -1   6 4202.99 146.379   4
 -19   1   5 4738.03 160.801   4
 -19  -1   5 4680.79 157.351   4
 -19  -1   4 254.963 37.9925   3
 -19   1   4 279.281 48.4914   4
 -19  -1   4 274.863 45.9672   4
 -19   1   3 1330.83 89.4838   4
 -19  -1   3 1551.52 93.8748   4
 -19  -1   3 1506.13 75.7080   3
 -19   1   2 2685.90 126.315   4
 -19  -1   2 2436.09 119.465   4
 -19   1   1 13.1310 33.3470   4
 -19  -1   1 53.9844 40.5056   4
 -19   1   0 3028.59 139.011   4
 -19  -1   0 2971.01 138.164   4
 -19   1  -1 1929.20 115.133   4
 -19  -1  -1 2142.11 119.635   4
  19  -3 -22 601.266 69.3510   2
 -19   3  22 550.042 69.2871   5
 -19  -3  22 567.624 67.2055   5
  19  -3 -21 24.6224 41.0299   2
 -19   3  21 103.221 43.5175   5
 -19  -3  21 100.259 41.3904   5
  19  -3 -20 566.843 64.6098   2
  19   3 -20 536.793 64.2341   2
 -19   3  20 505.788 62.2921   5
 -19  -3  20 564.189 61.5659   5
  19  -3 -19 2403.16 118.594   2
  19   3 -19 2388.91 123.997   2
 -19  -3  19 2314.26 108.978   5
 -19   3  19 2394.67 114.993   5
 -19   3  19 2415.04 107.235   4
  19   3 -18 67.4535 43.9474   2
  19  -3 -18 45.8267 39.9785   2
 -19   3  18 29.3213 36.5657   5
 -19  -3  18 30.8123 31.4888   5
 -19   3  18 27.2901 29.6031   4
  19   3 -17 2524.06 123.243   2
 -19  -3  17 2478.64 102.568   5
 -19   3  17 2261.49 102.733   4
 -19   3  17 2533.32 109.332   5
  19  -3 -17 2362.15 115.481   2
 -19   3  16 1620.57 86.4073   4
 -19   3  16 1736.33 88.1703   5
  19   3 -16 1682.53 100.825   2
 -19   3  15 998.854 71.5680   4
 -19   3  15 970.924 64.6854   5
  19   3 -15 1048.25 82.1466   2
 -19   3  14 1715.59 91.4972   4
 -19  -3  14 1773.39 80.4359   4
  19   3 -14 1765.77 101.699   2
 -19   3  13 1762.62 93.8491   4
 -19  -3  13 1821.54 82.9630   4
 -19   3  12 262.801 44.0114   4
 -19  -3  12 240.689 37.3074   4
 -19   3  11 13844.4 287.203   4
 -19  -3  11 14629.6 273.752   4
 -19   3  10 474.231 54.5660   4
 -19  -3  10 482.956 49.3963   4
 -19   3   9 3509.46 133.074   4
 -19  -3   9 3719.70 126.983   4
 -19   3   8 2783.45 119.330   4
 -19  -3   8 2797.57 111.994   4
 -19   3   7 1863.34 99.4754   4
 -19  -3   7 1845.27 94.2292   4
 -19  -3   6 178.262 40.1854   4
 -19   3   6 163.470 41.8073   4
 -19   3   5 7882.21 214.721   4
 -19  -3   5 7866.54 208.785   4
 -19  -3   4 298.745 43.5413   3
 -19  -3   4 231.855 43.9036   4
 -19   3   4 248.959 45.8913   4
 -19   3   3 1700.82 101.696   4
 -19  -3   3 1588.27 95.9222   4
 -19  -3   3 1712.72 88.0753   3
 -19  -3   2 189.598 48.1207   4
 -19  -3   2 124.332 29.7473   3
 -19   3   2 64.2012 35.2792   4
 -19  -3   1 264.639 49.9889   4
 -19  -3   1 392.906 47.0559   3
 -19   3   1 394.484 55.5527   4
 -19  -3   0 4215.56 165.764   4
 -19   3   0 4288.09 167.360   4
 -19  -3  -1 1416.08 98.4030   4
 -19   3  -1 1476.89 102.119   4
 -19  -5  22 2384.35 122.552   5
  19  -5 -21 194.152 43.6030   2
 -19   5  21 293.144 58.8228   5
 -19  -5  21 229.922 47.2592   5
  19  -5 -20 1725.45 98.7974   2
 -19  -5  20 1503.28 94.3084   5
 -19   5  20 1767.16 106.230   5
 -19   5  20 1757.31 97.9781   4
  19   5 -19 116.423 43.0840   2
  19  -5 -19 222.355 46.8242   2
 -19   5  19 156.118 47.1554   5
 -19   5  19 118.595 39.3296   4
 -19  -5  19 177.015 40.7921   5
  19   5 -18 1328.70 95.5875   2
 -19  -5  18 1311.16 78.8192   5
 -19   5  18 1291.34 87.6526   5
 -19   5  18 1329.53 86.6477   4
  19  -5 -18 1323.19 87.7542   2
  19   5 -17 80.4495 38.2321   2
  19  -5 -17 62.3408 39.5964   2
 -19   5  17-2.25401 30.6891   4
  19   5 -16 6768.41 206.127   2
 -19   5  16 6332.96 185.209   4
  19   5 -15 29.7740 37.4958   2
 -19   5  15 100.690 33.5515   4
 -19   5  14 1800.85 95.4421   4
  19   5 -14 1817.67 106.003   2
  19   5 -13 806.151 71.6005   2
 -19   5  13 618.374 58.4822   4
 -19  -5  13 718.999 51.4339   4
 -19   5  12 1624.76 92.5624   4
  19   5 -12 1688.05 99.4661   2
 -19  -5  12 1415.80 73.7377   4
 -19   5  11 113.098 39.3385   4
 -19  -5  11 82.2636 26.7634   4
 -19   5  10 1781.65 97.8903   4
 -19  -5  10 1890.68 87.8731   4
 -19   5   9 625.912 62.4331   4
 -19  -5   9 522.080 52.6254   4
 -19   5   8 14966.1 313.595   4
 -19  -5   8 15221.2 291.568   4
 -19   5   7 51.2836 34.9074   4
 -19  -5   7 128.575 35.4425   4
 -19   5   6 6811.56 200.157   4
 -19  -5   6 6668.60 186.463   4
 -19   5   5 2182.86 112.262   4
 -19  -5   5 2269.60 108.035   4
 -19  -5   4 834.190 70.4613   4
 -19   5   4 985.242 77.7667   4
 -19  -5   4 814.363 67.6212   3
 -19  -5   3 307.015 47.5194   3
 -19  -5   3 353.652 53.7203   4
 -19   5   3 349.782 56.4859   4
 -19   5   2 7794.23 226.618   4
 -19  -5   2 7358.62 200.524   3
 -19  -5   2 7692.20 218.304   4
 -19   5   1 1108.00 88.3647   4
 -19  -5   1 1134.26 86.1119   4
 -19  -5   1 1086.62 76.3241   3
 -19  -5   0 5004.04 182.073   4
 -19  -5   0 4483.37 156.018   3
 -19   5   0 4944.15 181.991   4
 -19  -5  -1 1172.48 95.9105   4
 -19  -5  -1 1364.51 86.1628   3
 -19   7  21 819.953 76.1374   4
 -19   7  20 15.6494 34.6520   4
  19  -7 -19 2778.58 121.559   2
 -19   7  19 2768.14 128.425   4
  19   7 -18 145.469 49.5849   2
  19  -7 -18 170.263 43.3889   2
 -19   7  18 140.061 41.3089   4
  19   7 -17 1175.55 90.5732   2
 -19   7  17 1220.02 87.1933   4
  19  -7 -17 1163.00 82.4371   2
  19   7 -16 431.421 61.1399   2
 -19   7  16 402.876 57.0611   4
  19   7 -15 111.879 45.1229   2
 -19   7  15 108.436 41.7370   4
  19   7 -14 61.2644 38.5268   2
 -19   7  14 38.8584 33.3361   4
 -19   7  13 1764.61 100.722   4
  19   7 -13 1995.78 110.690   2
  19   7 -12 46.4372 36.7510   2
 -19   7  12-14.2441 35.2916   4
 -19   7  11 6074.11 187.426   4
 -19  -7  11 6111.58 156.478   4
  19   7 -11 6106.10 189.775   2
 -19   7  10 2405.97 117.095   4
 -19  -7  10 2350.37 97.8954   4
 -19   7   9 1180.30 84.1513   4
 -19  -7   9 1134.18 69.4382   4
 -19   7   8-8.87429 32.5880   4
 -19  -7   8 20.1015 27.1143   4
 -19   7   7 864.111 74.7567   4
 -19  -7   7 819.572 64.3975   4
 -19   7   6 164.865 44.1232   4
 -19  -7   6 172.532 38.2161   4
 -19   7   5 3671.12 150.027   4
 -19  -7   5 3488.43 136.384   4
 -19   7   4 1772.50 105.383   4
 -19  -7   4 1778.55 101.282   4
 -19  -7   4 1635.19 98.0942   3
 -19   7   3 1468.24 98.7066   4
 -19  -7   3 1191.01 85.4230   4
 -19  -7   3 1371.10 90.5911   3
 -19   7   2 1940.28 111.745   4
 -19  -7   2 1712.93 102.026   3
 -19  -7   2 1816.05 107.730   4
 -19  -7   1 164.281 47.0207   3
 -19  -7   1 79.2071 40.7538   4
 -19   7   1 70.7067 35.2944   4
 -19  -7   0 826.187 78.6948   4
 -19  -7   0 696.648 70.8851   3
 -19  -7  -1 3130.32 137.675   3
 -19  -7  -2-34.0101 40.0258   3
 -19  -7  -3 1949.79 113.293   3
 -19   9  19-34.1038 39.5840   4
 -19   9  18 209.824 47.5868   4
 -19   9  17 206.550 46.9056   4
  19   9 -16 5801.73 197.606   2
 -19   9  16 5541.52 187.806   4
  19   9 -15-34.2030 36.5168   2
 -19   9  15-18.3633 33.2816   4
  19   9 -14 3638.22 150.186   2
 -19   9  14 3433.34 146.608   4
  19   9 -13 86.2353 41.6919   2
 -19   9  13 49.4502 36.5762   4
  19   9 -12 60.3193 42.9559   2
 -19   9  12 53.6735 40.5770   4
  19   9 -11 135.552 43.3968   2
 -19   9  11 182.417 41.9738   4
 -19   9  10 3838.10 152.725   4
  19   9 -10 3791.65 149.352   2
  19   9  -9 365.937 58.1959   2
 -19   9   9 501.104 63.2341   4
 -19  -9   9 468.242 47.3800   4
 -19   9   8 5495.07 186.195   4
 -19  -9   8 4969.14 152.362   4
  19   9  -8 5416.95 177.614   2
 -19   9   7 109.517 46.7407   4
 -19  -9   7 93.5616 31.3165   4
 -19   9   6 3082.54 139.029   4
 -19  -9   6 2932.24 122.072   4
 -19   9   5 316.145 55.1450   4
 -19  -9   5 291.697 45.3071   4
 -19   9   4 1177.61 89.9315   4
 -19  -9   4 924.356 76.7379   4
 -19  -9   4 1095.53 85.7502   3
 -19   9   3 477.918 68.3306   4
 -19  -9   3 413.708 58.7388   3
 -19  -9   3 400.234 56.3087   4
 -19   9   2 1766.75 112.012   4
 -19  -9   2 1848.92 110.169   3
 -19  -9   2 1717.77 105.429   4
 -19  -9   1-10.8535 34.6321   3
 -19  -9   1-11.7954 38.5059   4
 -19  -9   0 2576.49 130.411   3
 -19  -9  -1 40.8201 38.9225   3
 -19  11  15-37.8030 41.2589   4
  19  11 -14 58.4944 37.8017   2
 -19  11  14 121.735 47.0378   4
  19  11 -13 5025.60 180.769   2
 -19  11  13 4947.96 184.160   4
  19  11 -12 370.468 55.3475   2
 -19  11  12 231.338 50.9269   4
  19  11 -11 3782.12 152.364   2
 -19  11  11 3577.53 152.851   4
  19  11 -10 153.903 47.7350   2
 -19  11  10 29.6057 37.3798   4
  19  11  -9 303.279 53.6054   2
 -19  11   9 214.433 47.8604   4
  19  11  -8-9.97325 35.7854   2
 -19 -11   8 8.23216 30.5627   1
 -19  11   8 2.09851 35.2183   4
 -19  11   7 1304.45 96.9899   4
 -19 -11   7 1200.57 79.2595   4
  19  11  -7 1212.12 87.6978   2
  19  11  -6 136.643 46.0628   2
 -19  11   6 137.646 48.7737   4
 -19 -11   6 125.912 39.4754   4
 -19  11   5 1961.41 117.037   4
 -19 -11   5 1871.64 101.720   4
 -19 -11   5 1839.98 113.507   3
  19  11  -5 2065.08 109.932   2
 -19 -11   4 9.44690 38.6690   3
 -19 -11   4 59.2207 35.8413   4
 -19 -11   3 2921.48 135.044   4
 -19 -11   3 3104.21 147.170   3
 -19 -11   2 326.128 62.8123   3
 -19 -11   2 292.782 54.4040   4
  19  13 -11 3619.95 153.340   2
  19  13 -10 2341.28 121.968   2
  19  13  -9 154.029 44.1274   2
  19  13  -8 3815.02 152.840   2
 -19 -13   8 4039.93 154.615   1
  19  13  -7 231.218 48.9888   2
  19  13  -6 81.6003 40.7643   2
  19  13  -5 523.117 64.7888   2
  19  13  -4 89.1972 43.3525   2
 -19 -15   9 120.781 49.5287   1
  19  15  -8 1527.96 100.763   2
 -20   0  22 49.1703 39.0352   5
  20   0 -21-48.0659 39.8968   2
 -20   0  21 17.3922 37.6982   5
  20   0 -20 3908.40 157.910   2
 -20   0  20 4332.68 154.429   5
  20   0 -19 5.33332 35.7740   2
 -20   0  19 18.6085 34.7419   5
  20   0 -18 2491.35 124.577   2
  20   0 -17 6.93565 36.7555   2
 -20   0  16 2103.55 94.4926   4
  20   0 -16 2129.92 113.678   2
 -20   0  15-32.6836 28.5875   4
 -20   0  14 7959.86 197.325   4
 -20   0  13-8.34840 26.4633   4
 -20   0  12 11603.4 251.128   4
 -20   0  11 40.4357 28.4728   4
 -20   0  10 2064.77 99.9078   4
 -20   0   9-22.4941 31.7343   4
 -20   0   8 82.9616 33.4853   4
 -20   0   7-4.31314 32.1543   4
 -20   0   6 10729.5 256.678   4
 -20   0   5 31.2143 32.4268   4
 -20   0   4 2365.21 117.888   4
 -20   0   3-39.5183 38.0378   4
 -20   0   2 1330.28 94.1365   4
 -20   0   1 54.6498 40.2904   4
 -20   0   0 2272.60 124.353   4
  20  -2 -22-29.7403 39.7973   2
 -20   2  22-20.3527 44.6773   5
 -20  -2  22 47.0795 40.1960   5
  20  -2 -21 1732.63 107.158   2
 -20   2  21 1726.12 103.243   5
 -20  -2  21 1758.60 103.091   5
  20   2 -20-63.5735 48.4351   2
  20  -2 -20 4.93354 34.6483   2
 -20   2  20-46.2580 40.1476   5
  20   2 -19 343.445 54.9337   2
  20  -2 -19 337.824 54.5845   2
 -20   2  19 304.930 49.9718   5
  20  -2 -18 6.66135 37.9931   2
  20   2 -18-31.2256 42.0315   2
 -20   2  18 46.6441 30.7823   4
 -20   2  18 61.3958 34.0972   5
 -20   2  17 6242.09 177.686   4
  20  -2 -17 6052.93 192.080   2
  20   2 -17 6222.35 199.806   2
  20   2 -16 201.672 53.3400   2
 -20   2  16 147.016 38.1930   4
 -20   2  15 1673.86 91.8314   4
 -20  -2  15 1842.39 85.3909   4
  20   2 -15 1681.40 102.443   2
 -20  -2  14 913.146 62.4340   4
 -20   2  14 1002.41 71.9279   4
 -20  -2  13 3245.54 117.423   4
 -20   2  13 3218.89 125.355   4
 -20  -2  12 955.370 66.6647   4
 -20   2  12 905.122 69.4363   4
 -20   2  11 3388.89 130.550   4
 -20  -2  11 3198.14 120.733   4
 -20   2  10 817.961 66.7909   4
 -20  -2  10 787.055 61.6576   4
 -20   2   9 14633.9 304.498   4
 -20  -2   9 14563.0 294.086   4
 -20   2   8 348.112 52.9487   4
 -20  -2   8 187.042 39.6205   4
 -20   2   7 5632.72 177.082   4
 -20  -2   7 5580.85 173.074   4
 -20  -2   6 122.636 36.5386   4
 -20   2   6 108.613 38.8994   4
 -20  -2   5 170.901 39.2184   4
 -20   2   5 173.002 39.5986   4
 -20  -2   4 359.615 52.1073   4
 -20  -2   4 301.153 43.1946   3
 -20   2   4 347.998 54.6384   4
 -20   2   3 2441.22 124.096   4
 -20  -2   3 2504.33 122.579   4
 -20  -2   2 52.2750 36.8572   4
 -20   2   2 55.8830 38.0238   4
 -20   2   1 11183.1 284.696   4
 -20  -2   1 11025.9 282.319   4
 -20  -2   0-12.8922 35.9525   4
 -20   4  22 244.490 54.1797   5
  20  -4 -21 410.673 56.0624   2
 -20   4  21 446.188 63.7989   5
  20  -4 -20 2941.15 133.202   2
 -20   4  20 2983.46 133.702   5
  20   4 -19-45.3394 44.3649   2
  20  -4 -19-33.0731 37.6979   2
 -20   4  19 23.4661 38.6446   5
 -20   4  19-30.7639 34.4492   4
  20   4 -18 2126.55 117.114   2
 -20   4  18 1906.92 100.734   4
 -20   4  18 2245.77 107.467   5
  20  -4 -18 1941.62 108.200   2
  20   4 -17 1169.33 91.5337   2
  20  -4 -17 943.315 79.3200   2
 -20   4  17 1038.42 74.9153   4
  20   4 -16 61.3010 42.5419   2
 -20   4  16 173.369 40.5446   4
  20   4 -15 446.178 62.8477   2
 -20   4  15 342.214 48.3660   4
  20   4 -14 870.513 79.4407   2
 -20   4  14 758.098 66.1950   4
  20   4 -13 303.777 58.6577   2
 -20   4  13 296.246 48.1204   4
 -20  -4  13 257.337 38.3079   4
 -20   4  12 7000.10 197.475   4
 -20  -4  12 6815.06 175.209   4
 -20   4  11 541.826 59.7728   4
 -20  -4  11 676.348 56.9086   4
 -20   4  10 3826.54 143.903   4
 -20  -4  10 3515.54 126.793   4
 -20   4   9 6588.84 194.763   4
 -20  -4   9 6590.29 179.807   4
 -20   4   8 8.33848 31.7025   4
 -20  -4   8 30.7016 31.1918   4
 -20   4   7 1378.71 89.7135   4
 -20  -4   7 1238.99 81.2308   4
 -20   4   6 8031.82 224.242   4
 -20  -4   6 7922.87 211.765   4
 -20  -4   5 7.44154 31.1046   4
 -20   4   5 69.2517 36.6023   4
 -20   4   4 1184.21 88.0938   4
 -20  -4   4 1080.14 75.6716   3
 -20  -4   4 1196.63 87.0764   4
 -20   4   3 4640.46 172.887   4
 -20  -4   3 4384.18 149.702   3
 -20  -4   3 4273.87 161.862   4
 -20   4   2 1114.85 88.0706   4
 -20  -4   2 1155.55 88.7454   4
 -20  -4   2 1068.28 74.8599   3
 -20  -4   1 647.462 70.4767   4
 -20   4   1 753.318 78.6283   4
 -20   6  21 728.738 77.7466   5
  20  -6 -20 1364.93 92.1658   2
 -20   6  20 1404.34 94.8523   4
  20  -6 -19 265.671 54.4281   2
 -20   6  19 174.560 42.8556   4
  20  -6 -18 286.026 51.7298   2
 -20   6  18 358.712 52.8822   4
  20   6 -17 3165.16 145.032   2
 -20   6  17 3172.47 135.730   4
  20   6 -16 54.8024 43.0953   2
 -20   6  16-0.98328 33.8600   4
  20   6 -15 2346.03 122.239   2
 -20   6  15 2203.04 111.216   4
  20   6 -14 284.803 54.6744   2
 -20   6  14 204.519 43.8132   4
  20   6 -13 891.805 78.8266   2
 -20   6  13 935.778 75.9643   4
  20   6 -12 791.702 76.9988   2
 -20   6  12 669.813 67.0184   4
 -20   6  11 396.332 55.9391   4
 -20  -6  11 365.153 42.9509   4
 -20   6  10 4647.00 164.253   4
 -20  -6  10 4604.78 144.100   4
 -20   6   9 5225.93 176.330   4
 -20  -6   9 5420.49 160.591   4
 -20   6   8-52.6999 36.3695   4
 -20  -6   8-14.3546 32.5871   4
 -20   6   7 3367.22 143.103   4
 -20  -6   7 2964.59 123.168   4
 -20   6   6 1927.35 109.995   4
 -20  -6   6 2014.12 106.180   4
 -20   6   5 992.861 82.9715   4
 -20  -6   5 944.479 75.8981   4
 -20  -6   4-0.63564 33.9420   3
 -20  -6   4 47.6426 36.1578   4
 -20   6   4 69.1916 38.5129   4
 -20   6   3 3906.65 160.822   4
 -20  -6   3 3775.66 153.136   4
 -20  -6   3 3973.18 150.564   3
 -20  -6   2 857.346 74.5277   3
 -20  -6   2 957.786 83.1601   4
 -20   6   2 858.045 83.7191   4
 -20  -6   1 1013.41 86.1663   4
 -20  -6   1 946.072 76.6815   3
 -20  -6   0 607.593 65.8716   3
 -20   8  20 503.504 64.7665   4
 -20   8  19 129.720 45.6845   4
  20  -8 -18 820.987 72.1078   2
 -20   8  18 946.688 81.6913   4
 -20   8  17 1201.18 90.7523   4
 -20   8  16 921.509 78.5319   4
  20   8 -15 2383.03 124.854   2
 -20   8  15 2152.77 114.873   4
  20   8 -14 516.158 64.5424   2
 -20   8  14 517.976 61.3496   4
 -20   8  13 1603.42 100.532   4
  20   8 -13 1729.97 107.239   2
 -20   8  12 2042.96 113.088   4
  20   8 -12 2018.65 113.626   2
 -20   8  11 2164.70 117.189   4
  20   8 -11 2044.87 114.111   2
  20   8 -10 400.341 58.4069   2
 -20   8  10 538.571 63.0433   4
 -20  -8  10 403.526 46.6513   4
 -20   8   9 2137.31 117.808   4
 -20  -8   9 1714.27 91.5219   4
 -20   8   8 103.771 41.8706   4
 -20  -8   8 82.5403 33.5790   4
 -20   8   7 2933.22 138.657   4
 -20  -8   7 2746.66 121.059   4
 -20   8   6 1757.40 109.023   4
 -20  -8   6 1646.22 96.4087   4
 -20   8   5 459.104 61.4839   4
 -20  -8   5 525.469 63.4978   3
 -20  -8   5 270.317 49.5927   4
 -20   8   4 2538.24 130.288   4
 -20  -8   4 2351.44 120.180   4
 -20  -8   4 2171.62 117.810   3
 -20  -8   3 82.6170 45.3321   3
 -20  -8   3 34.3791 35.9580   4
 -20  -8   2-20.8473 38.1276   3
 -20  -8   2-12.0798 42.1599   4
 -20  -8   1 3618.98 152.478   3
 -20  -8   0 784.646 76.4529   3
 -20  -8  -1 535.624 66.5820   3
 -20  10  15 1920.92 114.902   4
 -20  10  14 2283.79 124.173   4
  20  10 -13 175.625 47.8902   2
 -20  10  13 150.725 42.1382   4
  20  10 -12 4028.38 161.129   2
 -20  10  12 3774.05 158.797   4
  20  10 -11 884.658 79.6040   2
 -20  10  11 854.489 80.0374   4
 -20  10  10 1238.37 93.8116   4
  20  10 -10 1143.69 90.9531   2
 -20  10   9 2709.50 134.989   4
  20  10  -9 2653.08 129.869   2
  20  10  -8 117.450 45.9463   2
 -20  10   8 34.9497 37.9042   4
  20  10  -7 717.408 74.0090   2
 -20  10   7 737.168 74.8331   4
 -20 -10   7 643.225 60.5810   4
 -20 -10   6 2905.50 127.488   4
 -20 -10   5 59.7947 44.1074   3
 -20 -10   5-6.44495 35.0273   4
 -20 -10   4 1462.95 96.4192   4
 -20 -10   4 1435.36 102.450   3
 -20 -10   3 1593.62 104.101   4
 -20 -10   3 1616.35 108.900   3
  20  12 -10-39.7517 43.0311   2
  20  12  -9 2505.96 128.509   2
  20  12  -8 76.0306 40.0692   2
  20  12  -7 1103.35 87.9919   2
  20  12  -6 119.638 47.7008   2
  20  12  -5 414.850 63.3376   2
 -20 -12   5 312.139 53.8710   4
  20  12  -4 504.244 63.1106   2
 -20 -12   4 517.071 62.4593   4
  21  -1 -20 297.147 57.2108   2
  21  -1 -19 1852.26 110.723   2
  21   1 -19 1912.67 113.896   2
  21  -1 -18 194.286 43.7690   2
  21   1 -18 244.392 51.5726   2
  21  -1 -17 151.380 47.7562   2
  21   1 -17 58.1573 38.2445   2
 -21   1  17 227.267 41.0494   4
 -21   1  16 1626.32 90.9507   4
  21   1 -16 1410.09 97.6945   2
 -21   1  15 294.139 46.2915   4
 -21  -1  15 361.745 46.7301   4
 -21   1  14 4445.27 149.387   4
 -21  -1  14 4343.04 142.154   4
 -21  -1  13 2801.97 115.471   4
 -21   1  13 2945.06 122.263   4
 -21  -1  12 1786.70 94.6786   4
 -21   1  12 1757.97 96.0695   4
 -21   1  11 587.968 61.5054   4
 -21  -1  11 619.631 59.9529   4
 -21  -1  10 8242.51 214.507   4
 -21   1  10 8055.70 214.661   4
 -21   1   9 191.814 40.5797   4
 -21  -1   9 138.381 36.2774   4
 -21   1   8 3815.32 146.857   4
 -21  -1   8 3534.67 139.547   4
 -21   1   7 5732.98 184.980   4
 -21  -1   7 5507.96 179.189   4
 -21   1   6 1016.70 80.3963   4
 -21  -1   6 994.626 78.6076   4
 -21  -1   5 141.204 43.8717   4
 -21   1   5 90.2892 38.9825   4
 -21   1   4 1610.13 102.583   4
 -21  -1   4 1565.80 100.476   4
 -21   1   3 1120.71 89.4012   4
 -21  -1   3 1176.96 88.7379   4
 -21   1   2 5484.40 193.600   4
 -21  -1   2 5151.36 188.133   4
  21  -3 -21 1397.51 98.1298   2
  21  -3 -20 67.3800 38.5444   2
  21  -3 -19 3589.68 152.186   2
  21  -3 -18 231.826 53.8394   2
  21   3 -18 219.864 53.6471   2
 -21   3  18 230.666 43.9468   4
  21  -3 -17 612.590 67.2606   2
  21   3 -17 713.552 75.1550   2
 -21   3  17 567.541 58.1316   4
  21   3 -16 935.391 83.3047   2
 -21   3  16 970.833 75.1405   4
  21   3 -15 173.685 50.9309   2
 -21   3  15 175.183 42.2564   4
  21   3 -14 997.153 85.6682   2
 -21  -3  14 966.475 67.0176   4
 -21   3  14 889.552 72.9514   4
 -21   3  13 3407.11 135.387   4
 -21  -3  13 3415.82 124.741   4
 -21   3  12 353.580 49.7504   4
 -21  -3  12 359.900 45.6177   4
 -21   3  11 3758.05 145.414   4
 -21  -3  11 3677.06 133.566   4
 -21   3  10 278.592 49.6539   4
 -21  -3  10 275.474 45.6700   4
 -21   3   9 119.668 41.1081   4
 -21  -3   9 87.5439 33.5026   4
 -21   3   8 1700.25 101.823   4
 -21  -3   8 1742.76 97.2832   4
 -21   3   7 2059.87 111.213   4
 -21  -3   7 2102.89 107.484   4
 -21  -3   6 265.199 50.4994   4
 -21   3   6 314.134 53.6082   4
 -21   3   5 2911.28 136.522   4
 -21  -3   5 2771.15 116.936   3
 -21  -3   5 3128.26 135.679   4
 -21  -3   4 230.620 47.5548   4
 -21   3   4 133.738 44.7787   4
 -21   3   3 1983.97 116.707   4
 -21  -3   3 2171.12 119.082   4
 -21  -3   2 2333.53 125.213   4
  21  -5 -20 77.3084 46.3939   2
  21  -5 -19 155.503 46.6268   2
 -21   5  19 318.092 53.6934   4
 -21   5  18 2415.10 117.801   4
  21  -5 -18 2310.45 118.834   2
 -21   5  17 125.415 41.1492   4
  21   5 -16 1773.50 111.298   2
 -21   5  16 1799.07 103.022   4
  21   5 -15-14.8725 40.8162   2
 -21   5  15-30.3688 36.0404   4
 -21   5  14 1681.80 98.9954   4
  21   5 -14 1688.85 106.969   2
  21   5 -13 785.002 77.8287   2
 -21   5  13 810.080 75.2827   4
 -21   5  12-12.5519 35.4685   4
 -21  -5  12 1.13862 26.3025   4
 -21   5  11 124.893 38.4204   4
 -21  -5  11 157.390 38.9860   4
 -21   5  10 8911.34 237.439   4
 -21  -5  10 8737.28 214.564   4
 -21   5   9 513.873 61.8813   4
 -21  -5   9 473.690 53.0375   4
 -21   5   8 8039.79 227.570   4
 -21  -5   8 7325.54 204.409   4
 -21  -5   7 123.964 38.6024   4
 -21   5   7 213.446 47.6117   4
 -21  -5   6 601.371 64.5005   4
 -21   5   6 711.751 71.8795   4
 -21   5   5 1531.96 101.737   4
 -21  -5   5 1294.38 89.2120   4
 -21  -5   5 1461.59 92.2246   3
 -21   5   4 1345.49 99.0171   4
 -21  -5   4 1498.90 99.1235   4
 -21  -5   4 1455.31 90.0995   3
 -21  -5   3 24.0567 35.4109   4
 -21  -5   3 0.21202 34.9222   3
 -21   7  20 216.600 49.4286   4
 -21   7  19 2138.17 117.660   4
  21  -7 -19 2288.21 119.243   2
  21  -7 -18 51.4868 45.1390   2
 -21   7  18 24.5350 36.1224   4
 -21   7  17 1280.15 89.3382   4
 -21   7  16 107.034 40.4674   4
 -21   7  15 390.402 56.7953   4
  21   7 -14 61.0877 42.0317   2
 -21   7  14 2.90480 34.6098   4
 -21   7  13 4893.88 176.737   4
  21   7 -13 5241.06 187.336   2
  21   7 -12 122.368 45.1981   2
 -21   7  12 204.925 50.8819   4
 -21   7  11 3197.47 143.668   4
  21   7 -11 3519.78 150.954   2
 -21   7  10 492.869 61.7608   4
 -21  -7  10 476.582 53.9940   4
 -21   7   9 433.240 60.8876   4
 -21  -7   9 368.722 48.7807   4
 -21   7   8 106.301 41.0924   4
 -21  -7   8 9.53247 31.8368   4
 -21   7   7 1724.50 107.721   4
 -21  -7   7 1622.33 96.2234   4
 -21   7   6 68.7961 44.1213   4
 -21  -7   6 5.62275 34.1431   4
 -21  -7   5 4950.92 176.399   4
 -21  -7   5 5174.06 180.018   3
 -21  -7   4 228.703 47.7094   3
 -21  -7   4 192.349 46.5326   4
 -21  -7   3 4315.39 164.665   3
 -21  -7   3 4581.59 175.156   4
 -21  -7   2 100.183 41.1578   3
 -21  -7   1 236.204 49.7601   3
 -21   9  14 1244.09 92.6574   4
 -21   9  13 1266.60 95.0136   4
  21   9 -12 751.747 80.2516   2
 -21   9  12 666.116 70.9664   4
  21   9 -11 3.63378 39.5317   2
 -21   9  11 39.4243 43.8697   4
 -21   9  10 4191.73 169.420   4
  21   9 -10 3861.93 159.297   2
  21   9  -9 221.155 55.1784   2
 -21  -9   8 3038.45 127.593   4
 -21  -9   7 302.759 51.6257   4
 -21  -9   6 1380.02 92.3668   4
 -21  -9   5 300.555 54.2373   3
 -21  -9   5 510.080 63.3966   4
 -21  -9   4 1850.14 111.123   4
 -21  -9   4 1858.68 114.344   3
 -21  -9   3 848.912 80.9041   3
  21  11  -8 479.657 65.2910   2
  21  11  -7 2378.67 125.793   2
  21  11  -6 24.1580 45.8216   2
 -21 -11   6 30.0895 34.9102   4
 -21 -11   5 2156.69 118.662   4
  22   0 -18 952.682 85.6755   2
  22   0 -17 25.9827 39.5217   2
 -22   0  16 3139.63 123.620   4
  22   0 -16 3022.32 141.675   2
 -22   0  15 8.79653 30.1695   4
 -22   0  14 8722.76 221.028   4
 -22   0  13 102.695 41.1096   4
 -22   0  12 3729.87 140.371   4
 -22   0  11 24.1348 32.6689   4
 -22   0  10 63.8891 36.5171   4
 -22   0   9-41.3549 35.1275   4
 -22   0   8 2514.82 124.406   4
 -22   0   7 39.2106 37.5291   4
 -22   0   6 1233.38 91.4801   4
 -22   0   5 8.59382 34.4403   4
 -22   0   4 3619.25 155.909   4
  22  -2 -18 288.069 57.4689   2
 -22   2  17 3622.22 139.050   4
  22  -2 -17 3690.34 155.663   2
  22   2 -16 138.225 53.3006   2
 -22   2  16 112.975 38.8785   4
 -22   2  15 3195.40 131.794   4
  22   2 -15 3294.52 148.332   2
 -22   2  14 53.9552 35.6337   4
 -22  -2  14 182.194 41.1151   4
 -22   2  13 108.163 39.1775   4
 -22  -2  13 119.358 36.8774   4
 -22   2  12 828.013 72.7172   4
 -22  -2  12 782.944 67.3121   4
 -22   2  11 3187.88 136.645   4
 -22  -2  11 3144.35 129.569   4
 -22   2  10 377.050 55.2268   4
 -22  -2  10 363.917 50.5130   4
 -22   2   9 6846.85 205.883   4
 -22  -2   9 6518.31 196.026   4
 -22  -2   8 24.4317 32.3130   4
 -22   2   8 75.7422 35.4881   4
 -22   2   7 1838.95 108.961   4
 -22  -2   7 1749.86 103.853   4
 -22   2   6 962.854 83.1417   4
 -22  -2   6 789.334 74.9759   4
 -22  -2   5 70.8056 40.8551   4
 -22   2   5 32.4128 34.3829   4
 -22  -2   4 289.793 57.9122   4
  22  -4 -19 240.208 52.1907   2
 -22   4  18 1162.14 85.6432   4
  22  -4 -18 1273.51 93.9310   2
 -22   4  17 176.578 48.1846   4
 -22   4  16 25.9859 34.4582   4
  22   4 -15 227.161 56.3624   2
 -22   4  15 51.8484 34.4995   4
 -22   4  14 1613.68 98.6574   4
  22   4 -14 1681.98 109.180   2
 -22   4  13 192.285 42.2176   4
 -22   4  12 3107.07 136.034   4
 -22  -4  12 2835.17 118.369   4
 -22   4  11 480.814 61.9950   4
 -22  -4  11 451.378 51.7558   4
 -22   4  10 706.369 70.9004   4
 -22  -4  10 680.064 63.6441   4
 -22  -4   9 336.649 51.7618   4
 -22   4   9 313.034 54.1658   4
 -22  -4   8 580.947 62.5957   4
 -22   4   8 722.490 72.4195   4
 -22  -4   7-19.1146 35.6985   4
 -22   4   7-71.9286 43.9604   4
 -22   4   6 3492.40 153.533   4
 -22  -4   6 3337.49 135.233   3
 -22  -4   6 3502.07 148.434   4
 -22  -4   5 2.68679 35.8698   4
 -22  -4   4 2923.52 140.587   4
  22  -6 -19 917.444 82.8298   2
 -22   6  19 1041.36 83.5965   4
  22  -6 -18 243.007 57.9871   2
 -22   6  18 165.881 46.4094   4
 -22   6  17 727.366 73.6525   4
 -22   6  16 7.82693 35.4053   4
 -22   6  15 529.687 64.7140   4
 -22   6  14 2456.98 127.643   4
 -22   6  13 86.3122 40.0064   4
  22   6 -12 370.248 66.7152   2
 -22   6  12 276.499 53.2092   4
 -22   6  11 2660.35 132.844   4
 -22  -6  11 2628.60 114.367   4
 -22   6  10 49.3555 35.0162   4
 -22  -6  10 55.8181 35.1185   4
 -22   6   9 3891.79 161.674   4
 -22  -6   9 3850.09 147.070   4
 -22   6   8 401.793 59.1156   4
 -22  -6   8 276.009 53.4150   4
 -22  -6   7 1658.28 101.641   4
 -22  -6   6 2057.84 114.771   4
 -22  -6   6 1995.48 113.409   3
 -22  -6   5 319.793 55.8991   3
 -22  -6   5 371.743 56.8451   4
 -22  -6   4 1925.31 112.872   3
 -22  -8   8 5.91006 34.2657   4
 -22  -8   7 604.657 66.6337   4
 -22  -8   6 3481.28 148.706   4
 -22  -8   6 3588.78 156.467   3
 -22  -8   5-55.5242 44.5043   3
 -22  -8   5-23.8899 39.7741   4
 -22  -8   4 628.551 72.1334   3
 -22 -10   6 1533.27 103.457   4
 -23   1  16 3732.61 143.813   4
 -23   1  15 1771.88 101.700   4
 -23   1  14 122.460 35.9135   4
 -23  -1  14 338.461 50.1932   4
 -23   1  13 709.339 66.9011   4
 -23  -1  13 723.430 68.4770   4
 -23   1  12 1047.32 81.8004   4
 -23  -1  12 1152.49 83.3854   4
 -23   1  11 325.341 53.6574   4
 -23  -1  11 291.286 51.1186   4
 -23   1  10 1550.65 99.2042   4
 -23  -1  10 1580.76 98.5074   4
 -23   1   9 68.2261 36.1612   4
 -23  -1   9 128.280 41.3798   4
 -23   1   8 1183.05 90.6446   4
 -23  -1   8 1065.06 86.5500   4
 -23  -1   7 372.459 58.4973   4
 -23   1   7 422.357 64.1939   4
 -23  -1   6 53.5474 37.2358   4
 -23   3  17 30.8971 37.2304   4
 -23   3  16 1076.12 82.8384   4
 -23   3  15 504.420 62.5406   4
 -23   3  14-52.8925 36.2661   4
 -23   3  13 2595.71 127.304   4
 -23  -3  13 2487.75 114.976   4
 -23   3  12 124.794 42.3084   4
 -23  -3  12 142.993 41.6863   4
 -23   3  11 1264.84 91.3907   4
 -23  -3  11 1226.75 83.9676   4
 -23   3  10 1782.05 109.100   4
 -23  -3  10 1580.03 96.9779   4
 -23  -3   9 43.3981 36.2642   4
 -23   3   9-45.5235 39.1178   4
 -23   3   8 1533.97 103.476   4
 -23  -3   8 1428.19 96.4397   4
 -23  -3   7 1454.37 97.3558   4
 -23  -3   6 125.926 45.2754   4
 -23   5  18 557.962 68.4032   4
 -23   5  17-46.1890 39.2777   4
 -23   5  16 1129.58 86.8518   4
 -23   5  15-46.7755 39.9357   4
 -23   5  14 30.5581 37.4776   4
 -23   5  13 587.320 69.4574   4
 -23   5  12 471.758 63.4311   4
 -23   5  11 51.1815 38.6023   4
 -23  -5  11-14.9822 31.4620   4
 -23   5  10 1446.39 100.149   4
 -23  -5  10 1592.69 97.0968   4
 -23  -5   9 165.171 46.7387   4
 -23  -5   8 1743.31 105.920   4
 -23  -5   7 28.6839 36.7750   4
 -23  -5   6-7.39537 36.7273   4
 -23  -7   9-27.4932 37.0584   4
 -23  -7   8 273.492 50.8270   4
 -23  -7   7 3487.80 150.433   4
 -23  -7   6 142.403 42.3957   3
 -24   0  15 9.55717 36.0475   4
 -24   0  14 3119.08 136.652   4
 -24   0  13 26.2644 34.8556   4
 -24   0  12 1265.25 91.5189   4
 -24   0  11-41.6240 42.3787   4
 -24   0  10 166.733 48.2882   4
 -24   0   9-39.6691 34.8180   4
 -24   2  16 23.1165 35.3925   4
 -24   2  15 330.113 52.0979   4
 -24   2  14 30.8562 36.6442   4
 -24   2  13 25.6265 35.6778   4
 -24  -2  13 80.5755 40.8039   4
 -24   2  12 140.548 44.8444   4
 -24  -2  12 164.995 44.3836   4
 -24   2  11 1313.04 93.3623   4
 -24  -2  11 1349.40 94.6077   4
 -24  -2  10 53.3082 36.4668   4
 -24  -2   9 5042.74 182.477   4
 -24   4  17 34.3381 37.5935   4
 -24   4  16 105.870 47.0770   4
 -24   4  15 52.0023 41.7529   4
 -24   4  14 1210.31 93.8710   4
 -24  -4  11 165.318 44.4101   4
 -24  -4  10 110.786 38.3056   4
 -24  -4   9 258.688 52.0101   4
 -24  -4   8 377.650 60.5606   4
 -24  -6   9 1074.90 85.5766   4
 -24  -6   8 379.966 62.5889   4
 -25   1  14 195.246 48.4670   4
 -25  -1  13 447.558 60.2859   4
 -25  -1  12 222.549 49.5728   4
 -25  -3  11 790.164 77.5163   4
   0   0   0    0.00    0.00   0
;
_shelx_hkl_checksum              49431
loop_
_space_group_symop_operation_xyz
'x, y, z'
'-x, y, -z+1/2'
'x+1/2, y+1/2, z'
'-x+1/2, y+1/2, -z+1/2'
'-x, -y, -z'
'x, -y, z-1/2'
'-x+1/2, -y+1/2, -z'
'x+1/2, -y+1/2, z-1/2'
loop_
_atom_site_label
_atom_site_type_symbol
_atom_site_fract_x
_atom_site_fract_y
_atom_site_fract_z
_atom_site_U_iso_or_equiv
_atom_site_adp_type
_atom_site_occupancy
_atom_site_site_symmetry_order
_atom_site_calc_flag
_atom_site_refinement_flags_posn
_atom_site_refinement_flags_adp
_atom_site_refinement_flags_occupancy
_atom_site_disorder_assembly
_atom_site_disorder_group
Li1 Li 0.0730(2) 0.0891(2) 0.2520(2) 0.0220(7) Uani 1 1 d . . . . .
Zn1 Zn 0.23212(2) 0.11065(2) 0.42821(2) 0.02116(11) Uani 1 1 d . . . . .
N1 N 0.33129(13) 0.12252(12) 0.54546(13) 0.0280(4) Uani 1 1 d . . . . .
C11 C 0.37703(14) 0.18632(15) 0.57465(15) 0.0286(5) Uani 1 1 d . . . . .
H11 H 0.363149 0.230492 0.539155 0.034 Uiso 1 1 calc R U . . .
C12 C 0.44406(15) 0.19080(15) 0.65475(15) 0.0299(5) Uani 1 1 d . . . . .
H12 H 0.475407 0.237100 0.673381 0.036 Uiso 1 1 calc R U . . .
C13 C 0.46457(15) 0.12677(16) 0.70711(16) 0.0320(5) Uani 1 1 d . . . . .
C14 C 0.41645(19) 0.06037(18) 0.67650(18) 0.0476(8) Uani 1 1 d . . . . .
H14 H 0.428645 0.015486 0.710772 0.057 Uiso 1 1 calc R U . . .
C15 C 0.35139(19) 0.06039(18) 0.59655(18) 0.0467(8) Uani 1 1 d . . . . .
H15 H 0.319163 0.014732 0.576336 0.056 Uiso 1 1 calc R U . . .
O11 O 0.14957(10) 0.09608(11) 0.46180(10) 0.0287(4) Uani 1 1 d . . . . .
O12 O 0.03864(9) 0.08098(10) 0.33713(9) 0.0248(3) Uani 1 1 d . . . . .
C101 C 0.07684(13) 0.07430(13) 0.41491(13) 0.0220(4) Uani 1 1 d . . . . .
C102 C 0.03538(15) 0.03694(18) 0.45784(14) 0.0330(6) Uani 1 1 d . . . A 1
C103 C 0.03414(18) 0.0751(2) 0.52509(16) 0.0451(8) Uani 1 1 d . . . A 1
C104 C -0.00117(18) 0.0371(2) 0.56823(16) 0.0448(8) Uani 1 1 d . . . A 1
C105 C -0.0105(3) 0.0882(3) 0.6336(3) 0.0289(10) Uani 0.5 1 d . . P A 1
H105 H -0.038476 0.066854 0.659969 0.035 Uiso 0.5 1 calc R U P A 1
C106 C 0.0200(4) 0.1629(3) 0.6549(4) 0.0423(14) Uani 0.5 1 d . . P A 1
H106 H 0.017727 0.189254 0.699116 0.051 Uiso 0.5 1 calc R U P A 1
C107 C 0.0541(4) 0.1999(3) 0.6119(4) 0.0423(13) Uani 0.5 1 d . . P A 1
H107 H 0.074763 0.251265 0.626743 0.051 Uiso 0.5 1 calc R U P A 1
C108 C 0.0577(4) 0.1618(3) 0.5483(3) 0.0338(11) Uani 0.5 1 d . . P A 1
H108 H 0.075669 0.190261 0.516148 0.041 Uiso 0.5 1 calc R U P A 1
O21 O 0.23897(11) 0.20233(11) 0.37250(12) 0.0341(4) Uani 1 1 d . . . . .
O22 O 0.11911(12) 0.18619(11) 0.25545(13) 0.0376(4) Uani 1 1 d . . . . .
O23 O 0.23809(13) 0.51077(12) 0.09871(13) 0.0425(5) Uani 1 1 d . . . . .
O24 O 0.34823(14) 0.51442(14) 0.22284(15) 0.0553(7) Uani 1 1 d . . . . .
C201 C 0.18587(16) 0.21935(14) 0.29677(16) 0.0302(5) Uani 1 1 d . . . . .
C202 C 0.20916(16) 0.28500(15) 0.25940(16) 0.0312(5) Uani 1 1 d . . . . .
C203 C 0.24990(17) 0.34618(17) 0.30983(16) 0.0362(6) Uani 1 1 d . . . . .
H203 H 0.262979 0.345568 0.366890 0.043 Uiso 1 1 calc R U . . .
C204 C 0.27286(18) 0.41011(17) 0.27886(17) 0.0372(6) Uani 1 1 d . . . . .
H204 H 0.300414 0.452507 0.315043 0.045 Uiso 1 1 calc R U . . .
C205 C 0.25631(16) 0.41239(16) 0.19776(16) 0.0325(5) Uani 1 1 d . . . . .
C206 C 0.28375(17) 0.48388(15) 0.17132(17) 0.0335(5) Uani 1 1 d . . . . .
C207 C 0.2171(2) 0.34818(18) 0.14362(18) 0.0417(7) Uani 1 1 d . U . . .
C208 C 0.1926(2) 0.28337(17) 0.17494(19) 0.0412(7) Uani 1 1 d . U . . .
C209 C 0.1587(3) 0.2175(2) 0.1227(2) 0.0655(11) Uani 1 1 d . U . . .
H209 H 0.142574 0.174038 0.142897 0.079 Uiso 1 1 calc R U . . .
C210 C 0.1488(4) 0.2154(3) 0.0438(3) 0.0868(15) Uani 1 1 d . U . . .
H210 H 0.126417 0.170480 0.010045 0.104 Uiso 1 1 calc R U . . .
C211 C 0.1714(4) 0.2793(3) 0.0124(3) 0.0871(15) Uani 1 1 d . U . . .
H211 H 0.163274 0.277847 -0.042925 0.105 Uiso 1 1 calc R U . . .
C212 C 0.2052(3) 0.3435(2) 0.0613(2) 0.0656(11) Uani 1 1 d . U . . .
H212 H 0.221033 0.385983 0.039508 0.079 Uiso 1 1 calc R U . . .
C1 C -0.0514(8) 0.3446(6) -0.2918(8) 0.083(4) Uani 0.25 1 d D U P B -1
H1 H -0.051880 0.322091 -0.339305 0.100 Uiso 0.25 1 calc R U P B -1
C2 C -0.1244(8) 0.3602(8) -0.2939(9) 0.093(5) Uani 0.25 1 d D U P B -1
H2 H -0.174624 0.348512 -0.342691 0.112 Uiso 0.25 1 calc R U P B -1
C3 C -0.1241(7) 0.3930(7) -0.2246(9) 0.094(5) Uani 0.25 1 d D U P B -1
H3 H -0.173962 0.403543 -0.225852 0.112 Uiso 0.25 1 calc R U P B -1
C4 C -0.0511(8) 0.4101(8) -0.1542(8) 0.087(4) Uani 0.25 1 d D U P B -1
C5 C 0.0221(6) 0.3929(7) -0.1521(8) 0.076(4) Uani 0.25 1 d D U P B -1
H5 H 0.072518 0.402846 -0.102798 0.091 Uiso 0.25 1 calc R U P B -1
C6 C 0.0211(7) 0.3614(7) -0.2220(9) 0.078(4) Uani 0.25 1 d D U P B -1
C7 C -0.0481(10) 0.4462(10) -0.0787(10) 0.099(5) Uani 0.25 1 d D U P B -1
H7A H 0.008729 0.453974 -0.035250 0.148 Uiso 0.25 1 calc R U P B -1
H7B H -0.076225 0.496416 -0.094099 0.148 Uiso 0.25 1 calc R U P B -1
H7C H -0.075016 0.411857 -0.057289 0.148 Uiso 0.25 1 calc R U P B -1
C8 C 0.1004(8) 0.3443(10) -0.2191(11) 0.086(5) Uani 0.25 1 d D U P B -1
H8A H 0.145688 0.360056 -0.164515 0.129 Uiso 0.25 1 calc R U P B -1
H8B H 0.104202 0.288529 -0.227180 0.129 Uiso 0.25 1 calc R U P B -1
H8C H 0.102988 0.373254 -0.263648 0.129 Uiso 0.25 1 calc R U P B -1
loop_
_atom_site_aniso_label
_atom_site_aniso_U_11
_atom_site_aniso_U_22
_atom_site_aniso_U_33
_atom_site_aniso_U_23
_atom_site_aniso_U_13
_atom_site_aniso_U_12
Li1 0.0179(17) 0.0268(18) 0.0173(17) 0.0003(15) 0.0057(14) 0.0020(14)
Zn1 0.01706(16) 0.02534(17) 0.01586(16) 0.00003(9) 0.00419(12) -0.00126(8)
N1 0.0202(9) 0.0322(10) 0.0196(9) 0.0021(8) 0.0009(8) -0.0046(8)
C11 0.0232(11) 0.0298(12) 0.0231(11) 0.0020(9) 0.0040(9) -0.0022(9)
C12 0.0234(11) 0.0296(12) 0.0249(12) -0.0016(9) 0.0030(9) -0.0041(9)
C13 0.0232(12) 0.0341(12) 0.0235(12) 0.0001(10) 0.0001(10) -0.0008(9)
C14 0.0440(16) 0.0381(15) 0.0287(13) 0.0109(12) -0.0064(12) -0.0106(12)
C15 0.0413(16) 0.0378(14) 0.0305(14) 0.0080(12) -0.0055(12) -0.0154(12)
O11 0.0207(8) 0.0448(10) 0.0166(7) -0.0012(7) 0.0063(7) -0.0085(7)
O12 0.0188(7) 0.0376(9) 0.0146(7) 0.0046(7) 0.0056(6) -0.0021(6)
C101 0.0197(10) 0.0290(11) 0.0155(9) 0.0012(8) 0.0073(8) -0.0018(8)
C102 0.0248(11) 0.0549(16) 0.0141(10) 0.0033(10) 0.0058(9) -0.0142(11)
C103 0.0378(15) 0.075(2) 0.0190(11) -0.0002(13) 0.0116(11) -0.0260(15)
C104 0.0358(14) 0.076(2) 0.0169(11) 0.0025(13) 0.0091(10) -0.0252(14)
C105 0.038(3) 0.029(2) 0.028(2) 0.003(2) 0.022(2) 0.003(2)
C106 0.071(4) 0.031(3) 0.040(3) -0.005(2) 0.039(3) 0.000(3)
C107 0.064(4) 0.026(2) 0.051(3) -0.005(2) 0.039(3) -0.008(2)
C108 0.044(3) 0.031(2) 0.034(3) 0.003(2) 0.025(2) -0.003(2)
O21 0.0322(9) 0.0364(9) 0.0308(9) 0.0089(8) 0.0133(8) -0.0041(7)
O22 0.0328(10) 0.0357(10) 0.0402(11) 0.0068(8) 0.0150(8) -0.0096(8)
O23 0.0461(12) 0.0409(11) 0.0321(10) 0.0097(8) 0.0129(9) -0.0108(9)
O24 0.0427(12) 0.0567(14) 0.0466(12) 0.0136(11) 0.0071(10) -0.0282(10)
C201 0.0323(13) 0.0277(11) 0.0328(12) 0.0046(10) 0.0178(11) -0.0028(9)
C202 0.0310(12) 0.0323(12) 0.0280(12) 0.0050(10) 0.0129(10) -0.0072(10)
C203 0.0366(14) 0.0418(14) 0.0227(11) 0.0040(11) 0.0089(10) -0.0133(11)
C204 0.0381(14) 0.0369(13) 0.0264(12) -0.0004(11) 0.0081(11) -0.0173(11)
C205 0.0312(13) 0.0328(12) 0.0275(12) 0.0034(10) 0.0101(10) -0.0118(10)
C206 0.0353(13) 0.0327(13) 0.0316(13) 0.0035(10) 0.0158(11) -0.0092(10)
C207 0.0544(17) 0.0402(14) 0.0290(13) -0.0028(11) 0.0194(12) -0.0201(13)
C208 0.0531(17) 0.0378(14) 0.0344(14) -0.0054(12) 0.0230(13) -0.0192(12)
C209 0.101(3) 0.0523(19) 0.055(2) -0.0176(16) 0.048(2) -0.041(2)
C210 0.143(4) 0.070(2) 0.061(2) -0.033(2) 0.060(3) -0.058(3)
C211 0.144(4) 0.081(3) 0.050(2) -0.025(2) 0.059(2) -0.051(3)
C212 0.103(3) 0.060(2) 0.0440(17) -0.0094(16) 0.0447(19) -0.038(2)
C1 0.082(9) 0.066(7) 0.110(9) 0.027(7) 0.054(8) 0.014(6)
C2 0.081(8) 0.067(8) 0.121(9) 0.031(8) 0.042(8) 0.003(7)
C3 0.081(8) 0.076(8) 0.128(10) 0.047(7) 0.054(8) 0.014(6)
C4 0.085(7) 0.085(7) 0.118(8) 0.044(7) 0.071(7) 0.021(6)
C5 0.074(7) 0.071(7) 0.108(8) 0.039(6) 0.064(7) 0.025(6)
C6 0.075(8) 0.073(6) 0.106(8) 0.038(6) 0.061(7) 0.021(6)
C7 0.096(9) 0.119(10) 0.134(11) 0.028(9) 0.097(8) 0.032(8)
C8 0.081(10) 0.078(9) 0.115(10) 0.052(8) 0.061(8) 0.020(8)
loop_
_atom_type_symbol
_atom_type_description
_atom_type_scat_dispersion_real
_atom_type_scat_dispersion_imag
_atom_type_scat_source
C C 0.0033 0.0016 'International Tables Vol C Tables 4.2.6.8 and 6.1.1.4'
H H 0.0000 0.0000 'International Tables Vol C Tables 4.2.6.8 and 6.1.1.4'
Li Li -0.0003 0.0001 'International Tables Vol C Tables 4.2.6.8 and 6.1.1.4'
N N 0.0061 0.0033 'International Tables Vol C Tables 4.2.6.8 and 6.1.1.4'
O O 0.0106 0.0060 'International Tables Vol C Tables 4.2.6.8 and 6.1.1.4'
Zn Zn 0.2839 1.4301 'International Tables Vol C Tables 4.2.6.8 and 6.1.1.4'
loop_
_geom_angle_atom_site_label_1
_geom_angle_atom_site_label_2
_geom_angle_atom_site_label_3
_geom_angle
_geom_angle_site_symmetry_1
_geom_angle_site_symmetry_3
_geom_angle_publ_flag
Li1 Li1 Zn1 117.63(19) 2 . ?
O12 Li1 Li1 45.08(12) . 2 ?
O12 Li1 Li1 46.37(12) 2 2 ?
O12 Li1 Zn1 73.57(12) . . ?
O12 Li1 Zn1 163.93(18) 2 . ?
O12 Li1 O12 90.86(17) 2 . ?
O22 Li1 Li1 116.68(13) . 2 ?
O22 Li1 Zn1 70.72(13) . . ?
O22 Li1 O12 111.5(2) . . ?
O22 Li1 O12 112.8(2) . 2 ?
O24 Li1 Li1 133.45(17) 4_545 2 ?
O24 Li1 Zn1 65.49(13) 4_545 . ?
O24 Li1 O12 107.1(2) 4_545 . ?
O24 Li1 O12 124.8(2) 4_545 2 ?
O24 Li1 O22 108.1(2) 4_545 . ?
N1 Zn1 Li1 176.69(9) . . ?
O11 Zn1 Li1 78.77(8) . . ?
O11 Zn1 N1 97.99(8) . . ?
O21 Zn1 Li1 80.34(9) . . ?
O21 Zn1 N1 102.12(8) . . ?
O21 Zn1 O11 123.24(8) . . ?
O21 Zn1 O23 119.08(9) . 4_545 ?
O23 Zn1 Li1 83.37(9) 4_545 . ?
O23 Zn1 N1 97.22(9) 4_545 . ?
O23 Zn1 O11 110.04(9) 4_545 . ?
C11 N1 Zn1 125.30(17) . . ?
C11 N1 C15 118.1(2) . . ?
C15 N1 Zn1 116.64(17) . . ?
N1 C11 H11 118.6 . . ?
N1 C11 C12 122.7(2) . . ?
C12 C11 H11 118.6 . . ?
C11 C12 H12 120.5 . . ?
C13 C12 C11 119.0(2) . . ?
C13 C12 H12 120.5 . . ?
C12 C13 C13 122.26(17) . 2_656 ?
C12 C13 C14 118.0(2) . . ?
C14 C13 C13 119.70(18) . 2_656 ?
C13 C14 H14 120.3 . . ?
C15 C14 C13 119.4(3) . . ?
C15 C14 H14 120.3 . . ?
N1 C15 C14 122.7(3) . . ?
N1 C15 H15 118.7 . . ?
C14 C15 H15 118.7 . . ?
C101 O11 Zn1 126.24(15) . . ?
Li1 O12 Li1 88.56(17) 2 . ?
C101 O12 Li1 133.11(18) . . ?
C101 O12 Li1 138.33(19) . 2 ?
O11 C101 C102 116.31(19) . . ?
O12 C101 O11 124.8(2) . . ?
O12 C101 C102 118.93(19) . . ?
C103 C102 C101 120.0(2) . . ?
C104 C102 C101 118.8(2) 5_556 . ?
C104 C102 C103 121.2(2) 5_556 . ?
C102 C103 C104 119.4(3) . . ?
C102 C103 C108 124.1(3) . . ?
C104 C103 C108 115.9(3) . . ?
C102 C104 C103 119.4(3) 5_556 . ?
C102 C104 C105 124.3(3) 5_556 . ?
C103 C104 C105 115.6(3) . . ?
C104 C105 H105 118.4 . . ?
C106 C105 C104 123.2(4) . . ?
C106 C105 H105 118.4 . . ?
C105 C106 H106 119.7 . . ?
C105 C106 C107 120.6(5) . . ?
C107 C106 H106 119.7 . . ?
C106 C107 H107 120.2 . . ?
C108 C107 C106 119.7(5) . . ?
C108 C107 H107 120.2 . . ?
C103 C108 H108 117.8 . . ?
C107 C108 C103 124.4(4) . . ?
C107 C108 H108 117.8 . . ?
C201 O21 Zn1 122.86(16) . . ?
C201 O22 Li1 138.2(2) . . ?
C206 O23 Zn1 117.33(17) . 4 ?
C206 O24 Li1 149.3(2) . 4 ?
O21 C201 C202 114.8(2) . . ?
O22 C201 O21 124.7(2) . . ?
O22 C201 C202 120.5(2) . . ?
C203 C202 C201 117.9(2) . . ?
C203 C202 C208 120.1(2) . . ?
C208 C202 C201 121.9(2) . . ?
C202 C203 H203 119.5 . . ?
C202 C203 C204 121.0(2) . . ?
C204 C203 H203 119.5 . . ?
C203 C204 H204 119.5 . . ?
C205 C204 C203 121.1(3) . . ?
C205 C204 H204 119.5 . . ?
C204 C205 C206 116.5(2) . . ?
C204 C205 C207 119.9(2) . . ?
C207 C205 C206 123.5(2) . . ?
O23 C206 C205 118.4(2) . . ?
O24 C206 O23 123.6(2) . . ?
O24 C206 C205 118.0(2) . . ?
C205 C207 C208 118.9(3) . . ?
C212 C207 C205 122.8(3) . . ?
C212 C207 C208 118.2(3) . . ?
C202 C208 C207 118.8(2) . . ?
C209 C208 C202 122.4(3) . . ?
C209 C208 C207 118.6(3) . . ?
C208 C209 H209 119.4 . . ?
C210 C209 C208 121.2(3) . . ?
C210 C209 H209 119.4 . . ?
C209 C210 H210 119.8 . . ?
C209 C210 C211 120.4(4) . . ?
C211 C210 H210 119.8 . . ?
C210 C211 H211 119.9 . . ?
C212 C211 C210 120.2(3) . . ?
C212 C211 H211 119.9 . . ?
C207 C212 H212 119.3 . . ?
C211 C212 C207 121.5(3) . . ?
C211 C212 H212 119.3 . . ?
C2 C1 H1 119.8 . . ?
C6 C1 H1 119.8 . . ?
C6 C1 C2 120.4(6) . . ?
C1 C2 H2 120.0 . . ?
C3 C2 C1 120.1(6) . . ?
C3 C2 H2 120.0 . . ?
C2 C3 H3 120.2 . . ?
C4 C3 C2 119.7(8) . . ?
C4 C3 H3 120.2 . . ?
C3 C4 C5 119.9(6) . . ?
C3 C4 C7 121.3(7) . . ?
C5 C4 C7 118.8(6) . . ?
C4 C5 H5 120.0 . . ?
C6 C5 C4 120.0(6) . . ?
C6 C5 H5 120.0 . . ?
C1 C6 C5 120.0(7) . . ?
C1 C6 C8 120.7(7) . . ?
C5 C6 C8 119.2(7) . . ?
C4 C7 H7A 109.5 . . ?
C4 C7 H7B 109.5 . . ?
C4 C7 H7C 109.5 . . ?
H7A C7 H7B 109.5 . . ?
H7A C7 H7C 109.5 . . ?
H7B C7 H7C 109.5 . . ?
C6 C8 H8A 109.5 . . ?
C6 C8 H8B 109.5 . . ?
C6 C8 H8C 109.5 . . ?
H8A C8 H8B 109.5 . . ?
H8A C8 H8C 109.5 . . ?
H8B C8 H8C 109.5 . . ?
loop_
_geom_bond_atom_site_label_1
_geom_bond_atom_site_label_2
_geom_bond_distance
_geom_bond_site_symmetry_2
_geom_bond_publ_flag
Li1 Li1 2.727(7) 2 ?
Li1 Zn1 3.164(4) . ?
Li1 O12 1.931(4) 2 ?
Li1 O12 1.974(4) . ?
Li1 O22 1.871(4) . ?
Li1 O24 1.843(4) 4_545 ?
Zn1 N1 2.047(2) . ?
Zn1 O11 1.9577(17) . ?
Zn1 O21 1.9198(18) . ?
Zn1 O23 1.9478(19) 4_545 ?
N1 C11 1.335(3) . ?
N1 C15 1.347(4) . ?
C11 H11 0.9500 . ?
C11 C12 1.388(3) . ?
C12 H12 0.9500 . ?
C12 C13 1.386(4) . ?
C13 C13 1.478(5) 2_656 ?
C13 C14 1.394(4) . ?
C14 H14 0.9500 . ?
C14 C15 1.371(4) . ?
C15 H15 0.9500 . ?
O11 C101 1.265(3) . ?
O12 C101 1.246(3) . ?
C101 C102 1.504(3) . ?
C102 C103 1.409(4) . ?
C102 C104 1.402(4) 5_556 ?
C103 C104 1.423(4) . ?
C103 C108 1.556(6) . ?
C104 C105 1.567(6) . ?
C105 H105 0.9500 . ?
C105 C106 1.384(8) . ?
C106 H106 0.9500 . ?
C106 C107 1.395(8) . ?
C107 H107 0.9500 . ?
C107 C108 1.371(8) . ?
C108 H108 0.9500 . ?
O21 C201 1.282(3) . ?
O22 C201 1.243(3) . ?
O23 C206 1.264(3) . ?
O24 C206 1.231(3) . ?
C201 C202 1.497(3) . ?
C202 C203 1.361(4) . ?
C202 C208 1.423(4) . ?
C203 H203 0.9500 . ?
C203 C204 1.403(4) . ?
C204 H204 0.9500 . ?
C204 C205 1.362(4) . ?
C205 C206 1.506(3) . ?
C205 C207 1.425(4) . ?
C207 C208 1.433(4) . ?
C207 C212 1.417(4) . ?
C208 C209 1.417(4) . ?
C209 H209 0.9500 . ?
C209 C210 1.366(5) . ?
C210 H210 0.9500 . ?
C210 C211 1.403(6) . ?
C211 H211 0.9500 . ?
C211 C212 1.366(5) . ?
C212 H212 0.9500 . ?
C1 H1 0.9500 . ?
C1 C2 1.388(10) . ?
C1 C6 1.366(9) . ?
C2 H2 0.9500 . ?
C2 C3 1.388(10) . ?
C3 H3 0.9500 . ?
C3 C4 1.377(9) . ?
C4 C5 1.396(9) . ?
C4 C7 1.494(8) . ?
C5 H5 0.9500 . ?
C5 C6 1.385(9) . ?
C6 C8 1.503(9) . ?
C7 H7A 0.9800 . ?
C7 H7B 0.9800 . ?
C7 H7C 0.9800 . ?
C8 H8A 0.9800 . ?
C8 H8B 0.9800 . ?
C8 H8C 0.9800 . ?
