#------------------------------------------------------------------------------
#$Date: 2020-09-06 00:13:48 +0300 (Sun, 06 Sep 2020) $
#$Revision: 255929 $
#$URL: file:///home/coder/svn-repositories/cod/cif/4/51/80/4518018.cif $
#------------------------------------------------------------------------------
#
# This file is available in the Crystallography Open Database (COD),
# http://www.crystallography.net/
#
# All data on this site have been placed in the public domain by the
# contributors.
#
data_4518018
loop_
_publ_author_name
'Dutta, Subhajit'
'Samanta, Partha'
'Joarder, Biplab'
'Let, Sumanta'
'Mahato, Debanjan'
'Babarao, Ravichandar'
'Ghosh, Sujit K.'
_publ_section_title
;
 A Water-Stable Cationic Metal-Organic Framework with Hydrophobic Pore
 Surfaces as an Efficient Scavenger of Oxo-Anion Pollutants from Water.
;
_journal_name_full               'ACS applied materials &amp; interfaces'
_journal_paper_doi               10.1021/acsami.0c13563
_journal_year                    2020
_chemical_formula_sum            'C66 H48 N12 Ni'
_chemical_formula_weight         1067.87
_space_group_crystal_system      trigonal
_space_group_IT_number           148
_space_group_name_Hall           '-R 3'
_space_group_name_H-M_alt        'R -3 :H'
_atom_sites_solution_hydrogens   geom
_audit_creation_method           SHELXL-2018/1
_cell_angle_alpha                90
_cell_angle_beta                 90
_cell_angle_gamma                120
_cell_formula_units_Z            3
_cell_length_a                   18.595(10)
_cell_length_b                   18.595(10)
_cell_length_c                   23.048(19)
_cell_measurement_reflns_used    3630
_cell_measurement_temperature    150(2)
_cell_measurement_theta_max      18.22
_cell_measurement_theta_min      2.65
_cell_volume                     6902(8)
_computing_cell_refinement       'Bruker SAINT'
_computing_data_collection       'Bruker APEX3'
_computing_data_reduction        'Bruker SAINT'
_computing_molecular_graphics    'Bruker SHELXTL'
_computing_publication_material  'Bruker SHELXTL'
_computing_structure_refinement  'SHELXL-2018/1 (Sheldrick, 2018)'
_computing_structure_solution    'SHELXT 2014/5 (Sheldrick, 2014)'
_diffrn_ambient_temperature      150(2)
_diffrn_measured_fraction_theta_full 0.981
_diffrn_measured_fraction_theta_max 0.981
_diffrn_measurement_device_type  'Bruker APEX3 Photon 100 CMOS chip'
_diffrn_measurement_method       '\f and \w scans'
_diffrn_radiation_type           MoK\a
_diffrn_radiation_wavelength     0.71073
_diffrn_reflns_av_R_equivalents  0.1544
_diffrn_reflns_av_unetI/netI     0.0964
_diffrn_reflns_Laue_measured_fraction_full 0.981
_diffrn_reflns_Laue_measured_fraction_max 0.981
_diffrn_reflns_limit_h_max       21
_diffrn_reflns_limit_h_min       -22
_diffrn_reflns_limit_k_max       21
_diffrn_reflns_limit_k_min       -21
_diffrn_reflns_limit_l_max       27
_diffrn_reflns_limit_l_min       -27
_diffrn_reflns_number            30009
_diffrn_reflns_point_group_measured_fraction_full 0.981
_diffrn_reflns_point_group_measured_fraction_max 0.981
_diffrn_reflns_theta_full        25.073
_diffrn_reflns_theta_max         25.073
_diffrn_reflns_theta_min         2.190
_diffrn_source                   'Micro-focus X-ray source'
_exptl_absorpt_coefficient_mu    0.243
_exptl_absorpt_correction_T_max  0.0258
_exptl_absorpt_correction_T_min  0.0093
_exptl_absorpt_correction_type   multi-scan
_exptl_absorpt_process_details   'multi-scan absorption correction'
_exptl_crystal_colour            colourless
_exptl_crystal_density_diffrn    0.771
_exptl_crystal_density_method    'not measured'
_exptl_crystal_description       trigonal
_exptl_crystal_F_000             1668
_exptl_crystal_size_max          0.12
_exptl_crystal_size_mid          0.11
_exptl_crystal_size_min          0.10
_refine_diff_density_max         0.351
_refine_diff_density_min         -0.255
_refine_diff_density_rms         0.054
_refine_ls_extinction_method     none
_refine_ls_goodness_of_fit_ref   1.213
_refine_ls_hydrogen_treatment    constr
_refine_ls_matrix_type           full
_refine_ls_number_parameters     120
_refine_ls_number_reflns         2681
_refine_ls_number_restraints     0
_refine_ls_restrained_S_all      1.213
_refine_ls_R_factor_all          0.2170
_refine_ls_R_factor_gt           0.1330
_refine_ls_shift/su_max          0.000
_refine_ls_shift/su_mean         0.000
_refine_ls_structure_factor_coef Fsqd
_refine_ls_weighting_details
'w=1/[\s^2^(Fo^2^)+(0.1310P)^2^+10.0361P] where P=(Fo^2^+2Fc^2^)/3'
_refine_ls_weighting_scheme      calc
_refine_ls_wR_factor_gt          0.3093
_refine_ls_wR_factor_ref         0.3549
_reflns_Friedel_coverage         0.000
_reflns_number_gt                1225
_reflns_number_total             2681
_reflns_threshold_expression     'I > 2\s(I)'
_cod_data_source_file            am0c13563_si_002.cif
_cod_data_source_block           iMOF2C
_cod_original_cell_volume        6902(9)
_cod_database_code               4518018
_shelx_shelxl_version_number     2018/1
_shelx_space_group_comment
;
The symmetry employed for this shelxl refinement is uniquely defined
by the following loop, which should always be used as a source of
symmetry information in preference to the above space-group names.
They are only intended as comments.
;
_shelx_res_file
;
TITL trial30_a.res in R-3
    shelx.res
    created by SHELXL-2018/1 at 22:31:53 on 24-Jul-2020
CELL  0.71073  18.5954  18.5954  23.0480   90.000   90.000  120.000
ZERR   3.000   0.0098   0.0098   0.0187    0.000    0.000    0.000
LATT 3
SYMM -Y, X-Y, Z
SYMM -X+Y, -X, Z
SFAC C  H  N  Ni
UNIT 198  144  36  3
L.S. 75 0   62
ACTA
BOND $H
FMAP 2
PLAN 20
OMIT -3 6 0
OMIT -2 6 4
OMIT -4 6 2
TEMP 23.000
ABIN
WGHT    0.131000   10.036099
FVAR       0.17789
NI01  4    0.666667    0.333333    0.333333    10.16667    0.05208    0.05208 =
         0.24112    0.00000    0.00000    0.02604
N1    3    0.587857    0.355819    0.385824    11.00000    0.05179    0.06100 =
         0.21443    0.01953    0.01054    0.02430
N2    3    0.512737    0.408285    0.417431    11.00000    0.05281    0.06040 =
         0.21716    0.00896    0.02920    0.03002
C4    1    0.476037    0.460704    0.420540    11.00000    0.05859    0.05274 =
         0.24122    0.01196    0.00444    0.02402
C3    1    0.565912    0.414849    0.379529    11.00000    0.06569    0.04780 =
         0.21919   -0.00228    0.00269    0.02429
AFIX  43
H3    2    0.587147    0.455503    0.350881    11.00000   -1.20000
AFIX   0
C7    1    0.408336    0.563700    0.423854    11.00000    0.06274    0.06298 =
         0.25922    0.00621    0.00838    0.03325
C10   1    0.369238    0.615674    0.423794    11.00000    0.05972    0.05593 =
         0.25234    0.01915    0.02523    0.03241
C11   1    0.284082    0.581606    0.422865    11.00000    0.06590    0.07550 =
         0.27296   -0.01249   -0.00561    0.03839
AFIX  43
H8    2    0.250580    0.524149    0.421581    11.00000   -1.20000
AFIX   0
C2    1    0.494245    0.342837    0.451563    11.00000    0.09970    0.07687 =
         0.20813    0.01422    0.00903    0.04942
AFIX  43
H2    2    0.457123    0.323164    0.482460    11.00000   -1.20000
AFIX   0
C1    1    0.542623    0.310867    0.430699    11.00000    0.09441    0.08955 =
         0.19634    0.02261    0.01953    0.06096
AFIX  43
H1    2    0.543322    0.264860    0.445834    11.00000   -1.20000
AFIX   0
C9    1    0.402862    0.433933    0.448484    11.00000    0.06303    0.06797 =
         0.30971    0.01142    0.01644    0.03204
AFIX  43
H7    2    0.376303    0.382428    0.466723    11.00000   -1.20000
AFIX   0
C8    1    0.368150    0.485695    0.449248    11.00000    0.07431    0.08216 =
         0.27993   -0.00794    0.00585    0.05153
AFIX  43
H6    2    0.317075    0.467311    0.467174    11.00000   -1.20000
AFIX   0
C6    1    0.482993    0.588650    0.397591    11.00000    0.08463    0.08153 =
         0.29523    0.02689    0.03398    0.05329
AFIX  43
H5    2    0.511581    0.641313    0.381134    11.00000   -1.20000
AFIX   0
C5    1    0.516861    0.538056    0.394868    11.00000    0.07502    0.09202 =
         0.27918    0.03983    0.05069    0.04856
AFIX  43
H4    2    0.567058    0.555758    0.375830    11.00000   -1.20000
AFIX   0
HKLF 4




REM  trial30_a.res in R-3
REM R1 =  0.1330 for    1225 Fo > 4sig(Fo)  and  0.2170 for all    2681 data
REM    120 parameters refined using      0 restraints

END

WGHT      0.1379     31.9907

REM Highest difference peak  0.351,  deepest hole -0.255,  1-sigma level  0.054
Q1    1   0.6667  0.3333  0.4071  10.33333  0.05    0.35
Q2    1   0.6256  0.3118  0.4656  11.00000  0.05    0.24
Q3    1   0.6667  0.3333  0.4556  10.33333  0.05    0.23
Q4    1   0.4937  0.4254  0.4605  11.00000  0.05    0.22
Q5    1   0.5776  0.3917  0.4637  11.00000  0.05    0.21
Q6    1   0.5198  0.3896  0.5028  11.00000  0.05    0.21
Q7    1   0.4654  0.5384  0.4987  11.00000  0.05    0.20
Q8    1   0.6375  0.4093  0.4206  11.00000  0.05    0.19
Q9    1   0.2253  0.5081  0.3803  11.00000  0.05    0.18
Q10   1   0.5399  0.6460  0.4403  11.00000  0.05    0.18
Q11   1   0.5230  0.3470  0.4964  11.00000  0.05    0.18
Q12   1   0.5945  0.4514  0.4200  11.00000  0.05    0.17
Q13   1   0.5403  0.2004  0.4239  11.00000  0.05    0.17
Q14   1   0.5687  0.4597  0.4523  11.00000  0.05    0.16
Q15   1   0.6217  0.3736  0.4421  11.00000  0.05    0.15
Q16   1   0.3557  0.4120  0.4014  11.00000  0.05    0.14
Q17   1   0.4501  0.2670  0.4541  11.00000  0.05    0.14
Q18   1   0.4784  0.6578  0.3749  11.00000  0.05    0.14
Q19   1   0.2385  0.5609  0.3746  11.00000  0.05    0.13
Q20   1   0.4172  0.4225  0.3806  11.00000  0.05    0.13
;
_shelx_res_checksum              85384
_shelx_hkl_file
;
  -2   1   0  699.43   22.20
  -3   3   0   71.89    5.00
  -3   3   0   84.09    7.40
   3   0   0   77.29    4.10
  -3   3   0   79.19    4.30
   0  -3   0   73.39    5.70
   3   0   0   76.19    5.60
  -3   3   0   83.09    7.10
  -3   3   0   82.89    3.90
   3   0   0   71.69    5.70
   3   0   0   75.29    4.70
   3   0   0   71.99    5.10
   3  -3   0   74.79    4.40
   0   3   0   64.89    5.70
   3  -3   0   72.69    4.70
  -3   0   0   76.69    5.00
  -3   0   0   75.69    4.50
  -3   0   0   78.99    5.80
   0   3   0   74.79    6.50
   0   3   0   70.49    4.10
  -3   0   0   67.09    5.90
  -3   0   0   77.09    5.60
   0   3   0   77.49    6.10
   2  -4   0 2395.46   67.29
   2   2   0 2233.28   67.99
  -4   2   0 2443.06   68.19
   2   2   0 2349.96   67.89
  -4   2   0 2290.97   67.59
   2   2   0 2345.77   68.89
  -4   2   0 2451.75   68.59
   2   2   0 2304.37   68.29
   2   2   0 2419.86   68.79
  -4   2   0 2348.27   70.09
   2  -4   0 2285.57   68.49
   2   2   0 2347.47   67.49
  -2   4   0 2376.66   67.19
   4  -2   0 2442.76   67.59
  -2   4   0 2324.97   68.89
  -2  -2   0 2352.76   67.39
   4  -2   0 2447.76   68.59
   4  -2   0 2255.77   68.09
  -2   4   0 2490.75   69.69
  -2   4   0 2269.67   68.59
  -2   4   0 2389.46   67.79
  -2   4   0 2314.17   69.59
   4  -2   0 2425.06   68.19
  -2  -2   0 2255.87   68.69
  -2  -2   0 2465.85   68.49
   1   4   0  118.39    7.00
   1   4   0  110.39    9.50
  -5   1   0  112.79    8.50
   1   4   0  111.19    9.00
   4  -5   0  118.59    7.60
  -5   1   0  114.49    8.60
  -5   1   0  116.09    7.30
  -5   1   0  124.29    8.60
   5  -1   0  105.19    7.30
  -4   5   0  100.09    8.30
  -4   5   0  103.79    6.80
   5  -1   0  114.09    7.80
   5  -1   0  115.39    8.50
  -4   5   0  118.09   10.90
  -1  -4   0  119.99    7.20
  -1  -4   0  104.99    9.20
   1  -5   0  106.49   13.40
   4   1   0  102.09   11.10
  -5   4   0   99.79    7.20
   4   1   0   84.89    8.10
   4   1   0   95.49    7.00
   4   1   0   93.39    8.40
   4   1   0  100.39    7.00
   1  -5   0   98.19    8.90
  -5   4   0  103.79   10.00
   1  -5   0   87.79    7.30
   1  -5   0   71.29   11.00
   4   1   0  102.09    8.20
  -5   4   0   77.39    4.60
  -4  -1   0   78.19    9.60
  -4  -1   0   88.79    8.70
  -4  -1   0   75.69    6.70
  -1   5   0   73.69   10.20
  -4  -1   0  102.99    7.80
  -4  -1   0   88.39    6.60
  -4  -1   0  104.79    9.10
  -1   5   0   85.99   11.30
   5  -4   0   76.59    6.70
  -1   5   0  101.09    8.10
  -1   5   0   95.69    9.10
  -6   3   0  219.48   10.40
  -6   3   0  241.98   16.00
   3   3   0  234.68   12.40
  -6   3   0  224.28   11.30
  -6   3   0  229.88    9.90
   3   3   0  241.18   11.90
   3  -6   0  235.48   12.00
   3   3   0  233.28   11.00
   3  -6   0  222.78    8.50
   3   3   0  218.78   10.70
   3  -6   0  212.18   15.50
  -6   3   0  243.88   11.00
   3   3   0  223.48    8.90
  -6   3   0  243.48   11.00
  -3  -3   0  221.38   12.20
  -3   6   0  217.38   11.80
  -3  -3   0  229.38   13.20
   6  -3   0  229.28   10.80
  -3  -3   0  222.08   11.50
  -3   6   0  227.68   10.10
   6  -3   0  219.58   10.40
   6  -3   0  225.28   11.70
  -3   6   0  241.48   13.60
  -3  -3   0  220.78    8.80
   6  -3   0  231.68    8.90
  -3   6   0  216.58   14.60
  -3  -3   0  228.28   10.80
  -3   6   0  229.98   14.50
  -6   6   0   14.80    9.30
  -6   6   0   11.80    6.90
   0  -6   0   -3.00    8.30
  -6   6   0    2.50   10.10
   0  -6   0   -6.20    7.20
  -6   6   0    9.70    3.40
  -6   6   0   -1.30    5.50
   6   0   0   15.20    6.20
   6   0   0    3.90    5.30
   6   0   0   -0.90    7.20
  -6   6   0    1.40    6.10
   6   0   0   -9.50   11.60
   0  -6   0   17.70   12.00
   6   0   0    8.80    7.90
   6   0   0    8.20    7.60
   0  -6   0   13.10    9.90
   0  -6   0    1.70    5.20
  -6   0   0    7.30    8.30
   0   6   0    9.90    9.70
   6  -6   0   19.30    9.70
   0   6   0   -6.40    8.00
   0   6   0    8.90    7.50
   6  -6   0    6.00    5.80
   0   6   0    3.30   10.30
  -6   0   0    9.90    7.40
  -6   0   0    8.90   10.30
  -6   0   0    9.30    5.70
  -6   0   0   11.40    8.50
  -6   0   0    8.70    6.70
   6  -6   0    2.80    5.50
   5  -7   0  264.77   17.80
  -7   2   0  292.67   12.60
   2   5   0  263.17   13.90
  -7   2   0  265.27   17.30
  -7   2   0  307.17   14.50
   2   5   0  280.07   10.00
   5  -7   0  287.87   10.90
   2   5   0  264.27   15.70
   2   5   0  281.87   13.70
   5  -7   0  300.87   13.10
  -7   2   0  298.77   12.90
  -7   2   0  268.67   13.10
   2   5   0  277.27   14.40
  -5   7   0  283.37   13.90
  -5   7   0  276.97    9.70
  -5   7   0  273.17   10.70
   7  -2   0  284.67   13.30
  -5   7   0  304.17   17.20
  -2  -5   0  273.57   14.80
  -5   7   0  273.97   10.80
  -5   7   0  278.47   16.40
   7  -2   0  291.67   11.90
   7  -2   0  294.07   13.00
  -2  -5   0  272.27   13.90
   7  -2   0  281.17   19.00
  -2  -5   0  276.87   14.60
   7  -2   0  283.07   12.40
  -2  -5   0  265.87   16.10
  -7   5   0  110.19    8.90
   5   2   0  110.49    9.60
  -7   5   0  143.29   12.90
   5   2   0  119.89    8.10
   5   2   0  148.99   11.30
  -7   5   0  125.79   11.60
   5   2   0  126.89   10.10
   5   2   0  125.69    7.10
  -7   5   0  141.59    9.50
  -7   5   0  117.09    7.00
   5   2   0  134.99    9.40
   2  -7   0  125.39    8.70
  -5  -2   0  123.89   10.90
   7  -5   0  121.69    8.80
  -2   7   0  138.39   10.60
   7  -5   0  128.29    7.10
  -2   7   0  155.88   14.10
  -2   7   0  143.09   11.60
  -5  -2   0  115.19   10.10
  -2   7   0  100.79   13.50
  -5  -2   0  127.49    7.70
   7  -8   0  724.93   23.90
  -8   1   0  682.13   28.20
  -8   1   0  736.63   24.90
  -8   1   0  747.83   25.10
   7  -8   0  749.73   29.80
   1   7   0  721.73   26.90
   1   7   0  772.12   26.60
   1   7   0  698.53   27.20
   7  -8   0  734.03   24.50
  -7   8   0  735.83   25.10
   8  -1   0  717.73   24.70
   8  -1   0  757.82   25.00
  -1  -7   0  734.83   23.50
  -7   8   0  726.43   23.90
  -7   8   0  716.23   22.00
  -7   8   0  678.73   28.80
   8  -1   0  738.83   22.40
   8  -1   0  695.83   25.40
  -1  -7   0  681.83   26.90
  -7   8   0  710.43   27.90
  -1  -7   0  714.43   26.60
   8  -1   0  719.43   24.90
  -7   8   0  749.82   22.90
   4   4   0  117.79   10.30
   4   4   0  116.59   10.90
  -8   4   0   92.69    8.70
   4   4   0   91.49    7.60
  -8   4   0  120.69   10.60
   4  -8   0  119.19   11.50
  -8   4   0  119.79   11.50
  -8   4   0  130.49   15.90
   4   4   0  123.59   11.40
   4  -8   0  105.89    8.30
  -4  -4   0   95.59   10.50
  -4  -4   0  120.59   13.30
  -4   8   0  119.49   11.90
  -4   8   0  123.59    9.40
  -4   8   0   96.29   15.30
  -4   8   0  105.69   13.70
   8  -4   0  128.99   10.90
   8  -4   0   91.89    7.60
  -4   8   0   87.59   16.60
  -4  -4   0  117.39   11.90
   8  -4   0  102.99    9.50
  -4  -4   0  121.99   13.10
  -8   7   0   -5.10    8.30
   7   1   0    6.70    7.50
   1  -8   0    2.40    5.50
   7   1   0   19.00   10.30
   1  -8   0   -1.80    8.30
  -8   7   0    5.60    3.50
   7   1   0   10.70    9.20
  -8   7   0    4.80    4.30
  -8   7   0   -2.60    8.40
   1  -8   0   16.70   15.30
   7   1   0   10.10    8.90
  -8   7   0   12.70   14.20
  -8   7   0   -7.70   11.20
   7   1   0    5.60    7.20
  -8   7   0   13.20    7.20
  -7  -1   0   -7.40    7.30
  -1   8   0    7.50   11.00
  -7  -1   0   -0.80   11.40
  -1   8   0    0.10   11.50
  -7  -1   0    9.50    9.10
   8  -7   0   10.00    6.70
  -1   8   0    5.40    9.70
  -1   8   0   -0.70   12.50
   8  -7   0    8.80   12.40
  -7  -1   0   -5.60   10.90
   8  -7   0    2.30    6.60
  -9   3   0    9.20    8.00
   3   6   0    7.60    6.20
   3   6   0   -9.40   10.20
  -9   3   0   -1.40    9.40
   6  -9   0   -1.30    9.20
   3   6   0  -10.10   14.90
   3   6   0    4.20   11.10
   3   6   0    2.50   11.20
   6  -9   0   -3.00    6.70
   6  -9   0    4.90    5.50
  -9   3   0    1.80    9.50
  -3  -6   0   -5.90    8.80
  -6   9   0   15.50    9.90
  -3  -6   0   -3.30   10.70
   9  -3   0   10.30    8.40
  -6   9   0   -1.00   12.90
  -6   9   0    9.20    7.00
   9  -3   0   22.00    9.40
  -9   6   0   14.90    5.10
   6   3   0    3.00    9.20
   6   3   0   13.60    9.80
   3  -9   0   -3.90    7.60
  -9   6   0  -10.20   18.10
   6   3   0    2.50    7.00
   6   3   0    3.80    9.60
  -9   6   0   -4.30   11.00
  -9   6   0   -3.00   12.60
   6   3   0   11.80    9.00
  -9   6   0    0.50   12.60
   6   3   0    7.10    6.80
  -9   6   0    7.30    6.50
   3  -9   0    9.20    4.70
   9  -6   0   25.00    8.40
  -3   9   0    9.90    9.20
  -3   9   0    5.80   10.90
  -6  -3   0    7.70    6.50
  -3   9   0    3.00   17.90
  -3   9   0   24.60   13.50
  -6  -3   0    2.20   11.20
   9  -6   0  -14.60   10.50
  -6  -3   0    8.10   11.70
   9   0   0  131.19   12.10
   9   0   0  137.89   12.70
  -9   9   0  143.49   10.90
  -9   9   0  100.99   11.50
   9   0   0  111.49   13.30
  -9   9   0  105.19   17.40
   0  -9   0  107.59   17.80
   0  -9   0  121.69    9.40
   9  -9   0  133.49   11.50
   0   9   0  126.59   14.80
  -9   0   0  137.49   13.90
  -9   0   0  116.69   15.10
   2   8   0   31.80   17.10
   2   8   0   54.99   13.30
 -10   2   0   51.79   14.40
 -10   2   0   59.69   11.80
   8 -10   0   58.79    9.00
   8 -10   0   62.79   11.80
   2   8   0   56.79   13.90
 -10   2   0   63.89    7.50
  -8  10   0   76.19   16.60
  -8  10   0   55.49    7.00
  -2  -8   0   52.09    9.20
  10  -2   0   80.89   10.80
  10  -2   0   75.79   10.80
  -2  -8   0   45.40   14.90
  -8  10   0   55.79   11.80
  10  -2   0   54.79    9.90
   5   5   0    7.40    8.80
 -10   5   0   21.10    9.30
   5 -10   0   14.50    7.50
   5   5   0   13.00   11.20
   5   5   0    4.40   11.90
 -10   5   0   16.80   12.00
 -10   5   0   16.00   15.60
   5   5   0   23.00    8.00
 -10   5   0   14.10   11.10
  10  -5   0   19.30    8.80
  -5  10   0    8.10   11.70
  -5  -5   0   12.40   16.70
  -5  -5   0   32.10   13.70
  10  -5   0   25.30    7.10
  -5  10   0    1.50   14.00
  10  -5   0   11.40   12.20
   2 -10   0  245.08   19.60
 -10   8   0  262.57   13.20
 -10   8   0  279.57   15.20
   8   2   0  248.58   14.70
 -10   8   0  252.97   20.30
   8   2   0  288.47   14.50
   8   2   0  287.27   17.40
   8   2   0  300.47   15.70
 -10   8   0  274.17   20.30
   2 -10   0  278.47   10.30
  10  -8   0  257.57   14.30
  10  -8   0  287.77   12.70
  -8  -2   0  234.28   17.90
  -8  -2   0  284.57   17.10
  10  -8   0  280.77   21.20
  -2  10   0  280.97   17.80
  -8  -2   0  236.08   20.10
   1  10   0  228.08   12.30
  10 -11   0  223.98   16.10
 -11   1   0  192.48   17.80
   1  10   0  207.98   11.90
  10 -11   0  221.18   14.40
 -11   1   0  186.68   12.50
  11  -1   0  209.38   14.80
 -10  11   0  182.58   15.70
  11  -1   0  194.88   10.40
 -10  11   0  199.28   11.80
 -10  11   0  208.48   12.60
  11  -1   0  205.28   15.20
  -1 -10   0  222.08   11.30
  11  -1   0  202.38   11.20
   7 -11   0  242.68   12.60
   4   7   0  247.08   12.10
 -11   4   0  248.98   16.90
   4   7   0  264.57   16.80
 -11   4   0  247.98   14.50
   4   7   0  243.28   17.00
 -11   4   0  266.37   13.50
 -11   4   0  232.78   15.60
   7 -11   0  241.78   11.60
   4   7   0  264.47   12.30
  -7  11   0  225.38   13.50
  11  -4   0  250.47   13.70
  -4  -7   0  217.88   17.90
  11  -4   0  237.88   16.50
  11  -4   0  270.77   11.10
  -7  11   0  237.28   18.60
   7   4   0   74.49   12.70
   4 -11   0   63.39   10.60
   4 -11   0   78.09   19.20
   7   4   0   52.69   12.00
 -11   7   0   53.49   13.90
 -11   7   0   50.69    8.90
   7   4   0   59.99   10.30
  -4  11   0   56.69    6.00
  11  -7   0   34.10   13.60
  -7  -4   0   45.80   17.90
  -4  11   0   46.60    8.30
  -4  11   0   67.09   12.30
  11  -7   0   56.39    5.60
 -11  10   0   71.79   12.50
  10   1   0   44.40   11.80
  10   1   0   66.99   11.90
   1 -11   0   66.99    7.70
   1 -11   0   61.19    9.60
  10   1   0   68.39    6.80
 -11  10   0   49.90   11.10
 -11  10   0   22.50   19.00
  11 -10   0   59.69    6.20
  11 -10   0   50.99   10.20
  -1  11   0   58.49    6.90
  -1  11   0   50.49    7.10
  -1  11   0   45.90    9.80
 -10  -1   0   47.10    8.70
   3   9   0   27.40    7.20
   9 -12   0    9.40   10.50
 -12   3   0   26.50    9.00
   3   9   0    7.30    7.10
 -12   3   0   -5.00   12.80
   3   9   0   -0.60    9.70
  -3  -9   0    4.00    8.30
  -9  12   0   10.30    6.40
  12  -3   0   18.90   11.60
  -9  12   0   19.90   14.90
  12  -3   0   19.30   11.40
  12  -3   0   21.70    6.40
  -9  12   0   16.10    8.50
  -9  12   0   29.30    9.30
   6   6   0   89.09   10.70
 -12   6   0   65.39   10.80
 -12   6   0   72.09   11.60
   6 -12   0   67.09    9.30
   6   6   0  111.29   15.50
 -12   6   0   96.39   14.10
 -12   6   0   73.89   14.60
   6   6   0   72.89    7.90
   6   6   0   92.39   11.20
  -6  12   0   79.09    8.40
  -6  -6   0   75.39    9.00
  12  -6   0   73.29    6.50
  -6  12   0   89.19   12.40
  12  -6   0   91.39   14.30
 -12   9   0   29.10    7.10
 -12   9   0   27.60   19.60
   9   3   0   34.50    7.30
   9   3   0   31.10   13.40
   9   3   0   38.10   13.00
 -12   9   0   35.90    8.20
 -12   9   0   36.40   11.70
   9   3   0   43.70   12.70
  12  -9   0   34.60    6.00
  -3  12   0   35.20    7.10
  -9  -3   0   44.30    7.70
  -9  -3   0   45.60   18.90
  -3  12   0   12.20   13.80
  -3  12   0   31.20    9.50
  12   0   0   95.89   12.20
  12   0   0   80.19   13.80
  12   0   0   71.89    8.10
  12   0   0   77.49    8.10
 -12  12   0   64.59   11.40
 -12  12   0   77.49   13.40
 -12  12   0   92.79   13.90
   0  12   0   65.89    8.00
 -12   0   0   71.09    9.30
  12 -12   0   64.09   14.20
   0  12   0   93.29    9.40
  12 -12   0   85.09    8.10
   0  12   0   68.79   10.00
 -13   2   0   65.49   10.60
 -13   2   0   49.00   16.40
  11 -13   0   52.99    6.10
   2  11   0   44.30    8.50
   2  11   0   44.30    7.80
  13  -2   0   59.49   13.50
  -2 -11   0   81.79   15.60
 -11  13   0   49.20   10.40
 -11  13   0   30.60   16.60
  13  -2   0   46.20    7.20
  13  -2   0   54.59    6.00
  -2 -11   0   52.79   11.90
 -13   5   0   91.09   15.40
   5   8   0  100.79    9.70
   5   8   0   69.19   15.20
   8 -13   0  111.19   12.10
   8 -13   0   90.99    8.70
   5   8   0   95.19   11.80
   5   8   0   92.19    8.40
 -13   5   0   91.49   15.00
 -13   5   0   91.29   11.80
 -13   5   0   94.29   10.80
  -8  13   0  101.59   12.10
  13  -5   0  113.79   11.90
  13  -5   0   78.19    6.90
  -5  -8   0   73.99   10.30
  -8  13   0   74.79   10.40
  13  -5   0  113.09   14.50
  -8  13   0   79.09    9.80
   5 -13   0   10.10    8.80
 -13   8   0   27.70    9.60
   8   5   0   22.60   15.90
 -13   8   0   -6.60   18.50
   8   5   0   17.00    9.70
 -13   8   0   -5.70   17.00
 -13   8   0   20.60    9.80
   8   5   0    2.00   11.60
  13  -8   0   18.10    5.30
  -8  -5   0   15.90    6.90
  -5  13   0   17.60   14.50
  -5  13   0   11.40    7.20
  -5  13   0    4.00    6.80
   2 -13   0   10.50    6.70
  11   2   0   39.10   13.70
 -13  11   0   18.70   11.30
   2 -13   0   15.50   11.50
 -11  -2   0   10.50    6.60
  -2  13   0   10.70    6.20
  -2  13   0    0.00    8.70
   1  13   0   24.40   10.20
   1  13   0   22.00    7.80
 -13  14   0   22.70    9.80
  -1 -13   0   25.80   13.10
  -1 -13   0   12.40   12.10
  14  -1   0   16.70    6.70
  14  -1   0   21.10    7.30
 -13  14   0    1.20   17.10
 -13  14   0   37.40   12.70
  14  -1   0   22.20    8.80
 -14   4   0   18.80   15.40
   4  10   0   26.00    7.60
   4  10   0   36.10    7.50
  10 -14   0   12.50   13.10
   4  10   0   12.20   12.60
 -10  14   0   25.00    8.40
  14  -4   0   20.60    6.10
  14  -4   0    5.30   15.10
 -10  14   0   25.40    8.50
 -10  14   0   27.30   10.10
  14  -4   0   32.70   12.80
   7   7   0   97.29   14.20
 -14   7   0   78.89   13.80
 -14   7   0   75.39   16.60
   7 -14   0   59.19   11.10
   7   7   0   64.39   13.70
   7   7   0   80.79    8.20
 -14   7   0   83.69   19.40
 -14   7   0   67.49   11.10
   7 -14   0   57.19   10.50
  -7  -7   0   87.69   10.70
  14  -7   0   77.99    7.10
  -7  14   0   65.99   14.80
  -7  14   0   58.99    9.00
  10   4   0    3.20    6.70
 -14  10   0    0.80    9.40
 -14  10   0    9.70    8.10
  10   4   0  -11.80   17.20
   4 -14   0    3.50   12.60
 -14  10   0   13.80   10.30
  -4  14   0   -5.20    7.80
  -4  14   0   20.10    9.30
 -10  -4   0    6.40    8.00
  -4  14   0   11.00    7.90
  13   1   0   22.50    7.00
 -14  13   0   13.80   13.60
  13   1   0   12.60    6.80
   1 -14   0   17.30   12.80
   1 -14   0   16.80    8.40
 -14  13   0   -0.50   11.00
  13   1   0   15.10   14.00
  14 -13   0   18.30    6.60
  -1  14   0    3.30    8.00
  -1  14   0   22.90   10.90
 -15   3   0   -7.60    9.40
 -15   3   0   29.40   19.50
  12 -15   0    1.40    7.10
   3  12   0    7.00    6.50
  15  -3   0    8.80    6.40
  15  -3   0    5.30    7.50
 -12  15   0   21.30    9.70
 -12  15   0   17.40    9.00
  -3 -12   0   -5.80   10.40
 -12  15   0    5.60    9.90
   6   9   0   57.39    8.50
   6   9   0   17.80   13.60
 -15   6   0   30.80   17.20
   9 -15   0   27.70   12.40
   9 -15   0   33.30    8.70
 -15   6   0   32.70   13.30
  -9  15   0   40.60    9.20
  -9  15   0   46.60    8.90
  15  -6   0   49.99    6.70
  15  -6   0   44.60   11.60
  -9  15   0   31.40   12.80
  -6  -9   0   34.40    9.20
 -15   9   0  411.66   20.70
 -15   9   0  425.76   19.20
   9   6   0  458.65   23.90
  -6  15   0  390.46   34.30
  -6  15   0  414.16   17.90
  -6  15   0  387.06   19.30
  15  -9   0  436.26   16.60
  -9  -6   0  404.36   18.30
  12   3   0    6.20    8.10
 -15  12   0   -5.50   11.80
 -15  12   0   18.90   10.80
  12   3   0    6.50    6.80
  12   3   0   -0.60   17.50
  15 -12   0    8.20    6.70
 -12  -3   0   17.90    9.10
  -3  15   0    0.60    9.10
  -3  15   0   -8.30    7.30
  -3  15   0   -5.40    7.90
  15   0   0   14.60   11.60
  15   0   0    5.30    6.80
 -15  15   0  -19.90   18.70
  15   0   0   -8.40    7.70
   0 -15   0   11.40   13.90
 -15  15   0   10.60   12.90
  15 -15   0    1.10    6.30
   0  15   0    9.10   11.40
   0  15   0    6.10    8.50
   0  15   0   -1.90    8.80
   2  14   0    1.30   10.70
   2  14   0   13.80    8.40
   2  14   0   25.50    8.20
 -14  16   0    8.50   10.60
  -2 -14   0   11.80   13.40
  16  -2   0   10.40    8.20
 -14  16   0  -13.00   10.90
   5  11   0   31.80    8.40
   5  11   0   20.70    9.00
 -16   5   0   37.50   19.10
 -16   5   0   34.90   11.40
   5  11   0   -1.90   15.40
  -5 -11   0   41.60   10.20
 -11  16   0   43.90   10.00
 -11  16   0   25.90   11.80
  16  -5   0   25.10    6.20
 -11  16   0   17.70    8.50
 -16   8   0   60.29   21.20
   8   8   0   59.39   14.40
   8   8   0   79.49   17.10
   8 -16   0   36.70   13.80
 -16   8   0   59.79   18.90
   8   8   0   64.49   10.20
 -16   8   0   84.59   15.90
   8   8   0   51.89    7.90
 -16   8   0   43.60   11.90
  -8  -8   0   34.50    9.40
  -8  16   0   72.19   17.10
  -8  16   0   53.59    9.50
  16  -8   0   48.50    7.70
  -8  16   0   41.80    9.10
  11   5   0   17.40    7.10
 -16  11   0   43.50   11.50
 -16  11   0   43.60   12.30
  -5  16   0   46.50   11.10
  -5  16   0   14.70    9.50
  16 -11   0   27.60    7.20
 -11  -5   0   27.40    8.60
  -5  16   0   14.30    8.90
  14   2   0    2.40    8.80
 -16  14   0    4.40   12.50
  14   2   0   18.80    7.10
  14   2   0   -9.40   16.60
 -16  14   0   24.10   13.30
 -16  14   0   -2.60   13.30
   2 -16   0   20.40   15.70
  -2  16   0    2.10    8.60
  16 -14   0    8.10    6.90
  -2  16   0   15.90    8.60
  -2  16   0   12.70   10.30
 -14  -2   0   18.50    8.70
   1  16   0   -0.40   10.90
  16 -17   0   -7.50    8.70
 -17   1   0   19.70   10.00
   1  16   0    2.50    9.40
   1  16   0    3.40    9.60
  17  -1   0    8.30    8.20
  17  -1   0   13.70    9.50
   4  13   0   -7.90    8.60
 -17   4   0   -2.90   23.80
   4  13   0    9.40    8.40
 -17   4   0   -0.10   10.50
  -4 -13   0   -7.40   11.40
  17  -4   0   -2.70    7.10
 -13  17   0    6.40   10.40
  17  -4   0   -5.40    7.60
   7  10   0   93.99   10.10
  10 -17   0   70.59   16.60
 -17   7   0  105.19   21.70
 -17   7   0   81.39   12.80
   7  10   0   68.39   18.30
 -10  17   0   97.69   16.10
 -10  17   0   65.29   10.50
 -10  17   0   63.19   10.80
  -7 -10   0   63.79   11.00
  10   7   0   14.10    9.10
  10   7   0    3.20   10.10
 -17  10   0    9.90    9.40
  -7  17   0   -1.70    8.10
  -7  17   0   -7.80    8.70
  17 -10   0    7.80    7.30
 -10  -7   0   11.20    9.90
  -7  17   0  -12.00   10.00
 -17  13   0   52.89   16.10
 -17  13   0   79.29   12.60
   4 -17   0   60.59   15.50
 -13  -4   0   54.19    9.70
  -4  17   0   54.29   10.20
  -4  17   0   51.99    8.80
 -17  16   0   -8.10   14.10
   1 -17   0   13.50   16.90
  16   1   0    8.50   10.50
  16   1   0    4.30   14.10
 -17  16   0    4.60   18.30
  16   1   0    7.10    7.70
  -1  17   0   18.80    9.70
  -1  17   0   -1.00   10.30
 -16  -1   0  -10.20    9.40
 -18   3   0   15.20   11.60
   3  15   0    1.00    9.70
   3  15   0   23.00   12.40
  18  -3   0   17.20    8.30
  -3 -15   0   18.40   15.10
 -15  18   0    0.80   10.90
  12 -18   0   -3.50   10.30
   6  12   0    0.70    9.70
 -18   6   0    9.00   11.70
  -6 -12   0    6.90   11.30
  18  -6   0    9.90    6.60
 -12  18   0    0.70   10.50
 -12  18   0   14.60   14.50
 -12  18   0   12.90   10.60
   9   9   0   -7.60    9.40
   9   9   0   14.50   22.60
 -18   9   0    9.40   13.00
 -18   9   0   13.80   13.10
   9 -18   0  -16.10   15.80
  18  -9   0   -2.30    6.70
  -9  -9   0  -16.20    9.60
  -9  18   0   -7.70    8.70
  12   6   0    3.10    7.10
  12   6   0  -20.90   11.00
  12   6   0   -8.80   10.30
 -18  12   0  -11.60   13.20
  -6  18   0    5.80    9.60
  18 -12   0    4.30    6.60
 -12  -6   0  -18.00    9.90
  -6  18   0   -5.40   10.50
  -6  18   0   -6.50    9.70
  15   3   0   21.20    8.50
 -18  15   0   20.90   16.00
 -18  15   0   37.60   13.60
  -3  18   0   29.00    9.30
  -3  18   0   18.50   11.50
 -15  -3   0   11.80   10.00
  -3  18   0   24.70   11.90
  18   0   0    9.50    8.20
 -18  18   0   10.10   12.80
 -18  18   0   -6.00   16.90
  18   0   0  -13.00   11.90
  18 -18   0   16.30    9.30
  17 -19   0   37.90   10.60
   2  17   0   22.50   12.60
 -17  19   0   32.50   17.90
 -17  19   0   16.60   11.20
  19  -2   0   25.50   11.30
   5  14   0   -1.50    9.70
 -19   5   0    1.10   14.90
  14 -19   0   10.20   10.30
   5  14   0  -13.20   11.10
   5  14   0   26.80   10.80
 -19   5   0   -9.30   12.30
 -14  19   0   11.50   13.40
  19  -5   0    3.20    8.70
 -14  19   0   -3.30   11.20
  19  -5   0   -9.70    7.10
  -5 -14   0   12.40   13.60
   8  11   0   -7.40   24.30
   8  11   0   21.20    9.90
  11 -19   0    5.90   20.90
 -19   8   0    7.10   11.90
   8  11   0   14.50   10.70
 -19   8   0  -15.50   13.80
 -11  19   0    9.30   10.40
  19  -8   0    4.50    7.40
 -11  19   0    3.90   20.00
 -11  19   0    4.90   10.90
  -8 -11   0    4.70   11.30
  11   8   0   52.09   13.60
  11   8   0   57.19    8.80
  11   8   0   48.50   10.80
 -19  11   0   31.70   14.50
 -19  11   0   25.30   12.30
  19 -11   0   40.60    8.10
  -8  19   0   54.29   11.50
 -11  -8   0   60.89   13.20
  -8  19   0   40.60   10.60
  -8  19   0   58.99   11.80
  14   5   0   34.30    8.40
 -19  14   0   33.50   13.10
  14   5   0   35.90   13.00
  14   5   0   29.20   11.90
 -19  14   0    4.40   14.50
  -5  19   0   21.70   12.50
  19 -14   0   38.70    8.90
  -5  19   0   18.20    9.80
 -14  -5   0   39.20    9.90
  -5  19   0   21.60   12.10
  17   2   0   16.60   12.90
   2 -19   0    9.00   16.80
 -19  17   0   36.70   18.60
 -19  17   0    8.50   15.30
  -2  19   0   -4.00   11.10
  19 -17   0   22.30   11.00
  -2  19   0    8.90   13.90
  -2  19   0   26.30   15.90
   4  16   0   17.10   13.40
   4  16   0   18.50   19.30
 -20   4   0  -17.30   13.60
   4  16   0  -25.20   16.40
  -4 -16   0  -27.10   16.90
  20  -4   0   18.30   11.90
 -16  20   0   21.10   15.80
 -16  20   0   -8.30   11.40
 -20   7   0    0.40   13.90
  13 -20   0   -6.00   10.20
 -20   7   0   -3.40   12.60
   7  13   0   -2.40   11.10
 -13  20   0    8.00   11.70
 -13  20   0   -9.00   12.90
  20  -7   0   -3.60    7.90
  -7 -13   0   17.10   11.90
  10  10   0   15.00    9.70
 -20  10   0   24.60   13.10
  10  10   0   30.60   11.70
 -10  20   0   -4.70   11.00
 -10 -10   0    8.40   12.00
 -10  20   0    7.80   11.00
 -10  20   0    3.00   12.70
  20 -10   0   11.20    7.80
 -20  13   0   -4.50   10.90
 -20  13   0   -4.50   15.00
  13   7   0  -23.80   11.90
  13   7   0   12.30    9.20
  13   7   0  -20.10   12.60
  20 -13   0   15.30    8.30
  -7  20   0    9.00   11.40
  -7  20   0   -6.40   13.40
 -13  -7   0   -1.10   12.50
  -7  20   0   -2.30   10.60
  16   4   0   25.00   14.10
 -20  16   0   25.90   16.40
 -20  16   0    0.50   16.20
  16   4   0    8.50    8.30
  20 -16   0   -0.90    9.10
  -4  20   0   18.90   12.00
  -4  20   0   25.90   10.50
 -16  -4   0    9.60   11.40
  -4  20   0    1.50   14.70
   6  15   0    1.20   11.00
 -21   6   0   10.00   12.80
   6  15   0    1.00   13.30
  -6 -15   0  -28.10   15.70
  21  -6   0   -1.80   10.60
   9  12   0   22.20   13.00
 -21   9   0    5.40   15.70
   9  12   0   16.60    9.70
 -21   9   0    7.20   12.80
 -12  21   0    2.20   20.00
  21  -9   0    8.80    8.90
  -9 -12   0   -7.70   13.30
  12   9   0    2.40   13.00
 -21  12   0   29.60   14.60
  12   9   0    7.80   12.50
 -21  12   0   58.79   25.10
 -12  -9   0   15.00   11.60
  -9  21   0    9.40   12.00
  -9  21   0    2.20   11.80
 -21  15   0  -28.30   16.10
  15   6   0   -7.10   13.90
 -21  15   0   15.00   14.50
  15   6   0   20.30   14.50
  -6  21   0   -3.60   14.20
  -6  21   0  -12.70   12.70
 -15  -6   0   17.30   21.50
 -22  11   0   14.90   13.10
  -2  -1  -1 1076.39   32.80
  -1   3  -1 1075.49   32.10
  -2  -1  -1 1077.59   32.10
  -1   3  -1 1121.79   33.00
  -1   3  -1 1051.19   33.00
  -2  -1  -1 1102.99   33.10
   3  -2  -1 1085.59   32.40
  -1   3  -1 1075.89   33.60
  -2  -1  -1 1130.09   32.60
   3  -2  -1 1145.09   32.50
  -2  -1  -1 1101.19   32.50
  -2  -1  -1 1081.69   32.70
  -3   2   1 1117.39   32.30
   2   1   1 1057.79   32.80
   1  -3   1 1147.69   33.80
   2   1   1 1098.19   32.80
  -3   2   1 1114.99   32.40
   2   1   1 1081.19   32.50
   1  -3   1 1152.18   32.30
   2   1   1 1091.59   32.10
  -3   2   1 1085.19   31.80
   2   1   1 1103.29   32.80
  -3   2   1 1081.49   33.90
   2   1   1 1111.39   31.90
   1  -3   1 1092.79   32.90
   1  -3   1 1047.20   33.00
   0  -2  -1    9.40    4.10
   0  -2  -1    7.50    3.00
  -2   2  -1    8.40    3.10
  -2   2  -1    2.40    2.30
   2   0  -1    5.10    2.80
   0  -2  -1    7.50    2.60
   0  -2  -1    8.00    3.60
   2   0  -1    2.40    3.10
   0  -2  -1    4.20    4.80
  -2   2  -1   15.30    4.60
   2   0  -1    5.30    4.50
   0   2   1   13.20    4.10
  -2   0   1   12.00    2.80
   2  -2   1    7.80    4.20
  -2   0   1    7.40    4.10
  -2   0   1   10.20    2.30
   2  -2   1    8.10    3.00
   2  -2   1    5.80    2.80
  -2   0   1    5.50    3.20
   0   2   1   13.40    3.40
   0   2   1    3.60    3.20
   0   2   1    4.10    2.60
   0   2   1   13.20    4.80
  -2   5  -1  252.27   13.80
  -3  -2  -1  242.78   10.80
  -2   5  -1  242.38   11.80
  -3  -2  -1  245.38   11.70
  -3  -2  -1  249.18   11.50
  -3  -2  -1  230.88   10.70
  -2   5  -1  243.38   10.50
  -3  -2  -1  265.87   12.80
  -2   5  -1  279.17   14.10
   5  -3  -1  245.38   11.00
  -5   3   1  256.67   12.00
   2  -5   1  276.07   13.80
   3   2   1  258.27   11.00
   2  -5   1  231.78    8.30
   3   2   1  246.68   11.80
   3   2   1  261.07   13.00
   3   2   1  233.58   10.30
  -5   3   1  265.57    9.50
  -5   3   1  233.08   10.30
  -5   3   1  246.68   10.30
   2  -5   1  249.68    9.70
   2  -5   1  243.68   10.90
  -5   3   1  257.07   15.80
   2  -5   1  249.38   14.60
  -3   1  -1 1719.13   47.60
   2  -3  -1 1694.53   48.10
  -3   1  -1 1699.63   48.00
   2  -3  -1 1649.83   47.50
   2  -3  -1 1615.94   47.50
   1   2  -1 1558.14   48.20
  -3   1  -1 1659.43   48.20
   1   2  -1 1660.53   47.30
  -3   1  -1 1610.04   49.10
  -2   3   1 1627.64   48.80
  -2   3   1 1617.34   47.40
  -1  -2   1 1624.74   47.20
   3  -1   1 1597.64   47.50
  -1  -2   1 1634.94   48.30
   3  -1   1 1617.44   47.70
  -1  -2   1 1683.03   48.30
  -2   3   1 1607.54   48.00
   3  -1   1 1645.34   49.40
  -2   3   1 1617.34   47.30
  -1  -2   1 1662.53   48.50
   3  -1   1 1701.13   48.10
   3  -1   1 1743.43   48.40
   4  -1  -1  160.78    7.80
  -3   4  -1  145.89   10.30
  -3   4  -1  171.38    8.20
  -3   4  -1  145.79    6.00
  -1  -3  -1  156.58   10.10
  -1  -3  -1  161.68    9.10
  -1  -3  -1  156.08    8.60
   4  -1  -1  157.28    7.30
   4  -1  -1  153.08   10.80
   4  -1  -1  155.88    7.10
  -1  -3  -1  162.88    9.40
  -1  -3  -1  166.28    7.70
  -4   1   1  145.49   10.50
   3  -4   1  154.68    6.50
   1   3   1  152.58    7.60
   1   3   1  161.58    9.30
   1   3   1  154.88    8.70
  -4   1   1  157.58    7.10
   1   3   1  155.48    8.90
   3  -4   1  154.88    5.70
  -4   1   1  169.28    7.70
   1   3   1  162.78    8.90
  -4   1   1  167.88    8.20
   3  -4   1  159.78   10.20
   3  -4   1  154.28    8.30
  -4  -3  -1   47.90    9.90
  -4  -3  -1   35.10    9.40
  -3   7  -1   37.20   13.60
   7  -4  -1   32.30    7.50
   7  -4  -1   43.40    8.30
  -3   7  -1   65.79   14.30
  -3   7  -1   32.60    9.00
  -4  -3  -1   25.60    9.10
  -3   7  -1   38.30    7.10
  -3   7  -1   29.00   11.30
  -4  -3  -1   35.60    8.30
  -4  -3  -1   37.40    7.90
  -7   4   1   33.60    6.30
   4   3   1   44.00    9.30
   4   3   1   37.50    7.30
   4   3   1   38.10    9.30
  -7   4   1   48.20    9.40
   4   3   1   36.20    8.30
   4   3   1   36.00    5.80
  -7   4   1   46.90    9.10
  -7   4   1   37.40    7.60
   3  -7   1   38.00    4.00
   3  -7   1   36.60    5.80
   3  -7   1   42.20   12.70
  -7   4   1   54.89   13.00
  -7   4   1   31.10    6.90
   4   3   1   37.00    8.10
   4   3   1   55.99   11.20
   3  -7   1   45.30    8.60
   4  -4  -1   79.19    6.70
   0   4  -1   93.29    8.60
  -4   0  -1   98.09    7.40
   4  -4  -1   74.19    6.50
   0   4  -1   94.79   10.10
  -4   4   1   76.99    6.30
   4   0   1  105.49   10.30
   4   0   1   91.99    8.10
   4   0   1   72.29    6.30
  -4   4   1   82.79    5.70
   4   0   1   83.69    7.30
   0  -4   1   95.59    8.00
   3   1  -1 2739.03   78.39
   3   1  -1 2606.44   80.19
  -4   3  -1 2894.51   79.09
   1  -4  -1 2776.92   80.79
  -4   3  -1 2849.61   80.69
   3   1  -1 2677.33   79.09
   1  -4  -1 2808.12   80.09
   3   1  -1 2884.11   80.09
   3   1  -1 2776.62   79.19
  -4   3  -1 2701.73   78.49
   1  -4  -1 2665.23   79.39
   3   1  -1 2645.74   79.19
   1  -4  -1 2835.92   78.29
  -3  -1   1 2786.12   79.09
  -1   4   1 2813.72   79.59
  -1   4   1 2590.84   79.89
   4  -3   1 2787.72   79.09
  -3  -1   1 2679.83   80.29
  -3  -1   1 2799.72   79.19
  -3  -1   1 2657.83   79.49
  -1   4   1 2731.53   80.49
   4  -3   1 2767.22   80.29
  -1   4   1 2826.12   78.29
  -1   4   1 2721.83   78.09
   4  -3   1 2763.32   78.59
   4  -3   1 2663.73   79.19
  -3  -1   1 2897.01   79.99
  -2  -4  -1  760.22   25.20
  -4   6  -1  750.32   25.00
   6  -2  -1  776.22   23.60
  -4   6  -1  727.63   26.90
   6  -2  -1  748.73   27.80
  -2  -4  -1  748.43   25.50
  -2  -4  -1  770.82   25.60
  -4   6  -1  729.83   21.70
  -4   6  -1  720.83   22.60
  -2  -4  -1  757.32   23.70
  -4   6  -1  759.62   26.70
   6  -2  -1  732.23   24.20
   6  -2  -1  752.02   23.80
  -4   6  -1  770.52   26.80
   4  -6   1  780.62   27.10
  -6   2   1  788.12   22.80
   2   4   1  729.03   24.80
   2   4   1  711.23   22.10
   2   4   1  753.52   24.90
  -6   2   1  770.02   24.00
  -6   2   1  741.03   27.10
   2   4   1  695.13   24.90
  -6   2   1  739.13   23.90
   4  -6   1  737.53   22.40
   4  -6   1  724.33   22.60
   2   4   1  702.63   23.50
   4  -6   1  742.23   24.50
   2   4   1  711.33   25.20
  -6   2   1  741.53   23.60
  -6   2   1  749.82   23.80
  -4   9  -1  112.89   10.50
  -5  -4  -1  101.59   13.40
   9  -5  -1   94.29   11.30
  -5  -4  -1  118.89   12.30
  -5  -4  -1  107.89   13.30
   9  -5  -1  117.79   11.10
  -4   9  -1   96.99   13.00
  -4   9  -1   83.89   14.50
   5   4   1  131.89   13.50
  -9   5   1  127.79   19.30
  -9   5   1  109.09   12.40
   4  -9   1  110.49    8.70
  -9   5   1   94.59    8.90
   5   4   1  103.19   11.80
   5   4   1  118.69    9.00
   5   4   1   98.29   11.60
   5   4   1  118.69   10.20
  -9   5   1  122.19   12.40
   5   4   1   97.79   17.00
  -9   5   1  121.19   12.40
   6  -5  -1   33.40    8.90
   6  -5  -1   40.50    6.50
  -5  -1  -1   47.90    5.90
  -1   6  -1   33.30   12.70
  -5  -1  -1   53.19   10.30
  -5  -1  -1   31.30    9.10
  -1   6  -1   26.10   11.10
  -1   6  -1   50.99   11.70
  -5  -1  -1   36.50    7.40
  -5  -1  -1   55.69    8.60
  -1   6  -1   34.50    9.00
  -1   6  -1   42.10    8.00
  -5  -1  -1   45.40    7.80
   6  -5  -1   44.60   11.70
   5   1   1   41.20    6.10
   5   1   1   59.39    8.70
   5   1   1   48.60    6.20
  -6   5   1   45.40    6.70
  -6   5   1   45.90    5.70
   5   1   1   40.10    8.20
   5   1   1   44.00   11.90
  -6   5   1   47.50    8.80
  -6   5   1   47.10    9.40
   1  -6   1   43.40   12.20
   1  -6   1   41.60    6.20
  -6   5   1   33.40    6.40
   5   1   1   36.20    8.00
  -5   2  -1    1.60    5.30
  -5   2  -1   12.00    5.20
   2   3  -1    8.50    8.40
  -5   2  -1    4.30    6.10
   3  -5  -1    2.80    4.50
  -5   2  -1    0.80    7.40
   3  -5  -1   13.60   10.60
   2   3  -1    5.60    6.50
   2   3  -1    4.70    6.40
   3  -5  -1    5.90    6.60
   3  -5  -1   14.10    4.90
  -5   2  -1   10.00   10.50
   2   3  -1    8.40    8.40
  -2  -3   1    3.00    6.10
  -3   5   1    5.40    8.00
  -3   5   1    1.70    4.60
  -2  -3   1    0.70    6.50
  -3   5   1   11.70    4.00
   5  -2   1    1.80    5.30
  -3   5   1    6.70    6.20
  -3   5   1   10.60    3.30
  -2  -3   1    9.50    3.80
   5  -2   1    6.40    6.00
  -2  -3   1    7.30    5.20
   5  -2   1    4.60    4.60
  -3   5   1    0.80    9.20
  -2  -3   1   -6.20    8.40
   0  -5  -1   74.29    6.50
  -5   5  -1   76.59   10.20
   0  -5  -1   72.59   10.30
   0  -5  -1   90.29   13.70
  -5   5  -1   73.49    7.40
  -5   5  -1   95.39   11.40
   0  -5  -1   62.19    8.00
   5   0  -1   60.29    6.90
   0  -5  -1   77.69    9.70
  -5   5  -1   66.59    6.50
   5   0  -1   92.59   12.20
   5   0  -1   71.49    6.10
  -5   0   1   82.79    8.10
  -5   0   1   68.99    8.20
  -5   0   1   75.39    6.40
   0   5   1   85.59    8.90
   5  -5   1   83.19    6.70
  -5   0   1   75.79   11.40
   5  -5   1   57.59   10.30
  -5   0   1   87.39    7.70
  -5   0   1   74.29    6.70
   5  -5   1   70.99    6.00
   0   5   1   62.99    6.20
   0   5   1   67.49    9.00
   0   5   1   87.29    9.70
  -3  -5  -1  420.06   16.80
  -5   8  -1  420.96   15.80
   8  -3  -1  432.66   26.30
   8  -3  -1  460.55   17.60
  -3  -5  -1  463.15   20.10
   8  -3  -1  462.45   16.30
  -5   8  -1  444.06   21.60
  -3  -5  -1  459.05   20.40
  -5   8  -1  418.06   21.20
  -5   8  -1  480.55   19.40
   8  -3  -1  444.76   17.50
  -8   3   1  483.95   17.60
   3   5   1  475.75   17.30
   5  -8   1  480.25   23.60
   3   5   1  422.76   18.60
  -8   3   1  449.56   18.30
   5  -8   1  475.95   18.30
  -8   3   1  458.35   22.30
  -8   3   1  486.45   17.60
  -8   3   1  425.56   17.70
   3   5   1  489.55   19.80
   5  -8   1  433.86   15.20
   3   5   1  437.86   20.00
  -8   3   1  480.15   16.20
   5  -8   1  440.26   15.30
   3   5   1  450.65   15.00
   3   5   1  463.55   18.10
  -6  -5  -1   26.60   13.10
  -5  11  -1   37.30   11.20
  -5  11  -1   30.80   14.50
  11  -6  -1   23.30   11.60
  11  -6  -1   20.30    5.40
  -6  -5  -1   29.20   14.10
 -11   6   1   19.70    7.60
   6   5   1   15.20   12.00
   5 -11   1   31.80    8.40
   5 -11   1   26.30    6.70
   6   5   1   32.40   12.30
 -11   6   1   24.50   12.30
 -11   6   1   29.90   12.90
 -11   6   1    8.70    9.50
   6   5   1   20.90    8.60
   6   5   1   33.10    6.20
   8  -6  -1   -2.40    7.30
  -2   8  -1   -2.70   12.10
  -2   8  -1  -19.50   17.50
  -2   8  -1   -2.60    8.70
  -6  -2  -1   -4.20    7.70
  -6  -2  -1   16.00   10.40
  -6  -2  -1   -2.50   10.20
  -6  -2  -1   -6.80    8.90
  -6  -2  -1   13.90   11.40
  -2   8  -1   29.20   15.90
   8  -6  -1    8.30   10.20
  -2   8  -1    0.30    8.90
   6   2   1    1.70    6.70
   6   2   1   15.70    8.90
   2  -8   1   -1.80    3.70
  -8   6   1    3.60    8.00
  -8   6   1   -0.10    7.90
   2  -8   1   -8.40    7.70
   2  -8   1   -2.20    9.50
   6   2   1    9.30   14.10
  -8   6   1  -19.90   10.70
  -8   6   1   20.30   11.20
   6   2   1   -0.80    9.40
   6   2   1    2.70    8.00
   2  -8   1   22.30   15.40
  -8   6   1   -5.70    6.00
   6   2   1    1.10    8.80
   1   5  -1  486.95   19.50
   1   5  -1  501.15   20.70
  -6   1  -1  530.65   18.50
   1   5  -1  516.85   19.50
   5  -6  -1  529.65   21.30
   1   5  -1  532.95   19.20
   5  -6  -1  525.05   18.30
   5  -6  -1  522.55   20.70
  -6   1  -1  522.05   17.50
   5  -6  -1  522.05   17.30
  -6   1  -1  489.55   21.80
  -6   1  -1  525.85   18.50
   6  -1   1  475.25   17.80
   6  -1   1  515.75   22.50
  -1  -5   1  498.95   16.80
   6  -1   1  499.35   16.00
  -5   6   1  518.15   16.30
  -5   6   1  526.25   18.10
   6  -1   1  479.25   17.50
  -5   6   1  538.75   17.00
  -5   6   1  515.55   16.30
   6  -1   1  490.95   18.70
  -1  -5   1  493.05   19.80
  -1  -5   1  491.65   15.20
   6  -1   1  542.25   18.90
  -5   6   1  488.05   19.70
  -1  -5   1  501.05   18.40
  -5   6   1  523.75   20.20
  -6   4  -1  321.47   15.20
  -6   4  -1  289.67   10.20
   4   2  -1  275.97   10.80
   2  -6  -1  278.87   14.50
   4   2  -1  273.87   15.00
   2  -6  -1  281.37   10.20
  -6   4  -1  302.57   10.30
   4   2  -1  265.77   12.80
   2  -6  -1  294.07    9.20
   4   2  -1  284.37   12.60
   4   2  -1  286.07   11.50
  -6   4  -1  307.77   11.90
   2  -6  -1  303.37   13.90
   2  -6  -1  322.17   16.50
  -6   4  -1  296.07   11.80
   2  -6  -1  303.67   12.30
  -2   6   1  297.77   15.00
  -4  -2   1  300.87   15.20
  -4  -2   1  311.67   11.20
   6  -4   1  292.57   13.90
   6  -4   1  291.87   12.00
   6  -4   1  298.07   10.10
  -2   6   1  302.67   12.30
   6  -4   1  285.67   11.70
  -4  -2   1  289.27   12.70
  -2   6   1  281.77    9.40
  -4  -2   1  292.97   12.60
   7  -1  -1   84.59    5.90
   7  -1  -1   71.59    8.40
  -6   7  -1   76.29    7.00
  -1  -6  -1   67.39    9.20
   7  -1  -1   69.79    8.10
   7  -1  -1   78.49   14.30
  -6   7  -1   86.19    9.40
  -1  -6  -1   64.29    7.70
  -1  -6  -1   68.09   12.10
  -1  -6  -1   84.59   15.30
  -6   7  -1   78.49   13.50
  -1  -6  -1   81.29   12.20
   7  -1  -1   78.89    8.50
  -6   7  -1   76.39   12.00
   1   6   1   64.39    7.80
   6  -7   1   85.09    7.50
   1   6   1   76.89   10.70
   1   6   1   62.79   11.20
   6  -7   1   88.69   12.50
   6  -7   1   75.89    8.50
  -7   1   1   86.89   11.20
  -7   1   1   87.69    8.90
   1   6   1   72.79   10.80
  -7   1   1   79.29   13.50
  -7   1   1   82.39   10.60
   1   6   1   86.69   11.30
  -4  -6  -1   15.40   11.00
  10  -4  -1   33.00    8.80
  -4  -6  -1   51.99   15.50
  -6  10  -1   17.60    8.30
  10  -4  -1   14.60    9.70
  -6  10  -1   11.10   14.30
  10  -4  -1   17.00    8.50
  -6  10  -1   23.60   11.50
   6 -10   1   12.00    6.20
 -10   4   1   20.60   16.50
 -10   4   1   22.80    8.90
   4   6   1   13.80   11.90
   4   6   1   26.90   10.30
 -10   4   1   25.00   10.50
   4   6   1   22.30    6.70
 -10   4   1   27.10   10.80
   4   6   1   12.90   12.80
   4   6   1   36.20   11.50
   6 -10   1   27.10    7.00
  -6  13  -1  -14.60    6.80
  13  -7  -1   -4.00    5.60
  -7  -6  -1  -10.90    7.40
  13  -7  -1    3.50   13.80
  -6  13  -1   11.80    6.90
  -6  13  -1   -3.90   11.90
 -13   7   1   -3.90    8.40
   7   6   1   -0.50   10.50
 -13   7   1  -11.60   11.50
   7   6   1    9.40   10.90
 -13   7   1    5.10   15.70
   6 -13   1    7.50    8.50
   6 -13   1   -6.90    9.30
 -13   7   1   14.80   13.50
  -3  10  -1   92.89   14.50
  -3  10  -1  123.09   12.90
  10  -7  -1  115.69   14.20
  10  -7  -1  106.39   11.50
  -3  10  -1   94.59   15.90
  -7  -3  -1  112.99   14.60
  -7  -3  -1   96.79   15.00
   7   3   1  114.59   10.40
   7   3   1  108.29   12.70
 -10   7   1   86.19   15.70
   7   3   1  125.79   14.10
 -10   7   1  101.99    9.00
   7   3   1  117.69   15.30
 -10   7   1  127.19   15.00
 -10   7   1   94.79    8.10
 -10   7   1  120.39   15.10
 -10   7   1  138.99   22.00
   7   3   1  115.39   12.20
   3 -10   1  113.99   11.20
   0   7  -1   10.40   10.30
   7  -7  -1    9.70   10.90
   7  -7  -1   -1.90    6.40
   7  -7  -1   14.60    7.60
  -7   0  -1    2.50   11.20
   0   7  -1   -4.70   11.60
   0   7  -1   -6.30    9.80
   0   7  -1  -11.60   12.20
  -7   0  -1   -5.10   10.60
  -7   0  -1  -11.90   10.20
  -7   0  -1   16.00    9.60
  -7   7   1   -0.10   10.70
  -7   7   1    3.90    6.70
   7   0   1    3.60    7.10
   7   0   1    1.10    8.80
   7   0   1    6.10    6.10
   7   0   1   -2.90    8.50
  -7   7   1    4.30    4.80
  -7   7   1    3.20    7.30
   7   0   1   10.80    8.60
   0  -7   1  -14.50   11.90
  -7   7   1   -3.30   11.40
   0  -7   1   -0.10    7.30
   0  -7   1   -4.40    9.50
  -7   7   1   -4.20    7.00
   0  -7   1    1.10    5.30
   7   0   1    9.30   14.00
   3   4  -1    4.70    8.50
   3   4  -1    0.20    5.40
   4  -7  -1    8.80   13.60
  -7   3  -1    4.90    6.10
   4  -7  -1   10.00    5.60
  -7   3  -1   12.90    7.90
   4  -7  -1    3.00    5.30
   3   4  -1   16.90    8.00
   3   4  -1   -4.80    8.20
  -7   3  -1    0.40    6.20
   4  -7  -1    7.40    8.00
  -7   3  -1   -4.40    8.30
   3   4  -1   -6.60   10.40
  -7   3  -1   -0.50   12.70
  -3  -4   1   -7.30    8.10
  -4   7   1    2.60   10.10
  -3  -4   1    4.30    6.40
  -4   7   1    5.50    8.50
  -4   7   1   15.50   10.50
   7  -3   1   12.40    7.50
  -3  -4   1    6.80    4.10
   7  -3   1    2.50    8.20
  -4   7   1   11.70   10.20
  -3  -4   1   -5.40   10.90
  -3  -4   1   -0.70    7.80
  -4   7   1    3.50    4.30
  -4   7   1    3.60    4.00
   7  -3   1   -6.60    5.60
   7  -3   1   10.00    6.40
   1  -7  -1  282.87   15.70
   1  -7  -1  290.97   13.70
  -7   6  -1  313.77   17.20
   6   1  -1  312.07   12.70
  -7   6  -1  311.27   12.60
  -7   6  -1  314.77   16.00
   6   1  -1  296.07   18.30
   1  -7  -1  274.27   16.00
  -7   6  -1  304.07   12.70
   1  -7  -1  306.07   10.80
   6   1  -1  323.27   15.10
   6   1  -1  291.37   13.10
   6   1  -1  293.67   12.40
  -6  -1   1  297.57   16.50
  -1   7   1  268.27   16.30
  -1   7   1  324.77   14.50
  -6  -1   1  304.17   15.60
  -1   7   1  279.27   10.90
  -6  -1   1  304.27   14.50
   7  -6   1  295.27   12.30
  -1   7   1  278.17   15.30
  -6  -1   1  317.67   12.40
   7  -6   1  298.77   11.70
  -1   7   1  284.27   16.70
   7  -6   1  296.37   12.30
  -6  -1   1  306.37   13.10
   7  -6   1  284.37   16.90
   9  -2  -1    8.50    8.10
  -7   9  -1   -4.20    5.50
  -2  -7  -1   -6.50    8.60
  -2  -7  -1   -6.90   13.00
  -7   9  -1    7.20    5.40
  -7   9  -1    5.70    9.90
  -7   9  -1   -6.40   13.60
   9  -2  -1   -3.50    8.60
  -2  -7  -1    3.90   14.70
   9  -2  -1    1.60    9.00
   7  -9   1   -7.60    8.20
   2   7   1   15.30    8.40
   2   7   1   -2.90   15.00
   2   7   1   -5.20    4.50
   2   7   1   -5.30   11.30
   2   7   1   13.60   13.30
  -9   2   1    4.30    9.40
  -9   2   1   -4.60   15.90
   7  -9   1    7.40    6.70
   2   7   1   -6.60   10.80
  12  -5  -1   23.70   11.30
  12  -5  -1   27.60    9.70
  -7  12  -1   16.60    9.90
  12  -5  -1   27.00    5.40
  -7  12  -1   13.00    8.20
  -5  -7  -1   15.80    6.00
   5   7   1   24.00    7.60
 -12   5   1   15.50   12.50
   5   7   1   36.70   13.00
 -12   5   1   23.90   13.30
   5   7   1   29.60    9.00
   5   7   1    6.60   13.50
   5   7   1   16.20    5.40
   7 -12   1   22.30    8.80
 -12   5   1   18.00   10.70
 -12   5   1   42.30   10.60
  -8  -7  -1  107.49   11.70
  -7  15  -1   98.99   11.60
  15  -8  -1  123.99    9.00
  -7  15  -1  126.09   16.80
   8   7   1  132.99   14.40
   8   7   1  114.89    9.60
 -15   8   1   87.49   19.70
   8   7   1  105.29   11.30
   7 -15   1   84.39   11.80
   8   7   1  127.49   15.30
 -15   8   1  100.29   14.90
 -15   8   1   84.19   18.90
 -15   8   1   86.99   12.90
  -4  12  -1    6.20    8.10
  12  -8  -1   18.40   15.90
  12  -8  -1    4.10    5.60
  -4  12  -1   -4.30   12.70
 -12   8   1   -3.20   18.10
 -12   8   1    2.30    8.80
   8   4   1   10.50    8.90
   8   4   1   11.50   13.90
   8   4   1   -1.40   10.20
 -12   8   1   17.10   10.30
 -12   8   1    2.90   16.40
  -1   9  -1  657.23   27.00
   9  -8  -1  710.23   29.00
  -1   9  -1  716.93   30.70
   9  -8  -1  672.73   24.00
  -8  -1  -1  664.53   28.30
  -1   9  -1  740.13   26.00
   8   1   1  724.13   24.10
  -9   8   1  685.33   21.70
   8   1   1  678.43   25.10
   8   1   1  698.33   25.70
  -9   8   1  707.33   28.00
   1  -9   1  651.43   28.40
   1  -9   1  658.13   21.70
  -9   8   1  677.33   23.30
  -9   8   1  707.13   21.40
   8   1   1  646.84   23.70
   8   1   1  734.53   25.20
  -8   2  -1    5.80    9.20
  -8   2  -1    4.70    8.50
   2   6  -1  -11.50    9.90
  -8   2  -1   13.00   14.30
   6  -8  -1    0.10    6.70
   2   6  -1    0.90   12.40
   2   6  -1   -3.00    6.90
  -8   2  -1   -0.70   10.40
   2   6  -1    2.40   10.20
   2   6  -1   24.70   10.90
  -8   2  -1   -0.10    8.80
   6  -8  -1    7.30    9.10
  -2  -6   1    2.10    3.60
   8  -2   1   16.10    9.00
  -2  -6   1    1.30   10.30
   8  -2   1    1.70    3.60
  -6   8   1   -1.10    8.10
  -2  -6   1    6.60   11.30
  -6   8   1    3.40    6.50
  -2  -6   1   -0.10   11.80
   8  -2   1   11.50    7.30
   8  -2   1   -0.90   19.50
  -2  -6   1    1.70    7.30
   8  -2   1    4.50    8.30
  -6   8   1    1.40    5.80
  -6   8   1    6.70    5.30
   5   3  -1   13.00    8.70
   5   3  -1   17.40    7.00
   3  -8  -1   14.10    7.50
  -8   5  -1    5.90    8.30
   3  -8  -1   13.10   13.30
  -8   5  -1    4.60   16.10
  -8   5  -1    1.20   11.30
   5   3  -1    2.60    8.70
   5   3  -1   11.40    6.80
  -8   5  -1    8.70   11.40
  -8   5  -1    8.60    5.70
  -8   5  -1   12.40    4.80
   3  -8  -1   -2.40   13.40
   3  -8  -1   11.00    5.90
   5   3  -1    2.70   12.60
  -8   5  -1   -1.90    8.10
   3  -8  -1  -12.10    9.50
   5   3  -1   -9.70    9.60
  -3   8   1   36.50   13.30
  -5  -3   1   16.70    9.20
  -5  -3   1   -1.00    5.70
  -5  -3   1    7.40    9.20
   8  -5   1   21.70    7.20
   8  -5   1    4.60    4.00
   8  -5   1   26.40   10.40
  -3   8   1   36.20   12.90
   8  -5   1   15.20    4.80
  -3   8   1   -6.30   14.80
  -3   8   1    0.30    9.50
  -3   8   1   10.10    8.00
  -5  -3   1   -5.00   11.20
   8  -5   1    7.80    8.50
  -5  -3   1    7.20   10.40
   8   0  -1   -3.90    8.60
   0  -8  -1  -20.20   15.30
   8   0  -1    2.50    8.10
  -8   8  -1  -13.40   16.90
  -8   8  -1   17.50    7.90
   8   0  -1   10.80    8.20
   0  -8  -1    8.40   13.60
   8   0  -1    1.50    6.70
  -8   8  -1   -2.40    9.10
   0  -8  -1    7.60    6.70
  -8   8  -1    6.60   12.90
  -8   0   1    1.70    8.60
   0   8   1   21.20   10.10
   0   8   1   11.20   14.20
  -8   0   1   12.30    8.70
  -8   0   1   17.20   13.60
   0   8   1    6.70    6.80
  -8   0   1   -5.90   13.30
   8  -8   1    5.10   14.90
   8  -8   1   -1.70    7.10
   0   8   1   18.60   15.10
  -8  11  -1   37.60    8.50
  -3  -8  -1   47.90   16.70
  -3  -8  -1    0.90   19.20
  -8  11  -1   35.20    7.20
  -8  11  -1   49.40   13.10
  11  -3  -1   27.80   11.00
  -3  -8  -1   36.20   11.70
  11  -3  -1   43.70   10.60
  11  -3  -1   27.60    5.50
   8 -11   1   38.70    6.60
   3   8   1   37.00    7.20
   3   8   1   49.60   19.40
 -11   3   1   46.20    9.50
   3   8   1   32.70    5.20
 -11   3   1   47.80   12.00
   3   8   1   42.00   10.90
   8 -11   1   56.19    9.20
 -11   3   1   40.00   16.10
  14  -6  -1   31.20   11.30
  -6  -8  -1   32.60    9.50
  -8  14  -1   39.10    8.30
  14  -6  -1   38.90   14.10
  -8  14  -1   32.00   12.20
  -8  14  -1   35.90    8.40
  14  -6  -1   44.40    6.30
 -14   6   1   41.30   14.60
 -14   6   1   35.00   17.30
   8 -14   1   34.10   10.80
   6   8   1   45.10   12.00
   6   8   1   40.10    9.50
   8 -14   1   34.60    7.90
   6   8   1   -0.40   24.50
 -14   6   1   21.70   13.30
  -8  17  -1   35.00    9.10
  -9  -8  -1   53.19   12.00
  -8  17  -1   74.99   20.60
  -8  17  -1   44.50   10.70
  17  -9  -1   47.50    7.60
   9   8   1   41.60    7.60
   9   8   1   44.10   20.20
   8 -17   1   29.00   12.40
   9   8   1   46.90   10.40
 -17   9   1   18.80   21.30
  -9  -5  -1   -2.50    6.30
  -5  14  -1    3.10    7.20
  -5  14  -1   -6.70   15.00
   9   5   1    8.40   10.10
 -14   9   1    4.00    9.80
 -14   9   1    9.00   19.60
   9   5   1   11.70    6.70
 -14   9   1    1.70   11.10
   9   5   1    6.50   13.80
  -2  11  -1  147.19   10.40
  -9  -2  -1  129.39   10.30
  -2  11  -1  161.38   12.20
  11  -9  -1  160.48    8.20
 -11   9   1  179.58   16.80
   9   2   1  159.18   14.10
   9   2   1  181.48   14.90
 -11   9   1  162.18   19.80
   9   2   1  145.29    9.50
 -11   9   1  138.09   11.90
   2 -11   1  158.98    8.10
  -9   1  -1    8.30   11.90
   8  -9  -1   -4.60    8.20
   1   8  -1  -11.60   12.40
  -9   1  -1    5.60   11.50
   8  -9  -1   28.40    9.80
   1   8  -1   -9.90   16.40
  -9   1  -1   -4.20   14.90
   1   8  -1   11.10   11.60
  -8   9   1   12.80    7.90
  -1  -8   1    8.50    7.50
   9  -1   1  -11.40   11.30
  -1  -8   1   41.00   15.50
   9  -1   1   16.30    9.40
   9  -1   1   14.10   11.50
  -8   9   1   11.70    5.60
  -8   9   1    7.70    9.40
  -8   9   1   15.80   13.30
   9  -1   1   -6.10    9.30
  -8   9   1   10.10   10.20
   9  -1   1   17.50    6.60
   5  -9  -1   -2.30    6.70
   4   5  -1    4.60    6.90
   5  -9  -1  -16.10   14.40
   4   5  -1   10.20   10.10
  -9   4  -1   14.60   10.70
   4   5  -1   -3.20    9.30
   5  -9  -1    7.80    6.20
   4   5  -1    2.50   10.30
  -9   4  -1   18.00    8.00
   5  -9  -1   -5.80   11.60
  -9   4  -1   -4.30   12.90
  -9   4  -1    0.20   11.00
  -9   4  -1   16.30   15.10
  -4  -5   1   -6.40    5.00
   9  -4   1   10.60    6.70
  -5   9   1    4.60   12.30
  -4  -5   1   12.40   11.80
  -5   9   1   -7.00    9.10
  -5   9   1    2.10    7.20
   9  -4   1   -1.40    7.90
  -4  -5   1  -11.10   13.20
  -4  -5   1    7.00    8.60
   9  -4   1    7.90    9.30
  -5   9   1   -1.20    5.60
  -5   9   1  -17.00   17.90
  -9   7  -1   17.00   14.40
  -9   7  -1   19.50   13.60
  -9   7  -1   12.50   10.30
   7   2  -1   10.10    8.80
   7   2  -1   -1.90    7.70
   2  -9  -1   14.00    4.80
   7   2  -1    9.30    9.20
   7   2  -1   11.50   11.50
   2  -9  -1   11.10    9.60
   2  -9  -1    9.80   16.50
   2  -9  -1    3.80   14.90
  -9   7  -1   16.90    7.40
  -7  -2   1   16.60    8.00
  -2   9   1   11.70   12.50
   9  -7   1    1.80   13.20
  -7  -2   1   20.50   13.00
  -2   9   1   34.70   17.10
  -7  -2   1    6.80   10.30
  -2   9   1   14.50   10.30
   9  -7   1   16.00    8.10
   9  -7   1    9.60    6.30
  10  -1  -1  402.86   19.50
  -1  -9  -1  436.56   16.70
  -9  10  -1  433.06   16.10
  -9  10  -1  439.46   19.70
  10  -1  -1  422.86   15.20
  10  -1  -1  413.56   19.30
  10  -1  -1  435.06   18.20
  -9  10  -1  414.56   23.90
   1   9   1  399.96   16.30
   9 -10   1  418.26   17.20
 -10   1   1  427.96   19.50
 -10   1   1  440.26   17.60
  13  -4  -1    6.30   12.10
  -9  13  -1    0.20    7.70
  -4  -9  -1   17.00    9.30
  -9  13  -1   13.90    9.10
  13  -4  -1    4.80   12.30
  13  -4  -1    9.60    5.60
   9 -13   1   17.10   10.80
   4   9   1   25.10    7.00
 -13   4   1   14.30   13.90
   4   9   1    6.70    9.40
 -13   4   1    3.10    7.70
   9 -13   1    8.90    7.10
   4   9   1   12.70    6.80
  -7  -9  -1  150.38   12.20
  16  -7  -1  142.79    9.80
  -9  16  -1  151.58   16.50
 -16   7   1  113.59   18.00
   9 -16   1  125.19   11.20
   7   9   1  123.19   15.80
   7   9   1  151.08   11.50
   9 -16   1  132.49   14.10
 -16   7   1  129.19   19.80
 -16   7   1  168.38   14.50
   7   9   1  148.99   10.80
  -9  19  -1   23.50   11.60
  -9  19  -1    4.50   10.60
  19 -10  -1    7.80    8.00
 -10  -9  -1    2.60   10.30
  -9  19  -1    7.60   10.30
 -19  10   1   -3.50   13.90
  10   9   1   16.00   20.10
 -19  10   1   16.00   13.00
  10   9   1  -10.80   10.50
 -10  -6  -1   12.70    9.80
  16 -10  -1   27.90    7.10
  -6  16  -1   23.30   10.70
  -6  16  -1   23.10    8.70
  10   6   1   29.50    8.90
  10   6   1   26.10    7.60
 -16  10   1   20.90   10.70
  10   6   1   29.80   11.10
 -16  10   1   22.70   13.70
 -16  10   1   34.50   11.40
  -3  13  -1   -5.00    6.90
  -3  13  -1    8.40    7.10
  -3  13  -1    7.80    8.70
 -10  -3  -1    4.00    7.90
  13 -10  -1   -2.00    5.20
  10   3   1    0.00    5.80
 -13  10   1    6.40   20.10
  10   3   1    7.70   15.00
 -13  10   1   11.70    8.40
   3 -13   1   -1.50   10.30
  10   3   1   -0.90    6.10
  10 -10  -1   39.20   11.30
   0  10  -1   60.79    8.40
 -10   0  -1   42.30   14.30
  10 -10  -1   49.80   11.50
   0  10  -1   52.19    8.10
 -10  10   1   42.60   10.90
 -10  10   1   43.00   11.50
  10   0   1   58.09   10.30
 -10  10   1   38.30    6.00
  10   0   1   48.30    6.80
   0 -10   1   47.20    8.40
 -10  10   1   65.29   18.30
   0 -10   1   55.49    8.00
  10   0   1   37.90   12.90
  10   0   1   39.20   11.90
   7 -10  -1  571.84   20.80
   3   7  -1  561.04   24.10
   3   7  -1  612.94   23.80
 -10   3  -1  568.04   23.10
 -10   3  -1  595.44   28.70
   7 -10  -1  569.54   24.00
 -10   3  -1  625.34   23.70
   3   7  -1  604.84   24.90
 -10   3  -1  600.74   20.70
   7 -10  -1  607.44   20.70
  10  -3   1  575.14   21.20
  -7  10   1  607.94   20.50
  10  -3   1  621.34   24.00
  -7  10   1  594.44   18.50
  -7  10   1  588.74   28.70
  -7  10   1  610.24   24.10
  -3  -7   1  596.34   26.80
  -7  10   1  625.04   20.80
  10  -3   1  598.74   21.90
  10  -3   1  576.34   23.40
   4 -10  -1   77.99   10.00
 -10   6  -1   68.49    7.80
   6   4  -1   73.29   12.80
 -10   6  -1   81.39   18.80
   6   4  -1   62.99    9.70
 -10   6  -1   70.49   13.40
   6   4  -1   61.59   11.00
   6   4  -1   65.99   12.40
 -10   6  -1   81.09   14.00
   6   4  -1   68.29    8.90
  -6  -4   1   77.99   14.60
  -4  10   1   68.89   16.30
  -6  -4   1   78.29    8.50
  10  -6   1   76.09   13.60
  10  -6   1   77.19   11.10
  -6  -4   1   45.80   13.80
  -4  10   1   81.69   13.80
  10  -6   1   78.59   10.10
  -4  10   1   78.09   10.80
   9   1  -1   44.90   12.30
   9   1  -1   49.70   10.30
 -10   9  -1   67.49   11.10
   9   1  -1   41.90   11.60
   1 -10  -1   15.80   21.60
   9   1  -1   65.79   10.50
   1 -10  -1   55.59    7.50
 -10   9  -1   48.90   10.70
 -10   9  -1   64.19   19.20
  10  -9   1   36.40    9.90
  -9  -1   1   36.30    6.30
  -9  -1   1   44.70   11.60
  -1  10   1   39.50    6.70
  -1  10   1   24.10   12.50
  10  -9   1   53.39    9.30
  -2 -10  -1   88.79   12.30
  -2 -10  -1  101.29   12.00
 -10  12  -1  110.99    9.60
 -10  12  -1  102.89   13.40
 -10  12  -1   80.39   15.10
  12  -2  -1   82.49   12.50
  12  -2  -1   92.59    8.60
  12  -2  -1  115.19   12.50
   2  10   1  119.89    9.30
  10 -12   1  107.09   13.50
   2  10   1  103.89    8.70
 -12   2   1  108.39   10.80
 -12   2   1   99.49   15.10
  15  -5  -1   26.40    7.10
  15  -5  -1   51.69   13.00
 -10  15  -1   21.60   10.90
  15  -5  -1   19.20   14.00
 -10  15  -1   42.70    9.40
 -10  15  -1   30.90    8.20
   5  10   1   31.80   12.00
  10 -15   1   30.00   13.80
   5  10   1   37.70    8.20
   5  10   1   40.30    8.00
 -15   5   1   19.80   15.60
 -15   5   1   18.40    9.80
 -10  18  -1    1.40    9.40
  18  -8  -1  -14.10    6.50
 -10  18  -1   -6.40    9.40
  -8 -10  -1   20.40   10.10
 -10  18  -1   -8.60   16.80
 -18   8   1   -8.70   22.90
   8  10   1    5.10   11.40
   8  10   1   -0.80    7.20
 -18   8   1    2.40   10.20
  10 -18   1  -16.60   15.50
   8  10   1   -8.10   18.80
 -11 -10  -1   13.70   13.40
 -10  21  -1   -0.80   14.70
  21 -11  -1  -12.90    9.20
  11  10   1   -8.60   12.40
  18 -11  -1   13.70    7.70
  -7  18  -1   22.40    8.30
  -7  18  -1   -0.70    9.20
  -7  18  -1   21.20   11.10
  11   7   1   21.70   10.30
 -18  11   1    3.70   10.00
  11   7   1   17.40   11.40
 -18  11   1   38.70   13.60
  -4  15  -1   65.09    9.80
 -11  -4  -1   50.39    8.90
  15 -11  -1   48.40    7.00
  -4  15  -1   43.50    8.50
 -15  11   1   58.89    9.70
 -15  11   1   77.99   15.20
  11   4   1   97.39   25.90
 -11  -1  -1   46.20    8.30
  -1  12  -1   51.79    7.10
  -1  12  -1   53.69    9.40
 -12  11   1   43.10    9.80
  11   1   1   60.39    8.00
 -12  11   1   49.30   15.30
 -12  11   1   37.70   12.60
   1 -12   1   37.50   13.40
 -12  11   1   35.30    5.90
   1 -12   1   57.79    8.30
   2   9  -1    9.10    6.90
 -11   2  -1   18.80    8.80
   9 -11  -1   34.00   13.90
   9 -11  -1    0.90   10.10
 -11   2  -1   25.60   13.40
  -2  -9   1    3.60    9.50
  11  -2   1   -6.60   10.70
  11  -2   1    8.70    5.60
  -9  11   1   10.30    7.80
  -9  11   1   12.50   12.10
  11  -2   1   15.60   11.90
  -9  11   1    7.10    7.50
  11  -2   1    9.10    6.10
  -2  -9   1   -2.90    6.80
 -11   5  -1   81.79   15.00
 -11   5  -1   90.29   10.60
 -11   5  -1   84.89   10.40
 -11   5  -1  109.89   13.50
   5   6  -1  104.89   15.20
   6 -11  -1   72.99   10.00
   5   6  -1   83.49   12.30
   6 -11  -1  102.49    9.20
  -6  11   1   60.29   13.90
  11  -5   1   85.49   12.10
  11  -5   1   94.59   13.90
  11  -5   1   95.69    9.40
  -5  -6   1   77.99    9.60
  11  -5   1   80.99    6.60
  -6  11   1   89.89   11.10
 -11   8  -1   59.49   20.70
 -11   8  -1   45.30   18.10
   8   3  -1   54.79   10.80
   3 -11  -1   30.40   11.50
   8   3  -1   53.09   12.30
   8   3  -1   49.30   11.30
 -11   8  -1   43.60    7.60
  -8  -3   1   40.10   15.40
  -3  11   1   39.70    7.60
  -8  -3   1   49.80    8.90
  11  -8   1   60.39    5.30
  11  -8   1   51.49    7.70
  -3  11   1   57.59   13.30
  -3  11   1   50.69    8.70
   0 -11  -1  283.77   14.70
   0 -11  -1  288.17   13.10
  11   0  -1  242.88   15.30
 -11  11  -1  270.07   16.70
  11   0  -1  256.57   12.70
 -11  11  -1  256.37   16.00
  11   0  -1  247.68   14.50
  11   0  -1  279.37   12.20
 -11  11  -1  276.47   15.20
   0  11   1  268.37   13.00
  11 -11   1  292.27   11.20
  11 -11   1  256.97   15.40
 -11   0   1  280.87   13.90
 -11  14  -1   12.80    9.80
 -11  14  -1   11.50    8.40
  14  -3  -1   31.40    6.90
  -3 -11  -1    6.80   10.20
 -11  14  -1   24.00    8.00
   3  11   1   44.00    7.90
 -14   3   1   23.30    9.80
 -14   3   1   47.50   16.20
  11 -14   1   25.40    5.50
   3  11   1   33.30    8.20
  -6 -11  -1   52.29   11.90
  17  -6  -1   41.20    7.40
 -11  17  -1   68.19   10.50
 -11  17  -1   42.00   10.20
  17  -6  -1   57.29    9.00
 -17   6   1   73.49   20.00
   6  11   1   59.09    9.90
   6  11   1   47.40   16.40
 -17   6   1   49.10   11.70
 -11  20  -1   -5.40   11.10
  -9 -11  -1  -17.40   11.90
 -11  20  -1   16.40   20.10
 -11  20  -1   -9.10   10.60
  20  -9  -1   11.30    8.40
   9  11   1    3.00   14.70
 -20   9   1   27.60   14.20
 -20   9   1    1.90   12.90
   9  11   1   -3.80   10.30
  -8  20  -1   14.40   10.70
  -8  20  -1    4.30   11.90
  20 -12  -1  -12.50    8.40
 -20  12   1    3.30   12.40
  12   8   1   -2.90   11.90
 -20  12   1    7.30   15.00
  12   8   1  -17.20   11.60
  12   8   1    0.30    9.60
  -5  17  -1   42.40   11.30
  17 -12  -1   45.20    8.20
  -5  17  -1   26.80    9.80
  12   5   1   34.80    8.50
 -17  12   1   40.50   11.60
  -2  14  -1   -4.00    7.80
  14 -12  -1    8.90    5.70
  12   2   1    3.50    7.70
   2 -14   1   -4.70   12.20
  12   2   1    3.60   14.90
 -14  12   1   25.30   13.60
  12   2   1  -12.20    7.20
 -14  12   1   -5.00   12.30
   2 -14   1    1.00    7.00
 -14  12   1   18.40   11.40
   1  11  -1  127.09    9.10
  11 -12  -1  132.99    8.20
 -12   1  -1  116.09   10.80
   1  11  -1  127.19   12.30
   1  11  -1  133.19   10.20
  -1 -11   1  125.89   11.40
  12  -1   1  110.79    8.00
  -1 -11   1  134.99   12.40
  12  -1   1  132.09   11.10
  12  -1   1  144.39   15.60
 -11  12   1  122.39   15.20
 -11  12   1  152.58   13.50
  12  -1   1  132.19    7.80
   4   8  -1  207.48   19.30
   8 -12  -1  199.88   14.60
 -12   4  -1  210.88   16.20
   8 -12  -1  170.48   11.90
 -12   4  -1  203.78   13.90
 -12   4  -1  202.38   15.70
  -8  12   1  204.38   17.60
  12  -4   1  201.48   17.50
  12  -4   1  183.88   10.00
  12  -4   1  195.28   13.90
  -8  12   1  206.08   13.50
  -4  -8   1  164.88   12.20
   5 -12  -1   14.50    9.50
   7   5  -1   22.70   11.10
   7   5  -1   17.10   13.90
   7   5  -1   13.30    7.80
   5 -12  -1   18.90   11.80
 -12   7  -1   14.30   15.50
   7   5  -1   21.00   13.90
   7   5  -1   11.80    9.20
 -12   7  -1   14.00    9.20
 -12   7  -1   20.90   10.10
 -12   7  -1   17.20   16.70
  -5  12   1    7.30    7.00
  -5  12   1   29.80   12.30
  -7  -5   1   16.20    7.70
  -7  -5   1   26.00    8.70
  -5  12   1   28.10    8.40
  10   2  -1    9.60    6.90
   2 -12  -1   18.20   10.50
 -12  10  -1   25.40    9.30
  10   2  -1   11.70    5.30
  10   2  -1   12.00   12.40
 -12  10  -1    8.00    9.80
  10   2  -1   18.30   11.10
   2 -12  -1   23.50    6.30
  -2  12   1   27.00    7.60
  -2  12   1   13.60    6.90
  -2  12   1    8.00    8.90
  12 -10   1   13.70    9.10
 -10  -2   1   32.10   15.40
  12 -10   1   18.20    5.80
 -12  13  -1   11.30   10.90
  13  -1  -1   53.29   12.00
  13  -1  -1   21.50    6.90
  13  -1  -1   37.60    8.70
  -1 -12  -1   25.70   10.70
 -12  13  -1   18.10   15.30
  13  -1  -1   38.10    8.20
 -12  13  -1    9.60    9.50
  12 -13   1   28.50    6.70
 -12  16  -1   33.70   11.80
  16  -4  -1   46.20    7.50
  16  -4  -1   53.59    7.60
  16  -4  -1   66.29   14.90
  -4 -12  -1   23.10   10.70
 -16   4   1   23.90   10.40
 -16   4   1   34.10   18.30
   4  12   1   62.89    9.10
   4  12   1   41.70    7.90
  12 -16   1   43.30    7.80
 -12  19  -1    5.50   16.70
 -12  19  -1  -20.40   10.20
 -12  19  -1   -0.10   10.70
  19  -7  -1   15.00    7.40
 -19   7   1  -20.70   28.00
   7  12   1  -10.70   11.20
 -19   7   1    2.10   11.10
   7  12   1   14.10    9.20
  12 -19   1    1.10   10.60
 -22  10   1    4.00   14.90
  -6  19  -1    5.90   11.90
  -6  19  -1   13.80   11.00
  -6  19  -1    4.80    9.60
 -13  -6  -1  -12.10   11.60
 -19  13   1   25.50   14.50
 -19  13   1    8.00   11.50
  13   6   1   -8.40   11.50
  13   6   1    4.90    9.10
  13   6   1   28.10   11.90
  -3  16  -1   15.80    8.30
  16 -13  -1    1.70    7.30
  -3  16  -1   -3.80    9.90
 -13  -3  -1  -10.60    8.80
  13   3   1    8.40   18.70
   3 -16   1  -29.10   14.10
 -16  13   1   -1.30   13.90
  13   3   1   13.80    9.20
 -16  13   1   -7.80   11.00
 -16  13   1   13.90   12.00
   0  13  -1   23.70    8.60
  13 -13  -1   23.30    6.90
   0  13  -1   47.70    8.50
 -13   0  -1   41.00    9.40
   0  13  -1   41.10    9.50
   0 -13   1   17.10   12.30
 -13  13   1   29.30   14.60
 -13  13   1   37.00   11.30
 -13  13   1   41.10   16.80
  13   0   1   44.10    7.50
  13   0   1   35.90    7.90
   0 -13   1   27.60    9.90
  13   0   1   43.30   12.50
   3  10  -1   73.79    8.70
 -13   3  -1   67.19   11.10
 -13   3  -1   63.99   16.60
   3  10  -1   68.49    8.10
  10 -13  -1   60.39   13.90
 -10  13   1   66.99    9.80
 -10  13   1   64.39   15.40
  13  -3   1   83.19   17.40
  -3 -10   1   71.99    9.70
 -10  13   1   71.49    9.60
 -10  13   1   81.39    8.50
  13  -3   1   63.69   13.80
 -10  13   1   80.89   10.50
  13  -3   1   64.19    6.70
 -13   6  -1  145.49   13.70
   7 -13  -1  112.79   12.80
   6   7  -1  157.98    9.80
   7 -13  -1  132.09   10.90
 -13   6  -1  153.58   11.30
 -13   6  -1  153.18   15.40
 -13   6  -1  134.89   18.30
   6   7  -1  133.89   10.50
   6   7  -1  145.69   14.10
   6   7  -1  110.69   14.20
  -7  13   1  128.69   11.40
  -7  13   1  125.29   11.70
  -6  -7   1  116.49   10.70
  -7  13   1  156.38   14.30
  13  -6   1  128.89    8.20
   9   4  -1   20.20    6.30
 -13   9  -1   16.50    6.60
   9   4  -1   14.20   15.00
 -13   9  -1   17.30   10.00
 -13   9  -1   -2.60   16.90
   4 -13  -1   -3.90   12.70
 -13   9  -1   11.60    7.40
   9   4  -1   22.40   13.90
  13  -9   1   18.20    5.20
  -9  -4   1    5.90    6.40
  -4  13   1    3.30   14.20
  12   1  -1   38.80   13.50
   1 -13  -1   43.40    8.70
  12   1  -1   57.39   12.70
 -13  12  -1   66.29   13.60
   1 -13  -1   65.89   13.40
  12   1  -1   58.49    7.90
  12   1  -1   60.79    8.40
  -1  13   1   57.69    8.80
  13 -12   1   71.29   12.40
  -1  13   1   52.19   10.60
  13 -12   1   73.89    7.50
  -1  13   1   77.49    9.60
 -13  15  -1   15.20   10.20
 -13  15  -1   14.80   12.40
  15  -2  -1   15.00    6.20
  15  -2  -1   10.60   13.40
  -2 -13  -1   23.20   12.10
 -13  15  -1   -7.60   10.20
  13 -15   1   10.60    6.90
   2  13   1   10.40    7.80
 -15   2   1   21.80   11.20
 -13  18  -1   13.00   11.70
  -5 -13  -1   22.50   12.80
  18  -5  -1   -3.70    7.20
 -18   5   1   13.20   11.70
 -18   5   1   -3.70   23.90
   5  13   1    6.20   10.10
   5  13   1    6.90    9.00
  13 -18   1    5.50    9.20
 -13  21  -1   17.60   13.80
 -21   8   1    7.50   13.50
   8  13   1   24.60   11.50
  -7  21  -1   25.80   13.00
  21 -14  -1   -2.40   10.10
  -7  21  -1   16.20   11.80
  -7  21  -1   -8.70   13.30
  14   7   1   12.90   13.20
 -21  14   1    5.30   16.20
  14   7   1    5.60    9.90
 -21  14   1   -3.90   14.90
  -4  18  -1   47.40   13.00
  18 -14  -1   30.90    7.80
  -4  18  -1   45.20   10.20
 -14  -4  -1   43.20    9.10
 -18  14   1   31.40   11.60
  14   4   1   56.79   12.30
 -18  14   1   29.00   16.40
  14   4   1   55.09    8.90
  -1  15  -1    2.20    9.60
  -1  15  -1   -8.50    7.90
  15 -14  -1   -8.40    7.20
 -14  -1  -1   10.40    8.80
  -1  15  -1   11.00    9.00
  14   1   1    3.60   14.50
   1 -15   1  -14.30   11.50
  14   1   1   15.00    6.80
  14   1   1   -1.40    7.80
 -15  14   1   -6.60   14.90
 -15  14   1    0.60   13.30
   2  12  -1    1.10    9.10
 -14   2  -1   -2.40   19.70
  12 -14  -1   10.30    7.50
   2  12  -1   -3.40    7.80
  -2 -12   1    2.90   10.40
 -12  14   1   17.80   11.20
  14  -2   1    6.80    6.10
  14  -2   1   12.30    7.20
 -14   5  -1   79.09   12.90
   5   9  -1   49.50    8.10
   9 -14  -1   39.90   13.30
   5   9  -1   33.20   14.90
   5   9  -1   54.09    7.70
 -14   5  -1   45.30   16.80
  14  -5   1   70.19    7.10
  -5  -9   1   70.29    9.40
  14  -5   1   84.69   12.00
  -9  14   1   69.59    9.40
  -9  14   1   71.29   13.10
  -9  14   1   44.00    8.90
   8   6  -1   20.70   14.10
 -14   8  -1   20.90   10.70
 -14   8  -1   39.90   20.50
 -14   8  -1   14.90   19.80
   8   6  -1   36.10    7.50
   8   6  -1   31.70    7.60
 -14   8  -1   28.40    8.40
   8   6  -1   33.50   10.30
  14  -8   1   26.50    5.40
  -6  14   1   22.60   16.40
  -8  -6   1   41.20    8.00
  -6  14   1   39.30    8.20
  -6  14   1   17.50    6.90
   3 -14  -1   -7.40   12.60
  11   3  -1   15.10    7.80
 -14  11  -1    5.80    9.90
  11   3  -1   -7.00   15.40
 -14  11  -1    6.10   11.30
 -14  11  -1   -7.90   10.90
  11   3  -1    8.50    6.40
  -3  14   1    5.10    6.90
  -3  14   1   21.50   10.00
 -11  -3   1   10.50    7.50
  -3  14   1    1.10    8.70
  14   0  -1   11.30    7.00
 -14  14  -1   41.80   16.90
  14   0  -1   12.20    7.00
   0 -14  -1    7.20    9.50
   0 -14  -1  -14.00   12.40
  14   0  -1   17.90   11.10
  14   0  -1   19.50   18.70
 -14  14  -1   15.10   11.30
 -14   0   1   13.90    9.60
   0  14   1   -1.50    8.00
  14 -14   1    3.00    6.10
   0  14   1   -2.80   10.20
   0  14   1    6.40    7.70
  17  -3  -1    9.90    7.20
  -3 -14  -1   14.60   13.00
  17  -3  -1   11.90    7.20
 -14  17  -1  -22.40   11.10
 -14  17  -1  -11.90   14.50
  14 -17   1   -2.60    7.00
  20  -6  -1   10.60    8.00
 -14  20  -1    6.90   12.50
 -14  20  -1   18.40   14.70
  -6 -14  -1    6.10   14.40
   6  14   1   14.40   11.20
 -20   6   1   33.50   13.50
   6  14   1   25.40   10.00
  14 -20   1   -3.20   10.20
  -5  20  -1   30.00   12.80
  20 -15  -1   31.40   10.30
 -20  15   1   -5.60   16.10
  15   5   1   48.20   13.50
  15   5   1   16.50    7.70
  15   5   1    4.60   11.40
 -20  15   1   28.50   13.20
  -2  17  -1   20.80   10.20
 -15  -2  -1    2.90    9.10
  -2  17  -1    9.80    9.50
  -2  17  -1   22.60   11.80
  15   2   1  -14.40   19.70
 -17  15   1    5.00   15.70
 -17  15   1  -17.60   13.70
  15   2   1    8.80    7.60
   2 -17   1  -17.70   14.50
 -17  15   1  -10.40   15.00
  15   2   1   23.40   10.10
   1  14  -1   -3.80    8.20
   1  14  -1    1.60    9.70
 -15   1  -1  -12.90    9.30
  14 -15  -1    6.90    7.60
   1  14  -1    4.50    8.50
 -14  15   1    1.60   15.50
  -1 -14   1   -3.00   12.80
  15  -1   1    0.00    7.00
 -14  15   1  -18.10   11.40
  15  -1   1   -0.60    9.50
 -15   4  -1   19.10   19.50
   4  11  -1   33.10    8.60
   4  11  -1   20.60    7.30
 -15   4  -1   25.80    9.80
  -4 -11   1   17.50    9.10
 -11  15   1   25.50    9.10
  15  -4   1   16.20    6.20
 -11  15   1    5.20    9.20
 -11  15   1   41.10   11.20
 -15   7  -1    6.00   20.50
   7   8  -1    5.80   15.60
   8 -15  -1    4.30   13.30
   7   8  -1   26.10    8.60
   7   8  -1   14.40   14.70
 -15   7  -1   43.60   14.30
 -15   7  -1   14.80   16.20
   7   8  -1   -0.80    7.80
  -8  15   1   25.60   15.10
  -7  -8   1   19.90    8.40
  15  -7   1    7.90   10.80
  -8  15   1   14.70    8.50
  -8  15   1   -1.80    7.60
 -15  10  -1   49.20   10.80
  10   5  -1   72.19    9.50
  10   5  -1   76.19    8.80
 -15  10  -1   69.29   12.80
  -5  15   1   71.69   11.10
  15 -10   1   47.80    7.10
  -5  15   1   46.60   11.20
  13   2  -1    5.90    8.10
 -15  13  -1    8.20   11.90
 -15  13  -1    6.10   12.60
  13   2  -1    8.20   15.40
  13   2  -1    5.80    6.40
   2 -15  -1   -6.50   12.80
  -2  15   1   20.60    7.80
 -13  -2   1    9.90    8.40
  -2  15   1   -7.30    8.30
  -2  15   1    6.40   10.60
 -15  16  -1  -14.20   14.30
  -1 -15  -1  -24.80   13.90
  15 -16   1   -5.10    6.90
   1  15   1  -12.40    7.80
   1  15   1  -15.50    8.00
 -16   1   1   15.00    9.40
  19  -4  -1  -17.50    9.20
  -4 -15  -1   13.90   15.30
 -15  19  -1   -1.80   11.90
  19  -4  -1    3.30    8.30
   4  15   1   -8.60    9.60
   4  15   1   -5.90    9.30
   4  15   1   -4.00   13.10
 -19   4   1  -23.10   12.00
  -3  19  -1  -13.30   11.90
 -16  -3  -1   -9.40    9.80
  -3  19  -1   -1.20   11.40
  19 -16  -1    4.20    8.80
  -3  19  -1   -2.00    9.30
  16   3   1  -23.70   13.20
 -19  16   1  -19.90   12.50
 -19  16   1    6.10   18.20
  16   3   1    4.20    7.90
  16   3   1    7.80   12.10
   0  16  -1   15.80   11.10
   0  16  -1   16.60    8.60
  16 -16  -1   28.70    9.00
 -16   0  -1   29.10    9.40
 -16  16   1   46.30   14.80
  16   0   1   30.30   10.10
  16   0   1   23.50   11.80
 -16   3  -1  -21.70   10.20
 -16   3  -1   23.20   22.10
   3  13  -1   -1.80   10.70
 -13  16   1   -6.60    9.50
  -3 -13   1   -1.10   10.80
 -13  16   1   10.20   10.60
  16  -3   1   -0.60    7.20
 -13  16   1   19.50   10.60
 -13  16   1  -15.00   13.60
   6  10  -1  -15.00   17.80
 -16   6  -1   14.70   14.50
   6  10  -1   12.70    9.10
  10 -16  -1  -17.90   16.60
   6  10  -1   -1.70    8.70
 -16   6  -1    6.30   19.50
 -10  16   1   13.60    9.00
 -10  16   1    5.30    8.80
  16  -6   1   16.10   14.10
 -10  16   1   29.40   14.20
   9   7  -1   13.40   20.00
 -16   9  -1   -3.30   11.00
   7 -16  -1   -2.30   14.30
 -16   9  -1   -7.00    9.60
 -16   9  -1   18.70   13.10
   9   7  -1   31.50   11.10
  16  -9   1    1.40    5.90
  -7  16   1   12.60    8.20
  -7  16   1    6.10    8.40
  -7  16   1   10.10    8.80
  -9  -7   1  -10.50    9.30
  12   4  -1   33.00   10.60
   4 -16  -1   64.29   14.00
 -16  12  -1   41.00   12.30
  12   4  -1   46.10    8.00
 -16  12  -1   25.00   11.30
  12   4  -1   41.30    8.00
 -12  -4   1   30.50    7.50
  -4  16   1   34.00    9.60
  -4  16   1   39.80    8.80
  16 -12   1   29.00    6.90
 -16  15  -1  -13.90   16.70
  15   1  -1   -3.40    7.80
  15   1  -1    6.50    9.00
  15   1  -1   31.00   14.00
   1 -16  -1   23.50   13.00
 -16  15  -1   -9.50   14.00
  -1  16   1   -7.90    8.50
 -15  -1   1   -8.50    8.70
  16 -15   1    4.10    6.90
  -1  16   1   19.10   10.50
  -1  16   1    3.00    9.80
  18  -2  -1   20.20   10.20
 -16  18  -1   29.50   15.80
  18  -2  -1   21.00    7.70
 -16  18  -1   10.30   10.50
  16 -18   1   34.20    8.70
   2  16   1   17.40    9.80
   2  16   1   33.20   12.90
 -18   2   1   26.70   11.00
  -5 -16  -1  -18.90   16.90
 -21   5   1   12.80   13.60
  -1  18  -1    8.60   12.60
 -17  -1  -1   -1.70   11.20
  -1  18  -1   15.50    9.30
  18 -17  -1   -1.70    9.00
  -1  18  -1    9.40   11.30
 -18  17   1   20.50   17.80
 -18  17   1   22.70   17.00
  17   1   1   -0.20    7.70
  17   1   1   -5.80   11.50
   2  15  -1   -2.90    9.70
   2  15  -1   -6.30   11.70
  -2 -15   1    0.40   15.80
  17  -2   1   -5.80    8.30
 -15  17   1   -5.30   16.80
  17  -2   1   -1.40    6.30
 -15  17   1   22.10   10.10
 -15  17   1  -13.50   12.10
 -17   5  -1   19.70   11.10
 -17   5  -1   20.60   13.00
   5  12  -1   -5.20    9.40
   5  12  -1   -0.60    8.20
  12 -17  -1   -1.90    9.30
  17  -5   1    4.80    6.50
  -5 -12   1    7.40   10.60
 -12  17   1  -14.70   12.40
 -12  17   1   15.20   10.00
 -12  17   1    4.40    9.80
 -17   8  -1   21.30   11.10
   9 -17  -1   -7.70   15.70
   8   9  -1   20.40   19.90
 -17   8  -1   16.30   25.80
 -17   8  -1   42.70   12.30
  17  -8   1   20.20    7.10
  -8  -9   1   31.70    9.80
  -9  17   1   23.40    9.50
  -9  17   1   37.70    9.50
  -9  17   1   54.49   19.60
  11   6  -1   27.00    9.70
  11   6  -1   44.50   11.60
 -17  11  -1   26.20   13.50
  11   6  -1   31.10    7.10
 -17  11  -1   31.50   12.20
  -6  17   1   39.80    9.80
  17 -11   1   43.00    6.50
  14   3  -1   10.00   11.20
 -17  14  -1   13.10   12.70
   3 -17  -1   -6.80   14.90
 -17  14  -1   34.20   12.30
  14   3  -1   21.80   21.40
  -3  17   1   15.60   10.70
  17 -14   1   14.40    8.10
 -14  -3   1   17.30    8.90
  -3  17   1   34.00   11.20
  -3  17   1    1.40    8.70
   0 -17  -1  -27.20   16.20
 -17  17  -1   20.50   16.40
 -17  17  -1    6.90   10.50
  17   0  -1   -9.90   11.60
  17   0  -1   -4.30    8.20
  17 -17   1   -4.50    8.30
   0  17   1   10.00   10.50
   0  17   1    8.50   12.00
 -17  20  -1    7.80   17.70
  20  -3  -1   11.00    9.40
 -20   3   1    4.20   12.30
   3  17   1   16.00   17.30
   2 -20   1   14.30   19.70
  17 -18  -1  -13.90    9.30
   1  17  -1   -9.00    8.70
   1  17  -1    3.90   11.10
 -18   1  -1    6.60   10.70
  18  -1   1   -3.10    8.50
 -17  18   1   27.60   17.10
 -17  18   1    2.50   10.80
  -1 -17   1  -26.50   17.90
  18  -1   1   13.70   11.30
  14 -18  -1   24.90    9.60
   4  14  -1    6.10    9.40
   4  14  -1   -9.70   12.10
 -18   4  -1    4.80   11.90
 -18   4  -1   35.50   15.10
   4  14  -1    7.90    8.80
  -4 -14   1  -11.60   12.00
  18  -4   1    7.40    6.40
 -14  18   1   -7.10   10.50
  18  -4   1   -9.30    7.70
   7  11  -1   16.60    8.00
   7  11  -1   20.80    9.90
   7  11  -1   12.50   24.30
  11 -18  -1   22.20   20.80
 -18   7  -1   35.60   13.90
 -11  18   1   -4.90   17.00
  -7 -11   1    5.80   11.20
 -11  18   1    1.10    9.00
  18  -7   1   19.30   18.70
  18  -7   1   20.80    7.20
 -18  10  -1   -3.10   12.50
  10   8  -1   14.90   12.30
 -18  10  -1   -6.60   10.40
  -8  18   1    7.20    9.80
  -8  18   1   25.30    9.60
 -10  -8   1    1.90   10.50
  18 -10   1    9.00    7.30
  13   5  -1   10.60   11.30
 -18  13  -1   12.70   11.40
  13   5  -1   29.00    8.20
  -5  18   1   26.60    9.20
 -13  -5   1   20.90    9.90
  -5  18   1   24.60    9.40
  18 -13   1   40.00    7.20
  -5  18   1   33.00   11.90
  16   2  -1    9.20   18.50
  16   2  -1   -4.70   11.20
   2 -18  -1   32.20   17.30
 -18  16  -1   -4.00   15.00
 -18  16  -1   26.90   16.70
  16   2  -1   14.50    7.20
 -16  -2   1    1.00   10.70
  -2  18   1    9.00   11.10
  -2  18   1    5.00    9.90
  -2  18   1  -14.90   11.10
 -18  19  -1    9.00   11.10
  -1 -18  -1    4.40   18.70
  19  -1  -1   16.40   13.90
  19  -1  -1   -9.10    8.40
  18 -19   1  -19.60   10.30
   1  18   1   -6.10   12.90
 -19   1   1   -3.40   10.00
   1  18   1   22.60   22.30
 -19   0  -1   -5.90   11.60
   0 -19   1  -36.50   17.60
   3  16  -1    0.70   10.50
   3  16  -1    0.10    9.40
   3  16  -1    0.90   13.00
  19  -3   1   -2.20    8.10
 -16  19   1    6.10   11.00
  -3 -16   1  -20.80   16.30
  19  -3   1    0.60   10.30
   6  13  -1    1.50    9.10
 -19   6  -1    1.50   13.90
   6  13  -1    8.50   11.60
  13 -19  -1    7.50    9.80
   6  13  -1    2.00    9.60
 -13  19   1  -15.80   10.80
  19  -6   1   -8.00    7.40
 -13  19   1   -7.10   10.80
  10 -19  -1    3.60   19.00
 -19   9  -1    4.00   12.30
   9  10  -1   12.40   10.90
 -19   9  -1    7.60   12.40
   9  10  -1  -37.90   27.10
  19  -9   1   22.60    8.00
  -9 -10   1   25.20   10.10
 -10  19   1   15.00   10.70
 -10  19   1   13.60   11.30
 -19  12  -1   -5.10   11.30
 -19  12  -1    2.30   13.70
  19 -12   1   11.00    7.30
  -7  19   1   -3.40   10.70
  15   4  -1   24.50    8.60
  15   4  -1   26.20   12.20
 -19  15  -1   -8.30   12.30
  15   4  -1   33.00   10.30
 -19  15  -1   36.20   15.30
 -15  -4   1   12.00    9.50
  19 -15   1   16.50    8.50
  -4  19   1   43.50   13.10
  -4  19   1    3.00   11.30
  -4  19   1   10.70   10.40
  18   1  -1    7.30   14.00
  18   1  -1   -6.20    8.00
   1 -19  -1  -20.60   17.40
 -19  18  -1    2.20   17.20
  19 -18   1    5.90   10.10
  -1  19   1   12.60   14.20
  -1  19   1   -9.10   13.10
  -1  19   1    7.90   10.60
 -18  -1   1  -16.20   11.10
  -2 -18   1  -17.50   17.90
 -20   5  -1  -12.40   17.10
   5  15  -1    4.50   10.10
   5  15  -1   29.00   12.60
  15 -20  -1   13.90   11.60
   5  15  -1   12.10   10.50
 -20   5  -1   13.10   13.90
  -5 -15   1  -17.20   14.40
 -15  20   1    0.30   11.30
 -15  20   1    5.30   13.50
  20  -5   1   -4.00    8.30
  12 -20  -1   -5.20   10.90
   8  12  -1   12.00   10.00
 -20   8  -1   -3.40   12.70
 -12  20   1    2.80   10.90
  20  -8   1    8.40    8.30
  -8 -12   1   -7.50   12.30
 -12  20   1  -19.10   34.20
  11   9  -1   20.10   16.10
  11   9  -1   29.00   12.00
 -20  11  -1   -7.90   13.20
  11   9  -1    3.10    8.00
  20 -11   1    9.80    7.90
  -9  20   1   24.30   11.50
  -9  20   1   12.40   11.50
  -9  20   1   17.00   10.80
 -20  14  -1    7.10   16.90
 -20  14  -1   16.50   11.70
  14   6  -1   28.10   13.60
 -14  -6   1   -1.60   12.30
  20 -14   1    9.60    7.90
  -6  20   1   38.90   13.10
  -6  20   1   29.40   13.00
  -6  20   1   -5.10   10.50
 -20  17  -1   27.40   15.60
  17   3  -1  -18.40    9.30
 -20  17  -1   -5.60   16.50
  17   3  -1   15.50   14.90
  -3  20   1    2.00   14.20
  20 -17   1  -12.90    9.10
 -17  -3   1   19.20    9.60
   7  14  -1   -5.30   10.40
  14 -21  -1   42.20   15.20
 -21   7  -1   -8.80   13.90
   7  14  -1   10.40   13.80
 -21   7  -1   14.00   14.20
 -14  21   1   -8.00   13.10
  21  -7   1   19.60    9.90
  -7 -14   1   12.50   14.30
 -14  21   1   40.30   17.40
  10  11  -1   -9.70    9.00
  10  11  -1  -14.80   11.80
 -21  10  -1   23.60   14.20
  21 -10   1    1.20    8.10
 -10 -11   1   -5.40   11.80
 -11  21   1  -22.50   12.00
 -11  21   1   29.00   15.30
 -21  13  -1   -1.20   15.30
  13   8  -1   21.40   11.80
  13   8  -1   -7.90   14.00
  13   8  -1   -4.70   12.60
 -21  13  -1    9.50   14.60
  21 -13   1  -18.70    9.00
 -13  -8   1   -5.00   13.80
  -8  21   1   20.30   12.80
  -8  21   1   14.00   16.60
  -8  21   1   -4.20   11.60
 -21  16  -1   24.20   16.10
 -16  -5   1   20.40   13.40
 -22  12  -1    5.90   14.20
   0   2  -2  568.04   18.90
   2  -2  -2  630.34   18.90
  -2   0  -2  616.44   18.70
   0   2  -2  617.74   19.20
  -2   0  -2  589.54   19.20
   0   2  -2  606.34   19.40
   0   2  -2  582.44   18.50
  -2   0  -2  637.24   18.60
   2  -2  -2  595.04   19.30
  -2   0  -2  594.84   19.30
   2   0   2  629.64   18.80
   0  -2   2  620.14   18.60
   2   0   2  619.04   19.30
  -2   2   2  607.94   18.50
   2   0   2  590.24   19.60
   0  -2   2  595.54   19.20
   0  -2   2  580.14   19.10
   2   0   2  621.54   18.60
  -2   2   2  587.64   19.30
   3  -1  -2  416.76   13.60
   3  -1  -2  422.66   13.10
  -2   3  -2  408.36   12.80
  -1  -2  -2  439.36   13.90
  -1  -2  -2  408.16   14.80
  -1  -2  -2  445.46   14.70
  -2   3  -2  426.06   15.60
   3  -1  -2  420.56   14.30
  -2   3  -2  415.96   13.00
  -2   3  -2  416.46   14.60
  -2   3  -2  424.36   15.20
   3  -1  -2  434.46   15.90
  -3   1   2  408.46   13.60
  -3   1   2  416.06   15.20
   2  -3   2  434.96   12.90
   1   2   2  452.05   15.00
  -3   1   2  422.96   13.90
  -3   1   2  403.56   13.20
   2  -3   2  434.06   15.20
  -3   1   2  433.76   14.10
   1   2   2  430.26   14.70
   2  -3   2  432.06   14.60
   1   2   2  442.76   15.00
   2  -3   2  404.16   13.00
   1   2   2  447.86   14.00
   1   2   2  427.16   13.90
  -1   4  -2  274.97   11.80
  -1   4  -2  271.77   10.70
  -3  -1  -2  265.07   11.30
  -1   4  -2  258.27   12.70
  -3  -1  -2  255.47   11.20
  -3  -1  -2  263.07   11.90
  -3  -1  -2  265.47   11.70
   4  -3  -2  279.47   12.50
   4  -3  -2  269.97   10.90
  -1   4  -2  271.77   12.50
  -3  -1  -2  240.68   10.60
   4  -3  -2  279.47   11.30
   1  -4   2  259.07   10.20
   3   1   2  255.97   10.60
  -4   3   2  265.97   10.30
   1  -4   2  251.87   12.90
  -4   3   2  282.27   13.80
   3   1   2  269.97   12.60
  -4   3   2  260.47   11.70
   1  -4   2  242.18   11.70
  -4   3   2  258.17   10.80
   3   1   2  244.48   11.20
   3   1   2  248.38   11.10
   1  -4   2  249.48   12.80
   3   1   2  239.08   10.90
   3   1   2  278.67   11.60
   1  -3  -2  814.82   25.20
   2   1  -2  752.12   23.70
   1  -3  -2  734.43   22.80
   2   1  -2  796.12   23.90
  -3   2  -2  752.22   23.20
  -3   2  -2  800.52   23.60
  -3   2  -2  783.02   24.90
  -3   2  -2  792.42   22.90
   2   1  -2  745.83   24.10
   2   1  -2  768.72   24.60
  -2  -1   2  821.32   24.20
   3  -2   2  790.72   23.20
  -1   3   2  734.63   22.90
   3  -2   2  809.92   25.20
  -2  -1   2  791.92   23.80
  -1   3   2  797.22   23.50
  -2  -1   2  773.82   23.60
  -1   3   2  786.42   24.60
   3  -2   2  806.92   23.80
  -1   3   2  785.92   25.00
  -2  -1   2  783.62   24.60
  -2  -3  -2  790.52   25.50
   5  -2  -2  755.72   23.90
  -2  -3  -2  786.52   25.70
   5  -2  -2  771.92   23.50
   5  -2  -2  816.52   23.90
  -2  -3  -2  763.12   25.30
  -3   5  -2  759.62   26.80
  -3   5  -2  769.82   23.30
  -2  -3  -2  755.82   24.90
   5  -2  -2  738.23   24.70
  -3   5  -2  759.42   25.20
  -3   5  -2  765.52   22.40
  -3   5  -2  791.12   26.50
   5  -2  -2  798.12   27.40
   2   3   2  741.63   25.00
  -5   2   2  731.13   26.70
   2   3   2  759.02   24.90
   3  -5   2  802.92   27.20
  -5   2   2  812.52   24.10
  -5   2   2  758.82   23.80
  -5   2   2  756.92   24.40
  -5   2   2  764.02   23.50
   2   3   2  786.52   24.60
   3  -5   2  741.03   23.30
   3  -5   2  783.12   25.10
  -5   2   2  811.42   22.70
   2   3   2  777.82   25.00
   2   3   2  722.43   25.10
   6  -4  -2  241.88   11.70
  -2   6  -2  252.47   14.20
   6  -4  -2  267.17   12.10
  -4  -2  -2  254.57   12.80
  -4  -2  -2  262.37   11.70
  -2   6  -2  265.17   11.70
  -2   6  -2  249.38   15.30
  -2   6  -2  239.88   13.30
   6  -4  -2  260.97   13.50
  -4  -2  -2  269.57   13.00
   4   2   2  240.58   14.90
  -6   4   2  254.07   13.00
   4   2   2  243.58   13.10
   4   2   2  271.17   10.40
  -6   4   2  242.38   11.90
   2  -6   2  271.37   15.90
   4   2   2  255.07   12.60
   2  -6   2  265.67   14.80
  -6   4   2  255.47   11.20
  -6   4   2  264.87   16.50
   4   2   2  240.28   12.00
  -6   4   2  255.07    9.90
   2  -6   2  246.48   11.00
   4   2   2  268.27   13.20
  -6   4   2  257.27   10.50
   4   2   2  248.68   11.30
   2  -6   2  253.27   13.30
   1   3  -2  515.75   18.20
  -4   1  -2  526.35   16.60
   3  -4  -2  503.65   16.70
   1   3  -2  524.75   17.30
   1   3  -2  483.35   18.30
  -4   1  -2  502.05   17.60
  -4   1  -2  497.85   19.70
   3  -4  -2  488.55   18.90
  -4   1  -2  541.45   17.40
   1   3  -2  522.55   17.80
  -1  -3   2  491.75   18.20
  -3   4   2  483.35   16.40
   4  -1   2  517.65   17.90
  -3   4   2  509.85   16.20
  -1  -3   2  521.05   17.30
  -1  -3   2  482.05   17.70
   4  -1   2  517.25   17.30
  -1  -3   2  534.75   15.90
  -3   4   2  487.55   16.40
  -3   4   2  485.85   18.50
  -3   4   2  491.35   17.10
   4  -1   2  499.35   16.50
   0  -4  -2   83.09    8.60
  -4   4  -2  106.19   10.50
   4   0  -2   82.59    6.10
   4   0  -2   96.39   10.30
   4   0  -2   84.99    7.60
   4   0  -2   81.19    5.40
  -4   4  -2   78.99    6.40
  -4   4  -2  102.69    7.80
  -4   0   2   92.89    8.00
   0   4   2   94.69    8.50
   4  -4   2   94.69    6.40
   4  -4   2  109.29    9.80
  -4   0   2   92.39    6.50
   0   4   2   94.39    8.30
   7  -3  -2  433.46   15.20
  -4   7  -2  388.76   14.60
   7  -3  -2  430.26   21.60
  -4   7  -2  393.26   20.50
  -3  -4  -2  424.46   17.50
  -3  -4  -2  408.86   15.90
   7  -3  -2  401.26   16.30
  -4   7  -2  436.56   19.80
  -3  -4  -2  419.06   18.80
  -3  -4  -2  452.25   18.00
  -3  -4  -2  398.46   17.40
   7  -3  -2  424.96   15.50
  -4   7  -2  444.86   17.90
   3   4   2  409.06   18.40
  -7   3   2  430.96   15.90
   4  -7   2  410.16   14.30
  -7   3   2  426.96   20.20
  -7   3   2  405.56   16.30
   3   4   2  422.06   14.00
   3   4   2  429.96   16.80
   3   4   2  385.76   16.10
  -7   3   2  429.86   15.40
  -7   3   2  426.46   15.60
   4  -7   2  412.46   20.50
   3   4   2  416.26   16.90
   4  -7   2  413.86   13.90
   4  -7   2  412.66   16.80
   3   4   2  430.36   18.00
  -7   3   2  421.06   15.50
  -3   8  -2  205.78   11.90
  -3   8  -2  219.68   16.40
   8  -5  -2  198.18   11.80
   8  -5  -2  213.28   12.70
  -5  -3  -2  183.38   14.50
  -3   8  -2  179.78   13.70
  -5  -3  -2  188.58   14.60
  -5  -3  -2  203.18   12.00
  -5  -3  -2  184.48   12.60
  -3   8  -2  203.28   17.40
  -8   5   2  169.08   13.00
  -8   5   2  231.28   19.20
   3  -8   2  175.98   13.90
   5   3   2  199.68   12.10
   3  -8   2  190.08    7.60
  -8   5   2  174.28   13.70
  -8   5   2  186.38    8.20
  -8   5   2  189.48   12.00
   5   3   2  173.18   14.10
  -8   5   2  197.68   10.40
   5   3   2  179.68    9.70
   5   3   2  165.58   12.10
   5   3   2  166.48   15.00
  -8   5   2  193.88   10.90
   5   3   2  183.38   12.20
   3  -8   2  189.38   10.20
   5   3   2  193.58   11.30
  -5   0  -2   50.49   10.30
   5  -5  -2   57.09   12.20
   5  -5  -2   55.19    7.10
   0   5  -2   44.50   13.10
   0   5  -2   52.29    8.10
  -5   0  -2   45.00    7.10
  -5   0  -2   58.99    9.50
  -5   0  -2   61.19    7.10
   0   5  -2   38.10    8.30
   0   5  -2   44.30    9.00
  -5   0  -2   33.90    7.20
   0  -5   2   44.30    8.60
   5   0   2   37.10    7.20
   5   0   2   53.49   12.20
   5   0   2   40.90    6.00
  -5   5   2   32.80    9.40
   0  -5   2   60.89   11.20
   0  -5   2   54.49    7.90
   5   0   2   43.60    9.20
  -5   5   2   54.39    6.20
  -5   5   2   41.00    7.00
   5   0   2   53.09    9.20
   5   0   2   46.30    6.50
  -5   5   2   52.39    9.30
   2  -5  -2  514.95   19.40
   2  -5  -2  531.05   21.00
   2  -5  -2  521.15   16.20
  -5   3  -2  543.55   16.70
   2  -5  -2  568.84   18.30
  -5   3  -2  545.65   16.60
  -5   3  -2  540.25   19.80
   2  -5  -2  523.15   17.80
   3   2  -2  530.25   20.00
   3   2  -2  540.75   19.00
   3   2  -2  503.85   18.40
   3   2  -2  556.64   18.00
  -5   3  -2  538.35   18.10
  -2   5   2  536.25   19.30
   5  -3   2  565.44   20.60
  -2   5   2  534.45   16.80
  -3  -2   2  554.54   19.80
  -3  -2   2  568.24   18.90
   5  -3   2  528.75   16.70
   5  -3   2  517.35   17.80
  -3  -2   2  529.65   18.50
  -2   5   2  532.45   16.40
  -3  -2   2  559.94   17.50
   5  -3   2  532.45   16.50
  -2   5   2  534.45   20.40
  -2   5   2  528.65   18.00
  -5   6  -2  286.27   10.80
  -5   6  -2  291.77   16.10
   6  -1  -2  276.17   12.80
   6  -1  -2  271.37   16.60
  -1  -5  -2  277.07   15.00
   6  -1  -2  287.17   12.70
  -1  -5  -2  281.17   13.50
   6  -1  -2  291.47   10.70
   6  -1  -2  305.67   10.20
  -1  -5  -2  292.57   11.70
  -1  -5  -2  268.27   13.60
  -6   1   2  297.47   11.00
  -6   1   2  281.87   12.90
   1   5   2  288.97   13.80
  -6   1   2  293.37   10.70
  -6   1   2  294.67   12.30
   1   5   2  273.37   13.80
  -6   1   2  298.47   13.30
   1   5   2  271.67   14.10
   5  -6   2  270.87   10.90
   5  -6   2  291.47   12.70
   5  -6   2  279.17   16.20
  -6   1   2  266.17   15.80
   1   5   2  265.27   13.60
  -5   9  -2  195.98   10.90
  -4  -5  -2  173.98   12.90
  -5   9  -2  195.68   14.00
   9  -4  -2  197.18   12.00
  -4  -5  -2  183.28   15.00
   9  -4  -2  198.48   13.20
   9  -4  -2  215.28   12.10
  -5   9  -2  208.98   18.40
   5  -9   2  173.28   14.20
  -9   4   2  193.58   12.30
  -9   4   2  179.38   12.60
   4   5   2  189.08   13.10
   4   5   2  225.08   14.70
   5  -9   2  201.68    9.10
   4   5   2  224.68   15.40
   4   5   2  186.18   12.50
  -9   4   2  189.88   12.60
   4   5   2  204.08    9.40
   5  -9   2  203.48    9.70
  -4  10  -2  100.59   10.90
  -6  -4  -2  114.29   16.90
  10  -6  -2  116.89   11.40
  -4  10  -2   98.79   15.30
  -6  -4  -2   86.69   13.50
  -6  -4  -2   88.59   12.40
  -4  10  -2   72.59   13.70
   6   4   2  115.59   13.50
 -10   6   2  114.49   13.70
   4 -10   2  105.29   21.60
   6   4   2  110.19   11.00
   6   4   2   88.79   15.00
   6   4   2  107.99    9.30
   6   4   2   89.99   13.00
   4 -10   2  107.59    9.70
 -10   6   2   81.39    9.50
   6   4   2   94.49   12.60
 -10   6   2  109.89   20.40
 -10   6   2  104.49   14.20
  -6  -1  -2   11.50   10.30
   7  -6  -2   11.50    7.40
  -1   7  -2    7.10   13.00
  -1   7  -2    4.40   12.90
  -1   7  -2    0.40   10.60
  -6  -1  -2   17.90    8.70
  -6  -1  -2   10.20    6.90
  -1   7  -2   12.30   10.00
   7  -6  -2    3.50   10.60
   7  -6  -2   37.00   13.30
  -6  -1  -2   -3.40    7.80
  -6  -1  -2   -1.50    9.70
  -1   7  -2    2.90    7.80
   6   1   2    5.80    6.40
   1  -7   2   10.90    4.50
  -7   6   2   12.80    7.10
  -7   6   2   -4.00   10.40
   6   1   2    7.00    8.70
   6   1   2   -5.40   13.40
  -7   6   2    6.70    6.90
   1  -7   2   -0.80    5.00
   6   1   2   10.70    8.30
   1  -7   2   20.40    8.00
   6   1   2   10.80    8.50
   6   1   2   10.30    7.10
  -7   6   2   11.40    6.20
  -7   6   2   -7.30    8.70
   1  -7   2    9.00    9.50
   1  -7   2    7.30   13.30
   4  -6  -2   46.60    8.70
   2   4  -2   52.19    9.80
   2   4  -2   68.59    8.80
   4  -6  -2   60.79    7.50
   2   4  -2   58.09    7.80
  -6   2  -2   40.40   12.20
  -6   2  -2   70.29    8.80
   4  -6  -2   57.99    6.80
   4  -6  -2   55.59   13.60
   2   4  -2   67.49   11.50
  -6   2  -2   69.59    9.90
   2   4  -2   78.19    9.70
  -6   2  -2   57.59    6.90
  -4   6   2   58.79    8.70
  -4   6   2   72.59    6.40
   6  -2   2   49.30    6.20
  -2  -4   2   64.69    8.80
   6  -2   2   59.99    9.00
  -4   6   2   51.89   10.90
  -2  -4   2   46.90    9.00
  -2  -4   2   63.89    6.50
  -4   6   2   60.89    6.80
   6  -2   2   50.49    6.70
  -2  -4   2   61.19    5.40
  -4   6   2   73.59   11.50
  -6   5  -2    4.00    5.60
  -6   5  -2    1.90   10.30
  -6   5  -2    8.40    6.70
   1  -6  -2   -6.20   10.70
   5   1  -2   11.60    6.50
   1  -6  -2    1.30    6.80
   5   1  -2   11.30    7.60
   1  -6  -2   10.60   12.70
   5   1  -2    7.80    6.70
   1  -6  -2   20.10    9.40
   5   1  -2   10.00    5.70
   5   1  -2    9.30   10.00
   6  -5   2   13.60    5.60
  -1   6   2    9.90    7.40
  -1   6   2    5.40    5.20
  -5  -1   2    5.00    5.40
  -5  -1   2   10.70    7.40
  -1   6   2    8.80    3.90
  -5  -1   2   -0.70    9.30
   6  -5   2    4.80    5.80
   6  -5   2    2.70    9.30
  -5  -1   2   11.20    7.40
  -1   6   2   15.00   10.90
  -5  -1   2    6.10    7.00
  -1   6   2    9.50    8.60
   6  -5   2   12.80    6.70
  -6   8  -2  571.34   24.50
  -6   8  -2  542.35   17.50
   8  -2  -2  592.34   19.50
  -2  -6  -2  551.54   23.50
  -6   8  -2  560.74   26.60
  -6   8  -2  533.85   17.40
  -6   8  -2  589.14   21.20
  -2  -6  -2  543.65   19.60
  -2  -6  -2  563.14   22.40
  -6   8  -2  557.94   25.80
   6  -8   2  562.34   17.10
   6  -8   2  543.65   18.60
   6  -8   2  531.65   25.80
   6  -8   2  572.74   20.60
  -8   2   2  558.34   20.70
  -8   2   2  551.84   17.70
   2   6   2  554.14   21.70
   2   6   2  519.95   19.40
   2   6   2  570.24   21.80
  -8   2   2  554.14   17.20
   6  -8   2  552.94   17.30
   2   6   2  551.44   21.40
  -8   2   2  566.04   24.70
   2   6   2  575.04   17.30
   2   6   2  534.75   21.80
  -8   2   2  519.15   20.50
  -5  -6  -2   23.50   15.80
  -6  11  -2   29.80   13.80
  -6  11  -2   21.10    7.10
  -6  11  -2   21.10    9.30
  -5  -6  -2   27.40   15.40
  11  -5  -2   26.60    6.10
  11  -5  -2   19.40   10.40
 -11   5   2   31.00   11.00
   5   6   2   39.10   11.40
 -11   5   2   24.50   10.30
   5   6   2   35.30   12.50
   5   6   2   25.60    7.80
   5   6   2   28.20    6.50
 -11   5   2   32.80   10.80
   5   6   2   32.40   13.70
   6 -11   2   34.00    7.80
   6 -11   2   30.50    7.00
  -5  12  -2   -1.60    7.30
  12  -7  -2   -3.70    5.00
  -7  -5  -2   -4.50   14.00
  -5  12  -2    0.10   11.10
  -5  12  -2  -10.20    7.00
  12  -7  -2   -8.00   12.20
   5 -12   2   -4.70    6.50
   5 -12   2    3.00    9.10
   7   5   2    5.50   10.00
   7   5   2    9.90   14.20
 -12   7   2    5.90    9.30
   7   5   2  -12.60    5.70
   7   5   2   -5.40    8.70
   7   5   2  -12.70    6.80
 -12   7   2    1.70   13.70
 -12   7   2   -0.40   14.10
  -2   9  -2  177.38   13.50
  -7  -2  -2  165.18   15.20
  -2   9  -2  200.38   18.20
   9  -7  -2  201.08   15.40
   9  -7  -2  176.28   12.40
  -2   9  -2  195.08   17.10
  -7  -2  -2  172.68   10.40
  -9   7   2  172.08   10.30
  -9   7   2  223.08   23.00
   7   2   2  162.58   13.80
   7   2   2  194.98   12.50
  -9   7   2  173.08   12.50
   7   2   2  170.48   13.90
   7   2   2  157.78   14.10
  -9   7   2  199.28   15.80
   2  -9   2  190.18   13.00
  -9   7   2  203.18   15.70
  -9   7   2  188.08   10.00
  -7   1  -2  233.78   12.80
  -7   1  -2  246.68   13.80
   1   6  -2  228.38   15.00
   1   6  -2  226.48   16.10
   6  -7  -2  245.18   12.00
   6  -7  -2  225.08   15.60
   1   6  -2  241.68   14.40
  -7   1  -2  226.38   13.20
  -7   1  -2  210.48   15.80
   1   6  -2  263.37   13.50
   7  -1   2  255.17   11.50
   7  -1   2  242.98   13.10
   7  -1   2  237.48   10.30
   7  -1   2  251.27   14.10
  -6   7   2  244.78   10.40
  -6   7   2  230.98   16.40
  -1  -6   2  247.68   14.50
   7  -1   2  244.38   19.70
  -6   7   2  240.18   10.80
  -1  -6   2  231.58   15.00
   7  -1   2  249.68   11.90
  -6   7   2  235.78   15.90
  -1  -6   2  259.77   13.80
  -1  -6   2  229.18   10.40
  -7   4  -2   88.39    6.90
   3  -7  -2   99.89    8.50
   3  -7  -2  106.59   15.90
  -7   4  -2  114.69   11.70
   4   3  -2   95.19   10.60
   4   3  -2  108.69    8.70
   4   3  -2  114.89   12.90
  -7   4  -2   96.29    6.50
  -4  -3   2  118.69   10.90
  -4  -3   2  105.89   10.10
  -4  -3   2  110.99   12.00
   7  -4   2  103.39    9.10
  -3   7   2   93.19   13.90
  -3   7   2  118.69   13.90
  -3   7   2  105.79   10.80
  -3   7   2  114.79    9.10
  -4  -3   2   90.99    7.10
   7  -4   2   83.79    6.00
   7  -4   2   96.99    8.30
  -3   7   2   86.59    6.00
   0  -7  -2  234.48   20.00
   0  -7  -2  207.78   12.80
  -7   7  -2  202.08   10.60
  -7   7  -2  196.68   17.10
  -7   7  -2  205.68   12.40
   0  -7  -2  214.48    9.90
   7   0  -2  219.18   12.70
   0  -7  -2  189.78   14.50
   0  -7  -2  228.48   17.40
   7   0  -2  211.58   10.30
  -7   0   2  223.38   16.30
   7  -7   2  215.88   11.00
  -7   0   2  214.38   14.00
   0   7   2  232.08   16.30
   0   7   2  221.18   14.70
   7  -7   2  227.58   17.90
  -7   0   2  215.38   11.10
  -7   0   2  209.78   11.00
   0   7   2  195.48   14.00
   7  -7   2  205.98   10.30
   0   7   2  205.68   13.90
   7  -7   2  199.98   10.70
  10  -3  -2   64.89   10.10
  -7  10  -2   70.49    7.50
  10  -3  -2   50.79   10.00
  10  -3  -2   75.99    9.40
  -3  -7  -2   75.59   14.90
  -3  -7  -2   45.80   10.60
  -7  10  -2   59.59   12.30
  -7  10  -2   55.59   15.20
  -7  10  -2   77.29    5.50
   3   7   2   51.99   14.90
   7 -10   2   62.59    5.80
 -10   3   2   71.69    8.20
 -10   3   2   58.59   24.00
   3   7   2   54.99   13.40
 -10   3   2   80.69   10.70
 -10   3   2   57.59   12.50
   3   7   2   72.59    6.70
   3   7   2   60.09   10.20
   7 -10   2   69.59    8.50
   7 -10   2   53.59   14.20
  -7  13  -2   24.60   11.90
  13  -6  -2   10.40   11.90
  -6  -7  -2   13.60   10.70
  13  -6  -2    1.10    5.00
  -7  13  -2   -6.30    7.30
  -7  13  -2    8.10    7.50
  -6  -7  -2    1.90   17.70
   7 -13   2    1.10    9.00
 -13   6   2   23.80   14.10
 -13   6   2   13.80   13.10
   6   7   2    4.60   13.20
 -13   6   2   16.30   10.60
   7 -13   2    2.00    7.70
   6   7   2   14.20    9.60
   6   7   2    0.40    7.30
 -13   6   2   11.70   12.90
   6   7   2    8.90    7.20
  -6  14  -2   22.40    8.20
  -6  14  -2   34.60    8.20
  -8  -6  -2   11.00    9.80
  14  -8  -2   26.40   15.90
  -6  14  -2   44.90   15.90
  14  -8  -2   24.50    5.70
 -14   8   2   14.80   16.80
   8   6   2   13.80    7.30
   8   6   2   23.70   12.30
   6 -14   2   31.00    8.80
 -14   8   2   39.60   19.40
   8   6   2   13.60   12.20
   8   6   2   26.20    7.50
 -14   8   2   22.30    9.40
  -8  -3  -2   13.10    5.50
  -3  11  -2   11.60   12.30
  -3  11  -2    3.70    6.90
  -8  -3  -2   17.50   11.80
  -3  11  -2    7.40    7.30
  11  -8  -2   36.70   14.50
 -11   8   2   11.40    8.80
 -11   8   2   29.70   16.50
   8   3   2   19.30   10.10
   8   3   2    8.50    6.00
 -11   8   2   10.10    7.70
 -11   8   2    2.60    7.70
   3 -11   2   19.00    7.90
   8   3   2   29.60   11.60
 -11   8   2   14.80   16.10
  -8   0  -2  733.23   23.30
   0   8  -2  768.02   26.80
   0   8  -2  742.03   29.70
  -8   0  -2  725.13   27.50
   0   8  -2  695.83   27.40
  -8   0  -2  741.73   28.90
   8  -8  -2  778.02   25.70
   0   8  -2  740.33   32.60
  -8   8   2  739.73   23.50
  -8   8   2  746.53   25.10
  -8   8   2  677.13   30.00
   0  -8   2  721.83   28.50
   8   0   2  774.12   24.40
   8   0   2  744.93   27.00
  -8   8   2  783.02   24.30
  -8   8   2  765.22   28.60
   8   0   2  771.82   27.10
   0  -8   2  703.23   28.70
  -8   8   2  735.43   25.50
   8   0   2  755.92   25.10
   5  -8  -2  191.18   13.70
   3   5  -2  167.98   10.50
   5  -8  -2  168.88   17.80
   5  -8  -2  194.68   11.10
   3   5  -2  175.58   14.50
   3   5  -2  181.68   15.70
   5  -8  -2  188.08    9.90
  -8   3  -2  172.58   11.30
   3   5  -2  184.08   13.70
   3   5  -2  182.48   13.10
  -8   3  -2  189.28   14.50
   8  -3   2  175.78    6.90
  -5   8   2  156.08   17.10
  -3  -5   2  169.18   10.90
   8  -3   2  165.48   13.50
  -5   8   2  204.08   17.60
  -3  -5   2  164.18    8.00
  -5   8   2  173.48    7.50
   8  -3   2  174.98   12.40
   8  -3   2  159.68   10.60
  -5   8   2  165.58    8.80
   8  -3   2  157.18   10.30
  -3  -5   2  188.28   14.70
  -3  -5   2  180.88   14.20
  -5   8   2  182.78   13.00
   6   2  -2  120.59    9.80
  -8   6  -2  139.09   15.30
   2  -8  -2  154.08   16.90
   2  -8  -2  109.89    6.30
   2  -8  -2  113.69   17.20
   2  -8  -2  141.89   11.40
   6   2  -2  140.69   12.20
  -8   6  -2  103.39    8.50
  -8   6  -2  129.19   10.90
  -6  -2   2  105.79   12.90
  -2   8   2  128.59   11.90
   8  -6   2  102.19    8.10
   8  -6   2  108.99    9.60
  -2   8   2  125.39   15.00
  -2   8   2  116.99    5.40
   8  -6   2  148.09   14.60
   8  -6   2  124.29   10.00
  -2   8   2  142.09   11.50
  -6  -2   2  144.69   12.40
  -2   8   2  110.69   15.90
  -6  -2   2  104.89    9.00
   9  -1  -2  524.05   18.70
  -1  -8  -2  531.05   23.10
   9  -1  -2  513.15   20.20
  -8   9  -2  513.35   18.30
  -8   9  -2  537.65   26.30
   9  -1  -2  561.34   21.80
  -1  -8  -2  557.04   19.10
  -8   9  -2  536.35   21.70
   9  -1  -2  532.15   17.40
  -1  -8  -2  497.85   25.40
  -9   1   2  512.75   25.00
   1   8   2  516.95   23.50
   1   8   2  509.45   25.30
  -9   1   2  520.65   18.40
   1   8   2  516.05   19.00
  -9   1   2  554.74   19.70
   8  -9   2  518.65   19.00
  -9   1   2  516.15   24.90
   1   8   2  527.05   23.60
   8  -9   2  541.35   20.50
  -8  12  -2    2.70    8.20
  -8  12  -2    0.20   13.30
  -4  -8  -2   -8.80   17.20
  12  -4  -2   14.10    9.60
  -8  12  -2    1.30    7.80
  12  -4  -2   16.20    6.20
  -4  -8  -2   33.50    8.20
 -12   4   2   13.20   12.20
   4   8   2   14.60    6.50
   4   8   2   24.20    7.40
 -12   4   2    6.40    9.40
   8 -12   2   17.50    8.90
   8 -12   2   23.50    5.50
   4   8   2   18.20   13.40
 -12   4   2   32.90   18.80
  -8  15  -2   27.00    9.50
  -7  -8  -2   41.80    9.90
  15  -7  -2   20.40    6.90
  15  -7  -2   12.50   14.10
  -8  15  -2   29.00   13.50
  -8  15  -2   20.00    8.80
 -15   7   2   16.30   17.10
 -15   7   2   13.90    9.60
   8 -15   2   37.80   11.20
   7   8   2   21.50    8.20
   8 -15   2   25.50    8.90
 -15   7   2   31.00   15.60
   7   8   2   35.60   12.50
  -7  16  -2   33.70    9.90
  16  -9  -2   17.10    6.90
  -9  -7  -2   41.80    9.90
  -7  16  -2   11.90   17.40
   9   7   2   31.60    7.80
   9   7   2   19.50   12.50
 -16   9   2   24.10   15.80
   7 -16   2   23.70   10.10
 -16   9   2   32.30   11.10
 -16   9   2   12.20   21.70
   9   7   2   35.80   16.70
   9   7   2   27.80    9.20
  -4  13  -2  -10.00   15.00
 -13   9   2    2.10    9.80
 -13   9   2    1.40   19.10
   9   4   2   -5.80    6.00
   9   4   2    8.40   12.20
   4 -13   2   17.30    9.40
   9   4   2  -11.80   15.90
  -1  10  -2  161.28    9.50
  10  -9  -2  144.99   12.60
  -1  10  -2  157.08   10.40
 -10   9   2  160.68    9.90
 -10   9   2  176.18   12.40
   9   1   2  183.88   16.30
 -10   9   2  165.38   12.70
   9   1   2  171.78   13.00
   9   1   2  183.88   15.40
   9   1   2  166.68    8.70
 -10   9   2  198.08   18.60
 -10   9   2  179.38   10.00
   9   1   2  177.68   13.80
  -9   2  -2  496.85   20.20
   2   7  -2  472.85   21.90
   2   7  -2  500.75   21.40
   7  -9  -2  490.65   18.60
   7  -9  -2  441.86   20.60
  -9   2  -2  462.05   20.40
  -9   2  -2  487.05   24.90
  -7   9   2  462.55   19.60
  -2  -7   2  452.85   22.60
  -7   9   2  488.95   23.20
   9  -2   2  471.15   15.80
  -7   9   2  489.65   16.30
  -2  -7   2  468.45   17.90
   9  -2   2  490.95   18.90
  -7   9   2  459.75   17.00
  -2  -7   2  471.55   15.00
   9  -2   2  486.15   20.70
   9  -2   2  453.55   20.10
  -7   9   2  490.75   17.80
  -9   5  -2   10.60    6.30
   4  -9  -2   14.80   15.10
  -9   5  -2    2.30   11.20
  -9   5  -2   -6.10   17.50
   5   4  -2   17.10    9.80
   4  -9  -2   13.40    8.30
   5   4  -2    7.60   10.00
   5   4  -2   16.80    9.00
   5   4  -2    0.80    8.50
   4  -9  -2   20.60    8.10
  -9   5  -2   30.80   12.10
  -4   9   2   14.00    8.70
  -4   9   2    9.20   10.80
  -5  -4   2   19.70   11.30
   9  -5   2   32.60    9.70
  -5  -4   2   15.30   10.10
   9  -5   2   12.00    4.50
  -5  -4   2   16.10   12.10
   9  -5   2   13.40    5.40
  -4   9   2   22.80    4.20
  -5  -4   2   20.90    6.40
  -4   9   2   18.40    5.20
   9  -5   2    2.40   11.00
   9  -5   2   13.90    7.70
  -4   9   2   28.90   16.90
  -4   9   2    2.10   14.00
   8   1  -2   26.50    9.70
   8   1  -2   26.10    8.70
   1  -9  -2   26.20   17.00
   8   1  -2   16.20    8.60
  -9   8  -2   17.50   16.00
  -9   8  -2   32.90    9.50
   1  -9  -2   21.80   17.30
  -9   8  -2   19.50   22.10
   1  -9  -2   31.50    6.30
   8   1  -2   23.70   10.50
  -9   8  -2   26.20   10.10
   9  -8   2   26.90    9.80
   9  -8   2   11.50    7.20
  -8  -1   2    7.00   13.50
   9  -8   2   34.20    8.70
  -8  -1   2   22.20    9.80
  -1   9   2    0.50   11.90
  -1   9   2   53.59   16.40
  -1   9   2   39.30   11.90
  -9  11  -2  105.69    9.20
  11  -2  -2  107.89   10.80
  -9  11  -2   92.89   14.60
  -2  -9  -2  109.99   19.00
  11  -2  -2   95.39    8.40
  11  -2  -2  108.39   13.40
  -9  11  -2  124.49   11.80
   2   9   2   91.89    9.80
 -11   2   2  110.59   12.40
   9 -11   2  117.49   11.20
   2   9   2   95.69    9.50
  14  -5  -2   27.40    5.90
  14  -5  -2   32.20   12.80
  -5  -9  -2   13.50    9.00
  -9  14  -2   33.30   10.10
  -5  -9  -2   23.60   25.10
  14  -5  -2   44.50   12.20
  -9  14  -2   17.70    7.50
   5   9   2   38.30    7.40
   9 -14   2   34.30   11.50
   5   9   2   31.20   10.10
 -14   5   2   37.00   14.80
   5   9   2   25.60    7.10
   9 -14   2   16.40    7.20
 -14   5   2   23.50   11.30
   5   9   2   24.30    8.80
  -9  17  -2    3.10   15.70
  17  -8  -2   -6.70    6.60
  -8  -9  -2    4.90    9.40
  -9  17  -2    9.50    9.00
 -17   8   2   17.80   19.90
   8   9   2   10.90    8.70
   9 -17   2    0.30   12.60
   8   9   2    7.90   16.50
 -17   8   2    1.10   12.20
   8   9   2    2.90    7.00
  -8  18  -2   22.20   11.50
  -8  18  -2   -1.10    9.70
  -8  18  -2   11.30   10.60
  18 -10  -2    7.10    7.50
  10   8   2   14.10    9.30
 -18  10   2   -7.90   12.00
  10   8   2    5.70   11.10
 -18  10   2   -2.60   10.80
  10   8   2   -1.40   10.30
   8 -18   2    9.60   11.10
  15 -10  -2   49.50    7.50
  -5  15  -2   41.00    8.30
 -10  -5  -2   38.30    7.60
  -5  15  -2   63.79    9.70
  10   5   2   59.69    7.60
 -15  10   2   54.29   20.60
 -15  10   2   36.70   12.20
  10   5   2   43.70    7.40
 -15  10   2   44.10   10.30
  12 -10  -2   31.80    7.10
  -2  12  -2   18.90    6.60
  -2  12  -2   11.90    7.20
 -12  10   2   -2.80   19.60
   2 -12   2    5.20   11.40
  10   2   2   28.60    5.10
  10   2   2    8.70    6.50
 -12  10   2   20.70   11.70
 -12  10   2   24.90    7.70
  10   2   2   21.00    6.20
 -12  10   2   21.00   10.20
 -12  10   2   17.50    9.40
  10   2   2   22.40   14.00
   1   9  -2   50.09    7.30
   1   9  -2   47.70   15.50
   9 -10  -2   58.69   11.20
 -10   1  -2   73.59   14.40
 -10   1  -2   56.89    7.50
  -9  10   2   60.09   16.20
  -9  10   2   74.29    9.70
  10  -1   2   60.09    8.60
  10  -1   2   49.70   11.80
  -1  -9   2   69.79    7.10
  -9  10   2   49.90   11.50
  10  -1   2   70.59   12.80
  -9  10   2   62.19    7.40
  -1  -9   2   62.69    9.40
   4   6  -2   32.20   11.90
   4   6  -2   24.80    9.70
   6 -10  -2   22.50    9.30
 -10   4  -2   21.00   13.00
   6 -10  -2   18.90    7.80
   4   6  -2   22.00   11.70
   6 -10  -2    9.60   17.80
 -10   4  -2   35.60   16.30
 -10   4  -2   41.40    9.40
  10  -4   2   30.90    8.40
  -6  10   2   15.60   11.20
  10  -4   2    9.80    8.00
  10  -4   2   23.90   10.40
  -4  -6   2   15.70    5.90
  -6  10   2   38.90   15.80
  -6  10   2   26.00    4.50
  10  -4   2   21.20   12.20
  -6  10   2   23.40    8.80
  -4  -6   2   17.90   12.30
  -6  10   2   25.20    7.30
 -10   7  -2   42.20    5.00
   3 -10  -2   38.60   16.60
 -10   7  -2   63.19   13.70
   3 -10  -2   23.20   17.20
   3 -10  -2   38.40    4.60
   7   3  -2   33.10   10.70
   3 -10  -2   43.80   12.70
 -10   7  -2   21.60   16.20
   7   3  -2   50.79   11.00
 -10   7  -2   43.00    7.30
 -10   7  -2   55.09   16.80
   7   3  -2   41.70   10.90
   7   3  -2   37.50    7.20
   7   3  -2   39.20    8.80
  -7  -3   2   37.80   13.50
  -3  10   2   38.70   13.00
  -3  10   2   51.89    5.30
  -7  -3   2   45.50    9.10
  10  -7   2   47.20    9.50
  10  -7   2   40.00    6.30
  -3  10   2   30.20   11.00
  10  -7   2   92.29   28.20
  10  -7   2   57.19   11.00
  -7  -3   2   53.69   11.90
  -3  10   2   38.40   29.60
  10   0  -2  243.48   13.00
 -10  10  -2  254.57   13.80
  10   0  -2  232.98   14.50
   0 -10  -2  285.17   24.50
  10   0  -2  232.28   12.80
 -10  10  -2  276.57   20.70
 -10  10  -2  238.08   15.80
   0 -10  -2  233.48   12.00
   0  10   2  223.78   12.10
 -10   0   2  228.88   14.70
  10 -10   2  249.78   13.90
  10 -10   2  242.88   13.60
 -10   0   2  237.48   13.10
   0  10   2  245.38   12.90
 -10  13  -2   30.30    7.20
  13  -3  -2   27.20   10.80
  13  -3  -2   29.60    5.90
 -10  13  -2   31.10    8.50
 -13   3   2   38.60    8.90
   3  10   2   18.90    6.00
  10 -13   2   37.00   11.90
   3  10   2   25.70   14.40
   3  10   2   16.50    6.30
 -13   3   2   21.10   14.10
 -10  16  -2   39.60    8.90
  16  -6  -2   32.40    6.70
  16  -6  -2   46.20   14.20
  -6 -10  -2   53.59   10.10
   6  10   2   26.50    7.80
 -16   6   2   32.40   10.20
  10 -16   2   50.39   14.60
   6  10   2   48.90   13.30
   6  10   2   31.00    9.50
 -16   6   2   62.49   16.80
 -16   6   2   33.50   15.10
  10 -16   2   30.20    7.10
 -10  19  -2  -14.30    9.70
  19  -9  -2   11.10    8.10
 -10  19  -2   16.20   11.70
  -9 -10  -2   15.90   12.20
 -10  19  -2   -7.30   18.80
   9  10   2   -5.80    8.60
  10 -19   2    4.40   14.70
   9  10   2   -9.40   22.80
   9  10   2  -11.60   11.50
 -19   9   2  -13.50   12.10
  -9  20  -2    8.90   10.80
  -9  20  -2   22.60   10.70
  20 -11  -2   -1.00    8.60
 -11  -9  -2    3.40   12.50
 -20  11   2  -17.60   13.90
  11   9   2  -13.90   10.00
  11   9   2    5.00   12.40
  -6  17  -2   19.20    8.30
 -11  -6  -2   25.20   10.70
  -6  17  -2   17.00    9.30
  11   6   2   30.20   10.40
  11   6   2   27.80    8.10
 -17  11   2   21.20   13.20
 -17  11   2   35.00   10.10
  11   6   2   30.20   10.40
  -3  14  -2    5.70    6.50
  -3  14  -2   17.50    8.90
  -3  14  -2   13.40    9.60
  11   3   2   -3.10    5.90
  11   3   2   18.10    7.00
  11   3   2   34.80   17.80
 -14  11   2    1.90   10.70
 -14  11   2    5.20   10.00
 -14  11   2   -4.60   10.30
 -14  11   2    4.90   11.20
 -14  11   2   -4.00    8.60
  11   3   2   11.40    7.10
 -11   0  -2   68.19   17.40
  11 -11  -2  107.99    8.50
   0  11  -2  110.09   12.30
   0  11  -2   99.19   10.00
 -11   0  -2   94.69   10.40
  11   0   2   93.19    7.50
 -11  11   2  118.79   13.00
  11   0   2  117.59   13.00
  11   0   2  100.19    9.00
 -11  11   2   88.09    8.40
   0 -11   2   92.49    9.50
  11   0   2   78.99    6.80
 -11  11   2  100.69   13.60
   8 -11  -2  296.07   15.40
   3   8  -2  236.48   21.20
 -11   3  -2  262.37   17.60
 -11   3  -2  268.47   18.00
   3   8  -2  293.17   13.60
   3   8  -2  273.27   12.00
  -8  11   2  289.77   11.50
  -8  11   2  259.37   15.00
  11  -3   2  258.57   18.50
  -8  11   2  263.17   11.80
  11  -3   2  278.47   12.30
  -8  11   2  292.87   13.70
  -3  -8   2  275.07   16.40
  11  -3   2  285.27   12.00
  -3  -8   2  260.27   12.50
  -8  11   2  280.47   18.10
  11  -3   2  270.27   16.20
   6   5  -2   40.50   10.20
 -11   6  -2   47.20   11.00
   6   5  -2   40.00    7.20
 -11   6  -2   50.49    8.60
   6   5  -2   34.60   12.60
 -11   6  -2   41.80   15.10
 -11   6  -2   48.80   16.00
   6   5  -2   32.20   11.40
  11  -6   2   57.09   17.80
  11  -6   2   51.09    7.10
  11  -6   2   56.89   13.30
  -5  11   2   56.39    8.70
  -5  11   2   44.40    6.60
  -6  -5   2   57.49    7.80
  -5  11   2   45.60   11.00
  11  -6   2   56.89    6.40
  -6  -5   2   49.90    7.10
   9   2  -2   18.30    6.20
 -11   9  -2   -3.40   18.20
 -11   9  -2    0.80    9.40
 -11   9  -2    9.20   14.60
   9   2  -2    9.90    8.70
   2 -11  -2   -3.40    9.80
   2 -11  -2   11.50    5.70
   9   2  -2    1.10   12.60
   9   2  -2   26.70   11.70
   2 -11  -2   16.10   21.90
  -2  11   2   10.90    6.50
  -9  -2   2   22.10    8.30
  11  -9   2    7.70    4.60
  -2  11   2    2.10    7.20
  -2  11   2   -0.10   12.60
  -9  -2   2   18.30   13.30
  11  -9   2    7.20    7.50
  12  -1  -2  123.29    9.40
 -11  12  -2  129.69   16.80
  12  -1  -2  104.29    8.20
  -1 -11  -2  106.39   13.20
 -11  12  -2  119.89   11.60
  12  -1  -2  109.39   11.10
  12  -1  -2  106.19    9.50
  -1 -11  -2   98.59   11.90
 -11  12  -2  111.09   12.60
 -12   1   2  122.99   10.20
  11 -12   2   93.19    7.50
   1  11   2  106.09    9.30
 -11  15  -2   16.70   10.80
  15  -4  -2   22.80    6.90
  15  -4  -2   26.70   12.40
 -11  15  -2   10.40   14.20
  -4 -11  -2    1.40   10.50
  15  -4  -2   24.70    6.90
   4  11   2   25.90    8.60
 -15   4   2   38.10   10.70
 -15   4   2   19.30   15.70
 -11  18  -2   -7.40    9.20
  18  -7  -2   -9.20    7.00
 -11  18  -2   11.00   13.20
  -7 -11  -2   21.30   11.20
 -11  18  -2    7.00   10.90
   7  11   2   -0.90   17.70
 -18   7   2   -4.00   11.40
 -18   7   2    3.60   20.30
  11 -18   2   -0.80   24.20
   7  11   2    1.70    9.80
   7  11   2    3.40    7.00
 -11  21  -2  -12.00   13.80
 -10 -11  -2  -13.30   13.80
  21 -10  -2  -15.70    8.80
 -11  21  -2   -4.40   14.00
  10  11   2   14.60   11.30
  19 -12  -2   10.90    8.20
 -12  -7  -2   -5.50   11.70
  -7  19  -2   -2.50   10.80
  12   7   2   -0.10    9.40
  12   7   2   17.00   10.50
 -19  12   2    2.80   14.20
 -19  12   2    6.30   11.10
  12   7   2    2.50   10.90
 -12  -4  -2    9.80    8.10
  16 -12  -2    7.70    7.40
  -4  16  -2   16.20    8.60
  -4  16  -2    8.20    7.80
  -4  16  -2    5.40   10.20
  12   4   2    0.90    7.00
 -16  12   2   24.10   14.80
 -16  12   2   23.70   11.00
  12   4   2    6.80    9.70
 -16  12   2   -3.90   11.70
 -16  12   2    2.60    9.60
 -12  -1  -2   40.60    7.90
  -1  13  -2   49.60    9.20
  -1  13  -2   43.10    8.00
  12   1   2   46.10    7.20
   1 -13   2   38.20    8.70
  12   1   2   44.40    7.80
 -13  12   2   53.09   11.90
  12   1   2   65.19   15.00
 -13  12   2   42.40   12.60
 -13  12   2   52.19    7.20
   1 -13   2   67.39   12.50
 -13  12   2   37.40    7.70
 -12   2  -2  102.59   17.30
  10 -12  -2  137.19   15.30
 -12   2  -2  141.59   13.30
   2  10  -2  108.99    9.70
   2  10  -2  102.29   11.70
 -10  12   2  100.39   12.00
 -10  12   2  107.79   15.50
  12  -2   2  104.69    7.80
  12  -2   2  113.09   15.00
  -2 -10   2  138.69   11.70
 -10  12   2  126.29   10.10
  12  -2   2  108.79    7.90
   7 -12  -2   98.99   10.20
   5   7  -2  120.09   10.10
 -12   5  -2  134.79   16.60
   5   7  -2  102.09    7.10
 -12   5  -2  120.09   12.80
   7 -12  -2  112.19   12.40
   5   7  -2   95.59   14.90
  -5  -7   2   95.79    8.30
  -7  12   2  121.09   10.00
  12  -5   2  114.69   10.70
  12  -5   2  119.09    8.40
  -5  -7   2  117.79   11.10
  -7  12   2  113.19   11.90
  -7  12   2  127.69   11.70
   8   4  -2    7.10   10.40
 -12   8  -2   14.60   10.10
 -12   8  -2   10.70    7.00
 -12   8  -2   10.80    6.10
   4 -12  -2   20.50   10.00
   8   4  -2   10.30    7.10
   8   4  -2   -4.90   13.20
   8   4  -2   13.50    5.90
   8   4  -2   14.60   12.70
 -12   8  -2   -5.40   16.60
  -4  12   2   22.60    8.70
  -4  12   2    7.20   14.00
  -4  12   2   19.80    6.70
  12  -8   2    6.70    5.40
  -8  -4   2   -2.00    6.50
 -12  11  -2  181.48   16.90
  11   1  -2  165.48   10.30
 -12  11  -2  183.88   14.40
  11   1  -2  174.98   14.00
   1 -12  -2  150.88   15.60
  11   1  -2  160.78   14.40
  11   1  -2  190.18   10.40
 -12  11  -2  183.88   16.40
  12 -11   2  189.18    9.90
  -1  12   2  165.88   10.30
 -11  -1   2  173.58   16.00
  -1  12   2  185.78   12.10
  14  -2  -2   20.50   12.50
  14  -2  -2   17.00    6.80
 -12  14  -2   31.10   10.00
  -2 -12  -2   22.20   11.70
  12 -14   2   26.50    6.80
   2  12   2   25.70    7.70
   2  12   2   18.40    7.40
 -14   2   2   23.50    9.90
 -12  17  -2   20.90   10.10
  17  -5  -2   32.70    8.00
  17  -5  -2   29.40    7.60
 -17   5   2   43.00   18.90
   5  12   2   26.90    8.00
   5  12   2   28.90    9.70
  12 -17   2   34.80    8.20
 -17   5   2   32.20   10.90
 -12  20  -2    7.20   12.60
  20  -8  -2    7.40    9.50
 -12  20  -2   -2.00   11.70
  -8 -12  -2   12.10   12.70
 -20   8   2   -6.80   24.10
 -20   8   2   10.00   12.10
   8  12   2   -3.40   12.10
   8  12   2    6.90    9.30
  12 -20   2   24.60    9.10
  -8  21  -2    5.20   11.50
 -13  -8  -2  -18.40   14.20
  -8  21  -2   -6.10   13.90
  21 -13  -2   -2.80   12.00
  -8  21  -2   -5.30   11.30
 -21  13   2    1.20   15.50
  13   8   2   -9.00   13.70
  13   8   2   12.80   12.50
  -5  18  -2    8.20    8.80
  -5  18  -2   25.90   10.10
  18 -13  -2   25.00    7.90
 -13  -5  -2   27.60    9.40
  -5  18  -2   41.50   11.30
  13   5   2   19.60   11.60
  13   5   2   11.10    8.50
 -18  13   2   20.40   13.80
  13   5   2   18.90   10.50
  -2  15  -2    9.50    9.00
  15 -13  -2    6.60    7.70
  -2  15  -2    6.80    8.30
  -2  15  -2   -1.40    8.30
 -15  13   2   17.40   12.70
   2 -15   2   26.40   12.90
 -15  13   2   25.10   14.60
 -15  13   2    5.20   12.80
  13   2   2    5.30    7.20
  13   2   2   -2.30    7.60
   2 -15   2   11.90    6.70
  13   2   2    6.20   18.30
   1  12  -2   10.80    6.90
  12 -13  -2   19.80    7.70
 -13   1  -2   13.10   20.00
 -13   1  -2    3.90    7.80
   1  12  -2    8.60    9.40
   1  12  -2   -1.30    7.90
 -12  13   2   10.10   10.20
  13  -1   2   -1.70    5.80
 -12  13   2    5.90    8.40
 -12  13   2   16.10   15.50
  -1 -12   2    4.40   11.20
  13  -1   2   -0.70    6.40
  -1 -12   2   16.50   10.30
  13  -1   2    7.50    7.80
  13  -1   2    8.20   10.70
 -12  13   2   14.60   12.30
   4   9  -2  167.08   11.10
 -13   4  -2  182.08   19.20
 -13   4  -2  177.38   14.10
   9 -13  -2  192.08   16.30
   4   9  -2  179.78   11.20
 -13   4  -2  180.68   12.80
  13  -4   2  192.68   14.50
  -9  13   2  179.68   13.90
  -9  13   2  155.78    8.60
  -9  13   2  180.58   12.20
  -9  13   2  147.49    9.60
  13  -4   2  173.58    9.30
  -9  13   2  156.78    8.60
  -4  -9   2  158.58   11.20
  13  -4   2  176.88    9.60
 -13   7  -2   19.00   18.30
   7   6  -2   -7.00   13.00
   6 -13  -2   23.10   12.30
 -13   7  -2  -13.90   16.40
   7   6  -2   18.60   10.80
 -13   7  -2   20.40    9.90
  13  -7   2   22.00    8.00
  -7  -6   2   32.80    9.10
  -6  13   2   33.80    7.40
  -6  13   2   19.40    8.40
  13  -7   2   18.30    6.50
  -7  -6   2   16.00    8.80
  -6  13   2   21.20   13.70
  10   3  -2    2.60    6.30
   3 -13  -2   20.30    5.20
  10   3  -2    6.10    7.10
  10   3  -2   28.30   14.70
 -13  10  -2   21.70   10.70
 -13  10  -2   16.50    9.50
   3 -13  -2   41.00   12.10
   3 -13  -2    6.90    9.90
  10   3  -2   15.40   11.60
  -3  13   2   31.20    9.60
  -3  13   2    9.50    7.10
  13 -10   2   10.70    5.20
  13 -10   2   30.10    8.30
  -3  13   2   27.10    8.00
 -10  -3   2   16.60    6.80
  13   0  -2   30.80   11.30
  13   0  -2   15.20    6.40
  13   0  -2   25.90    8.00
   0 -13  -2   29.60   10.10
   0 -13  -2   27.20   13.10
 -13  13  -2   21.60   10.40
 -13  13  -2   13.30   14.60
 -13  13  -2   30.20   15.70
  13   0  -2   26.20   11.40
   0  13   2   21.70    6.80
   0  13   2   12.00    7.20
 -13   0   2   30.90    8.20
  -3 -13  -2   38.70   11.60
  16  -3  -2   48.90    8.70
  16  -3  -2   60.29    7.60
 -13  16  -2   66.19   11.20
 -13  16  -2   51.59   11.80
   3  13   2   62.19    8.00
   3  13   2   66.69   10.10
 -13  19  -2   -5.90   12.00
  19  -6  -2  -12.70    8.30
 -13  19  -2    3.10   11.70
  -6 -13  -2   15.00   12.60
 -19   6   2   17.60   22.80
   6  13   2  -14.80   10.60
   6  13   2   -1.90    8.20
  13 -19   2  -11.70    9.20
  20 -14  -2    3.30    9.00
  -6  20  -2    8.50    9.90
  -6  20  -2   36.20   12.00
  -6  20  -2   30.50   12.30
 -14  -6  -2  -14.90   13.60
 -20  14   2   29.70   12.90
 -20  14   2    2.20   15.00
  14   6   2   19.00   12.60
  14   6   2   17.20   12.50
  -3  17  -2    6.90    9.40
  17 -14  -2   -3.60    9.00
 -14  -3  -2   -1.30    8.60
  -3  17  -2   26.90   11.00
 -17  14   2    7.30   11.80
 -17  14   2   11.20   12.80
 -17  14   2  -18.70   14.40
  14   3   2    3.00    7.30
  14   3   2    9.90    9.50
   3 -17   2   -2.80   14.50
  14 -14  -2   19.20    7.30
 -14   0  -2    6.80    8.20
   0  14  -2   16.60    9.30
   0  14  -2    5.70    8.30
   0  14  -2   23.70    8.50
 -14  14   2    0.50   15.70
  14   0   2   30.20   13.30
   0 -14   2   11.80    9.10
  14   0   2   13.30    7.00
  14   0   2    6.40    6.50
 -14   3  -2   23.60   20.20
   3  11  -2    3.60    7.10
 -14   3  -2   29.00    9.80
 -11  14   2   16.00    9.40
 -11  14   2    5.90    8.40
  -3 -11   2   -6.20    8.40
 -11  14   2    7.10    9.90
 -11  14   2    9.80   10.80
 -11  14   2   12.80    9.60
   6   8  -2   27.50    7.50
   6   8  -2   11.10   16.30
 -14   6  -2   36.20   16.60
   6   8  -2    1.20    7.10
   8 -14  -2    7.60   13.50
 -14   6  -2   17.70    9.70
   8 -14  -2   13.80   10.20
   6   8  -2   -0.20   15.60
 -14   6  -2   33.50   13.40
 -14   6  -2    4.80   18.00
  -8  14   2   11.10    7.00
  -8  14   2   22.40   13.20
  -8  14   2   22.30    8.90
  -6  -8   2   11.80    7.30
  14  -6   2   14.80    4.90
 -14   9  -2   11.30   10.40
 -14   9  -2   16.20    7.70
   9   5  -2   19.70    6.30
   9   5  -2   25.90   16.80
 -14   9  -2    9.60    9.90
   9   5  -2   31.50    8.60
  -5  14   2   18.40    7.80
  -5  14   2    7.90    7.50
  -9  -5   2   12.00    7.20
  -5  14   2   29.90    7.90
  14  -9   2   15.90    4.80
   2 -14  -2   52.99   13.80
  12   2  -2   38.20   12.70
  12   2  -2   10.50   13.50
  12   2  -2   29.50    9.70
  12   2  -2   39.20    7.10
  14 -12   2   32.00    6.40
  14 -12   2   45.20   11.20
  -2  14   2   30.50    8.30
 -12  -2   2   31.90    8.70
 -12  -2   2   37.00   23.00
  15  -1  -2   40.80    7.40
 -14  15  -2   24.40   12.40
 -14  15  -2   50.69   10.40
 -14  15  -2   49.00   15.40
  15  -1  -2   44.60    9.10
  15  -1  -2   53.09    9.40
  14 -15   2   61.09    7.80
   1  14   2   55.79    9.60
  18  -4  -2  -16.90    8.00
  -4 -14  -2   20.70   12.70
  18  -4  -2  -15.00    7.30
 -14  18  -2    0.10   12.40
   4  14   2   -9.40    9.80
   4  14   2   -9.80    8.20
  14 -18   2   -5.20    7.80
 -18   4   2   -9.30   12.10
 -14  21  -2   17.70   23.20
  21  -7  -2    1.90   10.70
  -7 -14  -2    4.70   15.20
 -14  21  -2   13.40   13.00
   7  14   2    4.20   10.00
  14 -21   2   12.60   11.60
 -21   7   2   15.90   13.70
   7  14   2   18.50   12.00
  19 -15  -2   25.80    9.40
  -4  19  -2   -7.00   11.50
  15   4   2    7.20   11.80
  15   4   2   16.40    9.30
 -19  15   2   13.30   13.30
   4 -19   2  -22.50   16.80
  15   4   2   29.00   12.00
 -19  15   2   -1.40   18.00
  16 -15  -2   14.60    7.90
  -1  16  -2   27.70   10.10
  -1  16  -2   28.80    8.90
  -1  16  -2   16.20    8.50
  15   1   2   36.00    9.00
 -16  15   2   30.30   13.50
  15   1   2   23.00   16.40
 -16  15   2   17.90   14.30
 -16  15   2   29.60   17.50
   2  13  -2   18.10    7.70
  13 -15  -2   11.40    7.10
 -15   2  -2    0.50   16.30
   2  13  -2   17.50   10.50
 -15   2  -2   -0.10    9.60
 -13  15   2   23.60   14.50
  15  -2   2   -1.70    6.10
 -13  15   2   -0.10   14.10
  -2 -13   2    5.40   11.90
 -13  15   2    5.20   10.00
 -13  15   2    7.40   10.00
  10 -15  -2   23.40   16.90
   5  10  -2   35.00    8.60
   5  10  -2   53.89    8.40
 -15   5  -2   60.29   13.20
 -15   5  -2   45.20   19.10
 -15   5  -2   45.80   11.60
   5  10  -2   35.80   18.40
  15  -5   2   40.60    7.20
 -10  15   2   50.59   13.90
  15  -5   2   39.30   13.50
  -5 -10   2   43.30    9.20
 -10  15   2   53.69    9.30
 -10  15   2   38.30    9.00
 -15   8  -2   84.89   13.50
   8   7  -2   73.59   17.50
 -15   8  -2   71.39   11.90
 -15   8  -2   91.49   12.30
   8   7  -2   98.59   13.00
   8   7  -2  108.99   11.30
  -8  -7   2   76.59   10.10
  -7  15   2  109.39   17.90
  15  -8   2  101.89    7.70
 -15  11  -2   15.50   12.40
  11   4  -2   34.80   22.00
  11   4  -2   16.30    6.80
  11   4  -2   16.50    9.70
 -15  11  -2   16.30    9.80
  15 -11   2   25.00    6.10
 -11  -4   2    3.80    7.00
  -4  15   2   16.40   10.90
  -4  15   2    1.20    8.70
   1 -15  -2   19.40   13.20
  14   1  -2    6.20   15.20
  14   1  -2   16.20    8.80
 -15  14  -2   10.60   15.40
  14   1  -2   13.60   13.00
  -1  15   2    4.90    7.90
  -1  15   2   17.30   10.40
 -15  17  -2   41.30   10.90
 -15  17  -2   14.20   13.90
  17  -2  -2   19.80   10.10
  17  -2  -2   27.30    7.20
  -2 -15  -2   36.90   14.80
   2  15   2   13.40    8.20
   2  15   2   10.00    8.90
 -17   2   2   21.60   10.30
  20  -5  -2   -6.90   10.10
 -15  20  -2    9.60   14.90
 -15  20  -2   -1.10   11.70
  20  -5  -2   -5.90    9.80
   5  15   2    5.40   11.70
   5  15   2   19.60   11.70
  15 -20   2    3.20   10.50
 -16  -5  -2    3.60   12.90
 -21  16   2    3.70   14.40
  -2  18  -2   24.30   11.50
  18 -16  -2   17.40    9.00
 -16  -2  -2   19.50   10.10
  -2  18  -2    5.80    9.30
  -2  18  -2   20.80   11.90
  16   2   2  -16.10   20.00
 -18  16   2   39.20   14.80
   2 -18   2   35.00   15.60
 -18  16   2   -7.50   17.10
 -16   1  -2   34.10   10.40
  15 -16  -2   52.49    8.10
   1  15  -2   30.50   10.60
   1  15  -2   30.50    8.60
  16  -1   2   40.60    7.10
  16  -1   2   40.50    8.80
  16  -1   2   24.20    9.80
  -1 -15   2   51.59   14.70
 -15  16   2   37.80   13.40
   4  12  -2   13.80    8.20
   4  12  -2    1.00    9.80
   4  12  -2   -1.30    8.30
 -16   4  -2    7.20   11.00
 -12  16   2   -1.10   10.20
  16  -4   2    9.90    7.20
 -12  16   2   -1.70   12.50
  16  -4   2   -0.90    6.10
 -12  16   2    1.00    9.20
 -16   7  -2  -14.30   16.80
 -16   7  -2   -1.80   10.80
 -16   7  -2  -18.80   17.30
   9 -16  -2  -27.20   15.30
   7   9  -2  -25.20   19.80
 -16   7  -2  -15.40   10.30
  -9  16   2    7.00    8.40
  -9  16   2   15.00   16.90
  16  -7   2   -6.40   10.10
  -9  16   2   12.20    8.70
 -16  10  -2   28.90   10.70
  10   6  -2   31.80    9.80
 -16  10  -2   15.80   13.00
 -16  10  -2   47.50    9.60
  10   6  -2   34.90    7.60
  10   6  -2   17.50    8.90
  10   6  -2   34.70   11.40
 -10  -6   2   25.80    8.70
  -6  16   2   13.50    8.80
  -6  16   2   37.40   11.00
  -6  16   2   46.80   10.90
  16 -10   2   48.10    6.80
  13   3  -2   14.90   10.50
 -16  13  -2    4.50   12.60
  13   3  -2    0.10   16.80
 -16  13  -2   10.60   11.90
  -3  16   2    3.90    8.10
  -3  16   2  -15.20    9.10
 -13  -3   2   20.20    8.60
  -3  16   2   -1.90   10.50
 -16  16  -2    5.60   11.80
  16   0  -2  -12.70   13.00
 -16  16  -2   18.00   13.50
  16   0  -2   -2.80    8.00
   0 -16  -2    5.30   15.20
  16 -16   2   11.90    8.00
   0  16   2  -11.50   12.00
 -16  19  -2   -8.50   15.50
 -16  19  -2   20.70   11.50
  -3 -16  -2    6.80   15.70
  19  -3  -2    7.50    8.30
   3  16   2    0.40   10.70
  16 -19   2   12.00    9.30
 -19   3   2   21.40   10.90
  -3  20  -2  -23.00   12.50
  20 -17  -2   -2.90   10.20
 -20  17   2   -4.90   19.20
  17   3   2  -12.50    8.90
  17   3   2   -5.60   13.70
   0  17  -2   29.40   11.80
 -17   0  -2   23.60   10.00
   0  17  -2   13.30   11.20
  17   0   2   18.60   11.10
   0 -17   2   -1.90   15.80
 -17  17   2   10.20   16.30
 -17  17   2    2.40   10.80
  17   0   2    4.80    7.20
 -17  17   2  -22.80   14.50
   3  14  -2   20.10    8.20
   3  14  -2   14.80    8.80
 -17   3  -2   44.80   15.20
  14 -17  -2   21.20    9.20
 -17   3  -2   23.30   11.00
 -14  17   2   32.70   11.60
  17  -3   2   18.10    7.10
  -3 -14   2   48.70   14.10
 -14  17   2   34.50   14.40
  17  -3   2   18.10    7.10
   6  11  -2   13.50   10.30
  11 -17  -2   11.10   11.50
 -17   6  -2   -1.00   11.50
   6  11  -2    1.60    9.80
   6  11  -2   -3.60    7.80
   6  11  -2   32.50   22.10
 -11  17   2    4.90    9.30
 -11  17   2   16.40    9.20
 -11  17   2    1.80   15.20
  17  -6   2    3.70    5.90
  17  -6   2    4.40   14.50
   9   8  -2    6.70   23.40
   9   8  -2   -7.40    6.50
 -17   9  -2    0.80   12.60
   9   8  -2   18.30    8.90
 -17   9  -2   -3.10   10.80
  -8  17   2   12.50   11.40
  17  -9   2   11.90    6.30
  -9  -8   2    2.30    8.20
  -8  17   2   20.60    9.50
  -8  17   2    1.30    8.80
  12   5  -2   22.60   11.60
 -17  12  -2   14.10   10.50
  12   5  -2   24.30    9.80
  -5  17   2    2.70    7.80
 -12  -5   2   17.70    9.40
  17 -12   2    6.30    6.70
  -5  17   2   13.60   10.70
  15   2  -2   -4.50   10.70
 -17  15  -2   12.30   15.70
  15   2  -2    4.40   16.90
  15   2  -2   -6.70    6.70
 -15  -2   2    9.30    9.70
  -2  17   2   -6.40   11.70
  -2  17   2  -18.10   11.30
  17 -15   2    2.90    7.90
  -2  17   2  -21.00    9.60
  18  -1  -2  -12.70   12.10
 -17  18  -2   18.30   10.70
  -1 -17  -2  -19.20   17.40
 -17  18  -2   11.80   16.00
  18  -1  -2   13.40    8.40
  17 -18   2   -1.30    9.00
   1  17   2    1.30   10.40
   1  17   2    0.00   10.10
  -1  19  -2   -7.50   13.70
  -1  19  -2   10.70   10.50
 -19  18   2    4.10   19.00
  18   1   2   -1.80    8.80
 -19  18   2   18.00   16.70
  18   1   2   10.20   12.80
   1 -19   2   45.40   19.40
   2  16  -2    5.40   10.70
  16 -18  -2   35.70   10.10
 -18   2  -2   17.10   11.40
 -16  18   2   -4.40   10.10
  18  -2   2   23.70   10.10
 -16  18   2    9.80   14.50
  -2 -16   2   21.90   15.60
 -18   5  -2   14.50   13.10
  13 -18  -2   18.10    9.80
   5  13  -2   24.50    9.40
   5  13  -2    1.70   11.80
  18  -5   2   27.00    7.40
 -13  18   2    9.10   14.60
  18  -5   2   18.30    7.40
 -13  18   2   11.30   11.20
  10 -18  -2    1.60   19.60
   8  10  -2  -10.70   24.80
   8  10  -2    7.80    7.50
 -18   8  -2   -2.90   11.10
  -8 -10   2  -14.40    9.60
  18  -8   2   -1.70    6.10
 -10  18   2   -6.00   24.20
  11   7  -2   -1.20    9.60
 -18  11  -2   -6.50    9.90
  11   7  -2    7.20    8.30
  18 -11   2    9.00    6.50
  -7  18   2   11.20    9.60
  -7  18   2   15.70   10.30
 -18  14  -2   20.20   13.80
 -18  14  -2   26.60   12.00
  14   4  -2   38.80   10.40
  14   4  -2   22.90    8.30
  14   4  -2   20.20   12.90
  -4  18   2   19.70   10.10
  -4  18   2   18.90   12.10
 -14  -4   2   27.50    9.10
  18 -14   2   33.10    7.50
 -18  17  -2   34.40   16.60
   1 -18  -2  -22.60   16.60
  17   1  -2    8.20    8.40
  -1  18   2   -3.30    9.70
  -1  18   2  -19.70   13.40
  18 -17   2    0.80    8.40
  -1  18   2  -14.80   10.90
 -17  -1   2    3.50   10.70
  -2 -18  -2   39.30   19.00
   1  18  -2   15.90   11.10
 -19   1  -2    8.00   13.40
   1  18  -2   15.40   11.90
 -18  19   2    1.70   17.70
  19  -1   2    1.60   12.10
  -1 -18   2    2.70   17.50
 -18  19   2   46.70   19.10
 -18  19   2  -15.20   14.30
  15 -19  -2   10.00   11.50
   4  15  -2   16.30   10.10
 -19   4  -2   21.60   13.70
 -19   4  -2   21.30   13.30
 -15  19   2    6.30   11.60
 -15  19   2   30.10   14.30
  19  -4   2   23.20    8.40
  19  -4   2   25.20    9.60
   7  12  -2  -12.50   10.50
   7  12  -2   -4.70    8.60
 -19   7  -2    8.10   12.20
   7  12  -2   16.60   10.50
  12 -19  -2   22.70   12.40
  19  -7   2    7.90    7.00
 -12  19   2    1.70   10.30
  19  -7   2    1.20    7.90
 -12  19   2    4.90   18.90
 -19  10  -2  -16.40   11.90
  10   9  -2    0.00    7.80
  -9  19   2   11.80   11.80
  19 -10   2    4.60    6.80
 -10  -9   2    3.50    9.20
  -9  19   2   26.40   11.00
  -9  19   2   17.80   10.20
  13   6  -2   13.50   13.10
  13   6  -2   35.90    8.90
 -19  13  -2   35.80   18.30
  13   6  -2   44.60   11.70
 -19  13  -2   27.60   12.00
  -6  19   2   54.49   13.00
  -6  19   2   22.40   10.80
 -13  -6   2   32.10    9.60
  -6  19   2   21.10   10.20
  16   3  -2   16.90    9.30
 -19  16  -2   -6.40   14.50
   3 -19  -2   20.80   18.00
 -19  16  -2  -11.20   14.50
  16   3  -2   37.90   14.10
  19 -16   2   22.40    8.40
 -16  -3   2   11.80    8.90
  -3  19   2   15.90   12.60
   0 -19  -2  -33.90   18.10
 -19   0   2  -14.40   11.80
 -20   3  -2  -15.70   12.60
   3  17  -2    6.40   12.60
  17 -20  -2    3.00   13.10
  -3 -17   2    0.20   17.30
  20  -3   2   -7.50    8.30
 -17  20   2    4.60   17.60
   6  14  -2   18.10    9.90
  14 -20  -2    1.50   12.20
 -20   6  -2  -19.60   13.20
   6  14  -2    7.10   12.10
 -20   6  -2   26.20   13.80
 -14  20   2    5.80   13.30
 -14  20   2    1.80   12.10
  20  -6   2   10.50    8.60
   9  11  -2   -6.30   11.80
 -20   9  -2   -5.10   13.40
   9  11  -2    6.30    8.50
   9  11  -2  -12.90   11.90
 -11  20   2   -6.50   10.60
  20  -9   2    6.10    7.80
 -11  20   2  -16.50   12.20
 -11  20   2   -8.50   11.90
  12   8  -2  -31.50   14.30
 -20  12  -2    8.10   12.30
 -20  12  -2   -9.80   14.50
  12   8  -2   -3.00    8.50
  12   8  -2  -19.40   11.20
  -8  20   2   -2.90   10.50
  20 -12   2   -7.30    7.50
  -8  20   2  -18.10   11.00
 -12  -8   2   19.40   13.20
  -8  20   2   20.40   12.00
 -20  15  -2   16.00   16.50
  15   5  -2   19.30   10.50
  15   5  -2    5.80    8.80
  15   5  -2    3.90   13.60
 -15  -5   2    3.50   10.70
  -5  20   2   -7.50   12.10
  20 -15   2    7.70    8.70
   2 -20  -2  -38.20   18.90
  -5 -16   2   72.39   22.90
 -21   8  -2    5.50   13.30
   8  13  -2   -0.10   13.40
   8  13  -2  -10.70   11.70
 -21   8  -2   10.90   14.10
 -13  21   2  -21.20   12.60
 -13  21   2  -10.60   13.50
  -8 -13   2    2.10   13.00
  21  -8   2    8.20    8.50
  11  10  -2   15.10   10.10
 -21  11  -2   31.20   18.40
 -11 -10   2   39.80   12.10
 -10  21   2    0.10   12.10
  21 -11   2   22.80    9.40
  14   7  -2   -6.90    9.70
  14   7  -2    9.50   15.60
  14   7  -2   12.00   11.20
 -21  14  -2   -0.60   15.60
  -7  21   2    0.00   13.90
 -14  -7   2   -7.20   22.50
   0   0  -3   44.90    3.90
   0   0  -3   49.40    4.60
   0   0  -3   49.60    4.80
   0   0   3   47.50    4.20
   0   0   3   44.50    3.80
   0   0   3   47.30    5.10
   0   0   3   52.09    4.80
  -1   2  -3  598.04   19.90
  -1   2  -3  632.24   19.70
  -1  -1  -3  572.34   19.60
   2  -1  -3  560.94   18.90
  -1  -1  -3  622.84   19.00
  -1   2  -3  579.54   18.90
   2  -1  -3  591.14   18.90
  -1   2  -3  576.14   18.00
  -1  -1  -3  620.14   18.70
   2  -1  -3  623.44   19.80
  -1  -1  -3  591.34   19.50
   1  -2   3  601.64   19.70
   1   1   3  618.44   18.60
  -2   1   3  637.24   19.30
   1  -2   3  616.44   19.10
  -2   1   3  593.24   18.00
  -2   1   3  581.94   19.00
  -2   1   3  594.94   18.80
   1   1   3  571.84   18.30
   1   1   3  605.24   18.90
  -2   1   3  624.24   18.50
   1  -2   3  598.64   19.40
   1   1   3  629.34   19.60
   1  -2   3  572.54   18.00
   1   1   3  593.04   19.40
  -2   1  -3   79.99    7.20
   1   1  -3   85.19    7.40
   1   1  -3   81.59    5.90
   1   1  -3   68.09    6.00
  -2   1  -3   78.19    5.40
   1   1  -3   75.69    5.40
  -2   1  -3   81.29    5.50
   1  -2  -3   73.69    4.70
   1   1  -3   68.39    5.40
  -1   2   3   81.69    4.60
  -1   2   3   81.59    7.20
  -1  -1   3   77.79    6.60
  -1  -1   3   86.99    7.20
  -1  -1   3   82.99    5.30
   2  -1   3   78.99    5.10
  -1  -1   3   78.49    5.30
  -1  -1   3   83.19    6.00
   2  -1   3   80.09    5.40
   2  -1   3   89.79    7.50
   2  -1   3   75.69    5.50
  -1   2   3   77.19    6.70
  -2  -2  -3 2249.27   66.29
  -2   4  -3 2178.08   64.19
   4  -2  -3 2246.08   65.39
  -2   4  -3 2224.08   66.49
  -2   4  -3 2218.88   65.29
  -2  -2  -3 2283.07   64.79
   4  -2  -3 2213.98   65.89
  -2  -2  -3 2133.29   65.19
   4  -2  -3 2211.08   64.79
  -2  -2  -3 2323.77   65.49
  -2   4  -3 2227.88   63.69
  -2  -2  -3 2149.69   64.59
  -2   4  -3 2341.27   66.09
  -4   2   3 2186.78   65.69
  -4   2   3 2180.48   63.79
   2  -4   3 2229.08   65.29
   2  -4   3 2260.97   64.19
   2  -4   3 2198.28   63.59
   2   2   3 2279.87   65.49
   2  -4   3 2241.08   66.29
  -4   2   3 2186.98   64.79
   2   2   3 2270.47   65.99
  -4   2   3 2198.28   64.59
  -4   2   3 2243.58   64.99
   2   2   3 2195.58   64.89
   2  -4   3 2209.18   65.79
  -4   2   3 2202.18   63.89
   2   2   3 2345.27   64.89
   2   2   3 2182.68   65.19
   0   3  -3  274.27   11.70
   3  -3  -3  257.27   12.00
   0   3  -3  271.07   12.10
  -3   0  -3  276.27   12.70
  -3   0  -3  268.87   11.10
   3  -3  -3  264.27   11.50
  -3   0  -3  285.67   10.90
   0   3  -3  267.17   12.00
  -3   0  -3  281.17   12.30
   0   3  -3  272.77   10.80
   0  -3   3  265.27   12.20
   0  -3   3  256.37   12.00
   3   0   3  258.87   10.60
  -3   3   3  275.77   12.70
  -3   3   3  280.97   12.80
   3   0   3  253.07   10.60
   0  -3   3  283.47   11.10
  -3   3   3  261.27   11.00
   3   0   3  270.27   13.50
   0  -3   3  272.97   11.70
  -3   3  -3  477.65   16.00
  -3   3  -3  471.95   15.60
   0  -3  -3  468.75   17.70
   0  -3  -3  482.45   16.80
  -3   3  -3  476.75   17.70
   3   0  -3  468.25   15.60
   3   0  -3  512.65   17.70
   0  -3  -3  493.95   15.60
   3   0  -3  494.45   17.00
   3   0  -3  469.75   16.40
   0   3   3  501.45   15.70
  -3   0   3  480.25   15.80
   3  -3   3  501.65   16.20
   0   3   3  469.85   15.30
   3  -3   3  479.85   18.00
  -3   0   3  496.45   16.30
   0   3   3  471.25   17.70
  -3   0   3  495.25   17.30
  -3   0   3  506.95   16.50
   3  -3   3  453.15   15.50
   6  -3  -3  596.54   21.10
  -3  -3  -3  599.24   21.10
  -3   6  -3  561.64   18.90
  -3   6  -3  601.84   18.00
  -3  -3  -3  572.24   20.90
   6  -3  -3  598.94   19.30
  -3  -3  -3  592.64   20.20
  -3  -3  -3  580.44   20.50
   6  -3  -3  615.94   24.50
   6  -3  -3  574.04   19.80
  -3   6  -3  554.54   21.30
  -3   6  -3  599.64   23.00
  -6   3   3  610.84   23.10
  -6   3   3  588.44   20.00
   3  -6   3  586.34   23.20
   3   3   3  594.34   20.60
   3  -6   3  570.14   18.80
  -6   3   3  561.54   19.10
   3   3   3  562.24   20.80
   3  -6   3  575.64   23.00
   3   3   3  565.14   21.90
   3   3   3  609.84   20.50
  -6   3   3  605.04   20.30
   3   3   3  561.44   21.20
   3  -6   3  573.84   21.00
   3   3   3  604.74   21.60
  -6   3   3  587.44   18.10
   3  -6   3  587.34   17.50
  -6   3   3  567.74   19.40
  -4  -1  -3    1.40    8.00
  -1   5  -3    4.20    8.50
   5  -4  -3    7.00    9.10
  -1   5  -3   15.90    8.60
  -1   5  -3   14.30   11.40
  -1   5  -3   19.90    6.60
  -4  -1  -3    2.10    8.80
   5  -4  -3   11.40    7.00
  -4  -1  -3    7.80    9.50
   4   1   3    3.00    7.00
   4   1   3   21.20    8.40
   1  -5   3    9.20    9.70
  -5   4   3   15.30    7.10
   1  -5   3   17.10    8.30
   1  -5   3    1.70    6.20
   1  -5   3   12.30   11.40
   4   1   3    2.80    8.60
  -5   4   3   -3.70   10.40
  -5   4   3   -7.60    8.50
   1  -5   3   18.60    5.80
  -4   2  -3  619.14   19.60
   2   2  -3  636.94   21.50
  -4   2  -3  629.74   21.90
   2   2  -3  616.84   20.30
  -4   2  -3  610.04   19.40
   2  -4  -3  612.84   22.40
  -4   2  -3  602.84   20.30
   2  -4  -3  629.24   20.90
   2  -4  -3  597.04   19.20
   2   2  -3  622.04   20.60
   2   2  -3  644.24   21.00
   2   2  -3  665.93   21.00
  -2   4   3  635.04   19.10
   4  -2   3  635.74   19.50
  -2  -2   3  615.34   20.70
   4  -2   3  627.14   19.40
  -2  -2   3  630.24   20.90
   4  -2   3  627.84   20.40
   4  -2   3  661.63   22.00
  -2   4   3  596.34   22.10
  -2  -2   3  652.43   20.10
  -2  -2   3  653.03   21.80
  -2   4   3  587.64   20.10
  -1  -4  -3  394.76   15.70
  -1  -4  -3  410.76   16.90
   5  -1  -3  431.76   15.00
   5  -1  -3  388.96   13.60
   5  -1  -3  393.66   15.50
  -4   5  -3  396.06   15.50
   5  -1  -3  384.56   17.70
  -1  -4  -3  413.66   14.60
  -1  -4  -3  403.56   15.10
  -4   5  -3  407.46   17.90
   5  -1  -3  428.76   13.50
   1   4   3  409.16   15.10
   1   4   3  390.66   14.40
   1   4   3  377.06   16.60
  -5   1   3  410.06   17.40
   4  -5   3  415.36   13.50
   4  -5   3  405.86   15.40
  -5   1   3  409.86   15.00
   4  -5   3  441.66   18.20
  -5   1   3  407.36   13.90
  -5   1   3  425.96   15.20
   1   4   3  385.76   15.60
   1   4   3  394.06   16.40
  -4   8  -3  398.26   20.90
  -4  -4  -3  398.96   17.50
  -4  -4  -3  399.76   16.80
   8  -4  -3  362.16   23.90
  -4   8  -3  379.86   15.10
  -4  -4  -3  385.46   17.70
  -4   8  -3  408.36   18.50
  -4   8  -3  384.06   22.50
  -4  -4  -3  415.26   20.60
   8  -4  -3  392.76   17.20
   4  -8   3  415.66   26.00
  -8   4   3  407.26   18.80
   4   4   3  428.56   17.00
   4   4   3  410.76   18.30
  -8   4   3  388.06   21.50
   4   4   3  382.96   17.10
  -8   4   3  400.66   16.80
   4   4   3  380.96   19.20
  -8   4   3  419.56   16.60
   4   4   3  396.76   19.10
   4   4   3  401.36   14.50
   4   4   3  412.66   17.10
   4  -8   3  416.06   14.80
   4  -8   3  396.06   18.50
  -8   4   3  421.16   17.00
  -8   4   3  399.86   15.70
  -8   4   3  417.36   13.30
  -2   7  -3  315.37   17.90
  -2   7  -3  332.27   16.20
  -5  -2  -3  322.87   15.90
   7  -5  -3  326.97   16.30
  -5  -2  -3  332.97   15.40
   7  -5  -3  333.07   14.80
  -2   7  -3  293.27   18.20
  -5  -2  -3  313.47   14.00
  -5  -2  -3  308.07   15.30
  -2   7  -3  299.27   13.30
  -5  -2  -3  330.87   16.50
  -7   5   3  326.17   14.80
  -7   5   3  331.37   18.60
   5   2   3  322.47   15.00
   2  -7   3  322.97   13.90
   5   2   3  315.37   15.20
  -7   5   3  340.57   13.30
   5   2   3  314.77   14.40
   5   2   3  326.37   15.60
   2  -7   3  321.47   19.20
   5   2   3  311.47   13.60
   2  -7   3  346.57   16.60
   2  -7   3  301.97   17.30
  -7   5   3  304.17   15.70
  -7   5   3  305.67   13.50
  -7   5   3  320.97   13.10
   5   2   3  336.97   12.80
   5   2   3  329.67   18.40
   1   4  -3    7.60    8.70
  -5   1  -3    3.60    7.40
  -5   1  -3   10.80    9.80
   4  -5  -3   31.20   11.10
   1   4  -3    1.30    7.80
   1   4  -3    4.20    6.00
  -5   1  -3   13.70    8.10
   4  -5  -3    6.30    6.70
   5  -1   3    0.40    5.40
  -4   5   3    6.40    6.70
  -1  -4   3    0.60    5.60
  -4   5   3   11.00    5.10
  -1  -4   3   13.00    9.60
  -1  -4   3   18.90    8.30
  -4   5   3    1.00    9.80
  -4   5   3   12.60    6.10
   5  -1   3   18.50    8.00
   5  -1   3    8.60    7.80
  -1  -4   3   20.30    6.90
  -4   5   3   10.20    8.00
   4   1  -3  281.87   12.20
   1  -5  -3  280.87    9.80
  -5   4  -3  273.17   11.00
  -5   4  -3  276.47   15.10
   1  -5  -3  269.37   12.40
   1  -5  -3  248.98   11.80
   4   1  -3  270.17   11.80
  -5   4  -3  271.37   11.00
   4   1  -3  283.57   14.50
   4   1  -3  263.67   11.60
  -4  -1   3  258.57   10.80
  -1   5   3  255.67   11.50
  -4  -1   3  271.87   12.60
   5  -4   3  282.07   11.20
  -1   5   3  244.78   13.50
  -4  -1   3  274.87   11.80
  -1   5   3  249.97   14.20
  -1   5   3  269.77   10.20
  -1   5   3  264.27   12.20
  -4  -1   3  248.68   13.70
   5  -4   3  261.37   14.20
   7  -2  -3   54.79    8.50
  -2  -5  -3   43.70   12.20
  -2  -5  -3   50.29   12.60
  -5   7  -3   42.70   13.20
  -5   7  -3   60.59    5.50
  -5   7  -3   55.69   13.00
  -5   7  -3   57.39   10.00
   7  -2  -3   45.70   12.70
   7  -2  -3   58.79    9.90
   7  -2  -3   65.59    7.30
  -2  -5  -3   49.70    7.70
  -5   7  -3   60.39    5.30
   7  -2  -3   51.39    6.00
   7  -2  -3   56.19    5.30
  -2  -5  -3   46.80    9.70
  -7   2   3   40.90   12.60
   5  -7   3   67.59    5.70
   2   5   3   45.40   10.90
  -7   2   3   57.39    6.10
   2   5   3   54.99    8.90
   2   5   3   60.39   10.10
   2   5   3   57.49    9.90
  -7   2   3   58.99    6.10
   5  -7   3   49.60    8.70
   5  -7   3   46.40   12.10
  -7   2   3   50.99    8.60
   2   5   3   58.19   11.70
  -7   2   3   54.99    8.90
  -7   2   3   60.29    7.50
  10  -5  -3   36.40    9.90
  -5  10  -3   16.10    8.70
  -5  10  -3    5.30   13.30
  -5  10  -3   27.90   15.20
  10  -5  -3   17.60    9.30
  -5  -5  -3    3.80   12.10
  -5  -5  -3   14.20   13.60
   5 -10   3   16.30    6.70
   5   5   3   28.70   11.20
 -10   5   3    9.90    9.20
   5   5   3   21.70   11.70
   5   5   3    3.20   10.50
   5   5   3   15.30    7.30
   5 -10   3   18.90    6.20
   5   5   3   30.60   11.20
 -10   5   3   11.70   10.90
 -10   5   3   27.60   17.80
 -10   5   3    7.20    9.70
   9  -6  -3  160.48   13.40
  -6  -3  -3  126.39   11.50
   9  -6  -3  143.69   12.70
  -3   9  -3  153.98   12.30
  -3   9  -3  145.59   15.40
  -3   9  -3  138.69   16.80
  -9   6   3  133.59    9.90
   6   3   3  159.38   13.90
   3  -9   3  137.19   11.80
   6   3   3  151.98   20.00
   6   3   3  146.29   13.80
  -9   6   3  143.19   13.40
   6   3   3  144.99   12.70
  -9   6   3  170.88   14.80
  -9   6   3  146.09   18.30
  -9   6   3  126.19    8.80
  -9   6   3  164.58   13.40
   6   3   3  157.08   15.20
   6   3   3  121.09    9.70
   6   3   3  122.69   10.90
   0   6  -3   11.80    9.40
   0   6  -3   27.60    8.60
  -6   0  -3   18.20    9.70
   0   6  -3   36.80    9.80
  -6   0  -3   40.80   11.30
   6  -6  -3   30.10    7.80
  -6   0  -3   25.10    8.20
   0   6  -3   26.20   10.50
  -6   0  -3   10.10    8.00
   6  -6  -3   14.60   11.80
  -6   0  -3   17.80    7.70
  -6   6   3   21.70    6.80
   6   0   3   15.80    8.60
  -6   6   3   25.80   11.30
  -6   6   3   25.30    9.10
   0  -6   3   40.20   11.40
   6   0   3   24.60    7.50
   6   0   3   31.90    7.20
   0  -6   3   13.70    6.50
   0  -6   3   27.10    8.30
   6   0   3   25.80    8.00
   0  -6   3   11.00    9.20
   6   0   3   17.00    9.50
  -6   6   3   22.80    7.90
  -6   6   3   12.90    8.30
   6   0   3   30.90   14.60
   3  -6  -3  625.74   25.40
   3   3  -3  675.53   22.70
  -6   3  -3  634.64   23.80
   3   3  -3  652.33   24.00
   3  -6  -3  679.83   22.10
   3   3  -3  668.43   23.10
   3  -6  -3  676.53   22.00
   3  -6  -3  654.63   20.70
  -6   3  -3  665.33   21.00
  -6   3  -3  667.53   22.20
   3   3  -3  690.03   22.40
  -3  -3   3  679.83   21.00
  -3  -3   3  640.24   24.10
  -3   6   3  639.44   21.80
   6  -3   3  689.93   22.30
   6  -3   3  642.24   23.70
  -3   6   3  696.33   23.50
  -3  -3   3  606.74   22.70
  -3   6   3  650.53   20.00
  -3  -3   3  696.63   23.20
  -3   6   3  650.43   24.70
   6  -3   3  644.24   21.70
  -3   6   3  659.33   21.00
   6  -3   3  677.63   20.40
   6   0  -3   62.89   13.00
   6   0  -3   46.20    8.50
  -6   6  -3   45.80    7.80
   6   0  -3   57.69    6.80
   0  -6  -3   64.89    9.60
   0  -6  -3   59.59    6.60
   6   0  -3   53.59    5.50
   6   0  -3   44.00    9.00
  -6   6  -3   25.10   12.00
   0  -6  -3   31.30   10.20
   0  -6  -3   50.29   11.60
   0  -6  -3   41.30   14.10
   0   6   3   35.90   11.30
  -6   0   3   53.09   10.00
  -6   0   3   48.70    7.80
   0   6   3   62.79   10.00
   6  -6   3   46.80    8.10
   6  -6   3   52.59    7.20
  -6   0   3   45.50    7.60
  -6   0   3   41.40    7.20
   0   6   3   58.09    7.70
   0   6   3   46.40    9.70
   6  -6   3   50.09    6.60
   0   6   3   33.80    8.80
   6  -6   3   45.00   11.60
  -6   0   3   45.40   11.10
  -6   9  -3  300.17   15.90
   9  -3  -3  250.37   12.30
  -6   9  -3  249.68   11.00
  -3  -6  -3  250.47   17.50
   9  -3  -3  282.17   15.50
  -6   9  -3  276.07   20.40
   9  -3  -3  298.17   13.90
  -3  -6  -3  279.97   14.90
  -3  -6  -3  262.57   16.00
  -6   9  -3  275.87    9.70
  -9   3   3  269.37   12.20
   6  -9   3  251.07   15.20
   3   6   3  282.97   16.40
   3   6   3  251.47   18.20
   6  -9   3  271.07   10.00
   3   6   3  263.97   10.60
   3   6   3  265.07   17.20
   3   6   3  276.17   15.90
  -9   3   3  240.48   20.50
  -9   3   3  247.08   15.30
   6  -9   3  265.67   10.50
   6  -9   3  282.17   11.70
  -9   3   3  269.17   12.90
  -6  12  -3    5.90   10.30
  -6  12  -3   -8.20    6.90
  -6  12  -3   13.90    7.30
  12  -6  -3    1.00    4.80
  -6  -6  -3    1.50   17.60
  12  -6  -3   -5.00   10.10
 -12   6   3    2.40   10.10
   6   6   3   -7.70    6.50
   6   6   3    5.60   12.50
   6   6   3   -1.00    8.40
   6 -12   3   -5.70    7.20
   6   6   3    9.20    5.10
   6 -12   3   -7.40    7.10
 -12   6   3   -7.60   11.60
 -12   6   3    2.40   12.30
 -12   6   3    2.30   12.50
  11  -7  -3   23.40   11.80
  -4  11  -3   32.00    7.70
  -7  -4  -3   39.60   13.20
  11  -7  -3   34.70    6.00
  -4  11  -3   21.40    7.70
  -7  -4  -3   14.40   14.40
  -4  11  -3   34.90   12.30
 -11   7   3   18.40    7.20
 -11   7   3   16.80   13.70
   4 -11   3   36.10    5.70
   4 -11   3   45.50    9.70
 -11   7   3   32.00    9.30
   7   4   3   41.90   12.70
 -11   7   3   29.00   14.40
   4 -11   3   29.00   10.50
   7   4   3   16.70   10.90
   7   4   3   35.70    9.10
 -11   7   3   25.20    6.50
   7   4   3   24.40    6.10
   8  -7  -3  134.29   11.80
  -7  -1  -3  137.59   10.50
  -1   8  -3  143.39   25.20
  -1   8  -3  175.18   13.20
  -1   8  -3  129.49   14.40
  -7  -1  -3  178.98   15.30
  -1   8  -3  152.28   15.80
  -7  -1  -3  156.08   14.00
   7   1   3  149.69   13.30
   7   1   3  137.09   12.10
   1  -8   3  188.08   19.60
   1  -8   3  160.98   13.10
  -8   7   3  164.98   16.10
  -8   7   3  140.99   10.60
   7   1   3  163.08   19.90
   7   1   3  169.48   12.00
  -8   7   3  155.78   12.70
   7   1   3  146.29   10.50
  -8   7   3  139.99   13.80
   7   1   3  170.48   14.40
  -7   2  -3  191.18   15.50
   2   5  -3  183.28   14.40
   2   5  -3  194.38   12.50
   5  -7  -3  185.08   10.80
   2   5  -3  211.18   15.60
   5  -7  -3  178.08   15.10
  -7   2  -3  180.58   10.70
   2   5  -3  190.38   12.60
  -7   2  -3  192.68   13.70
  -7   2  -3  194.38   12.60
  -5   7   3  194.28    9.90
  -5   7   3  197.48    9.40
  -5   7   3  200.98    9.60
   7  -2   3  190.98   10.30
  -2  -5   3  187.98    8.70
   7  -2   3  190.28   12.20
   7  -2   3  201.28   14.30
   7  -2   3  190.18    8.90
  -5   7   3  187.88   12.00
   7  -2   3  187.28   10.20
  -5   7   3  177.68   15.70
  -2  -5   3  193.98   14.10
  -2  -5   3  192.08   13.70
  -5   7   3  159.98   14.80
  -2  -5   3  203.98   12.90
  -7   5  -3   -5.90    8.20
   5   2  -3   -0.90    8.00
   5   2  -3    0.90    8.40
  -7   5  -3   -3.40   11.60
   2  -7  -3   -7.40   11.30
   5   2  -3   -1.10   11.80
   2  -7  -3   10.10   12.20
   5   2  -3   -1.30    7.50
  -7   5  -3    6.20    3.90
   2  -7  -3    5.20   10.50
  -7   5  -3   -3.80    6.20
   2  -7  -3   -5.80    7.40
   7  -5   3    1.00    5.70
  -2   7   3    3.50    5.30
  -5  -2   3   -2.80    7.20
   7  -5   3    6.80    5.80
  -2   7   3   17.90    9.00
  -2   7   3   -5.80    7.50
   7  -5   3    3.90   10.70
  -5  -2   3  -16.00    8.30
  -5  -2   3   -4.40    6.20
  -2   7   3   -2.60   11.30
   7  -5   3    1.30    3.10
  -5  -2   3   -1.80   10.30
  -5  -2   3    3.30    9.20
  -2   7   3    4.00    5.40
  -7   8  -3   49.30   10.80
   8  -1  -3   50.59    6.80
  -7   8  -3   52.69   14.40
   8  -1  -3   54.19    9.60
  -1  -7  -3   63.69   12.60
  -1  -7  -3   58.69   14.50
   8  -1  -3   60.59    6.80
  -1  -7  -3   57.89    8.90
   8  -1  -3   46.70   10.70
   1   7   3   39.70    9.00
  -8   1   3   55.59   14.60
   7  -8   3   54.19    9.60
   1   7   3   43.60   14.20
   7  -8   3   56.89    7.40
   1   7   3   52.19   10.90
   7  -8   3   51.39    7.30
  -8   1   3   44.80   12.00
  -8   1   3   55.89    8.10
   1   7   3   48.20   12.90
  11  -4  -3   24.30   10.00
  -4  -7  -3   13.40   15.50
  -7  11  -3   15.90   14.00
  11  -4  -3   27.30    5.70
  -7  11  -3   16.80    7.40
  -7  11  -3   24.30    7.90
  11  -4  -3   30.00    8.30
  -4  -7  -3    9.80   17.20
 -11   4   3   20.20   13.60
   4   7   3   18.90    6.80
 -11   4   3   18.40    8.80
 -11   4   3   24.00    9.60
 -11   4   3   16.40    9.70
   4   7   3    1.80   13.20
   4   7   3   11.90   11.40
   4   7   3   16.60    6.90
   7 -11   3   29.40    8.00
   7 -11   3   22.10    5.60
  14  -7  -3   38.60   12.00
  -7  -7  -3   18.90   18.70
  14  -7  -3   42.70    6.00
  -7  14  -3   26.70    8.30
  -7  14  -3   40.60   12.60
  -7  -7  -3   42.10   10.00
 -14   7   3   38.40   10.50
 -14   7   3   47.10   15.40
   7 -14   3   57.09   10.10
 -14   7   3   31.80   16.20
   7   7   3   47.10   11.80
 -14   7   3   21.00   14.70
   7   7   3   35.10   14.60
   7   7   3   48.90    9.00
   7   7   3   45.30    7.10
   7 -14   3   25.90    9.50
  -5  13  -3    5.30    6.80
  -5  13  -3   -0.60   13.90
  -5  13  -3    7.40    6.90
  -8  -5  -3   11.40   16.20
  13  -8  -3    0.00   13.90
  13  -8  -3   -0.90    5.40
 -13   8   3   -1.80   16.80
   8   5   3    6.50    6.30
   8   5   3    6.00   11.80
   5 -13   3    0.70    6.80
 -13   8   3   11.40   11.90
 -13   8   3  -14.50   18.40
   8   5   3   14.10   11.10
   8   5   3    1.90    6.30
  10  -8  -3   49.90   10.90
  -2  10  -3   32.70   12.90
  -2  10  -3   26.50    6.90
  -8  -2  -3   29.90    9.80
  -2  10  -3   24.80    5.30
  10  -8  -3   21.70   15.40
   2 -10   3   22.80    7.50
 -10   8   3   41.10   12.00
 -10   8   3   40.80   17.30
 -10   8   3   44.10   20.60
   8   2   3   44.60   13.20
 -10   8   3   35.10    8.60
   8   2   3   34.40    9.50
 -10   8   3   29.40   13.50
   8   2   3   35.20    4.80
   2 -10   3   37.60    6.10
   8   2   3   51.19   11.10
 -10   8   3   38.50    8.40
   7  -8  -3  215.58   12.50
   1   7  -3  210.68   14.80
   1   7  -3  191.48   20.40
  -8   1  -3  180.58   14.40
   1   7  -3  164.08   14.60
   1   7  -3  172.58   15.50
  -8   1  -3  172.88   14.00
   7  -8  -3  164.08   15.70
  -1  -7   3  209.18    8.00
   8  -1   3  191.18   11.70
  -1  -7   3  182.88    9.60
  -7   8   3  203.88   18.20
   8  -1   3  187.38   12.50
   8  -1   3  193.88   15.60
  -7   8   3  196.48   12.60
   8  -1   3  169.68   11.80
  -7   8   3  192.28   10.40
  -7   8   3  206.68   11.60
   8  -1   3  209.88   10.60
  -1  -7   3  196.78   15.50
  -7   8   3  185.38   16.10
  -8   4  -3   24.60   10.10
   4  -8  -3   12.60   10.10
   4   4  -3   28.00    9.60
   4  -8  -3   51.19   15.70
   4   4  -3    2.70   15.00
  -8   4  -3   24.80    6.70
  -8   4  -3   32.20   11.30
   4   4  -3   17.90    9.60
   4   4  -3    9.60    8.90
   4   4  -3   34.10   12.90
  -4   8   3    8.90   14.10
   8  -4   3   30.20    9.60
  -4  -4   3   30.00    6.40
  -4  -4   3   12.40   10.50
  -4   8   3   35.20    8.20
  -4  -4   3   20.00   12.20
   8  -4   3   20.40    6.30
  -4  -4   3   30.20    9.10
   8  -4   3   19.20    7.40
  -4  -4   3   34.40   14.30
  -4   8   3   38.90   17.40
  -4   8   3   20.20    6.10
  -4   8   3   25.80    5.20
  -8   7  -3    7.50   14.20
  -8   7  -3   18.00    8.90
   7   1  -3   16.30    9.10
   7   1  -3   13.00    9.00
  -8   7  -3    9.70    8.90
   7   1  -3   17.40    8.10
   7   1  -3   21.90    6.60
   1  -8  -3   10.00   11.00
   1  -8  -3   12.30    6.10
   1  -8  -3   34.50   14.40
   1  -8  -3    1.80   15.10
  -1   8   3    3.30   11.00
  -7  -1   3   10.30    8.90
  -7  -1   3    4.30    8.50
   8  -7   3   19.90    7.00
  -1   8   3   14.80   11.80
  -7  -1   3   15.40   11.80
   8  -7   3   14.10    7.20
  -1   8   3    8.30    9.80
   8  -7   3   17.50   14.80
  -1   8   3   14.30    5.20
  -1   8   3    1.40    7.00
   8  -7   3   11.50    8.40
  -2  -8  -3   27.60    9.90
  -2  -8  -3   21.70   13.90
  10  -2  -3   12.00    7.70
  -8  10  -3   24.70   10.00
  -8  10  -3   11.10    7.50
  10  -2  -3   21.30   10.30
  -8  10  -3    8.60   12.50
  10  -2  -3   18.40    5.60
  -2  -8  -3   22.10   19.40
   8 -10   3   16.50    7.60
   8 -10   3   12.70   11.40
 -10   2   3   16.10    6.90
   2   8   3   24.50    4.90
   2   8   3   22.90    4.90
   2   8   3   21.70    9.70
 -10   2   3   26.90    9.30
  -8  13  -3  109.99   10.70
  -5  -8  -3   95.59   21.40
  -8  13  -3  126.89   10.70
  13  -5  -3  123.39   12.20
  13  -5  -3  102.49    7.90
   5   8   3  129.39   10.70
 -13   5   3  136.69   13.40
   5   8   3  113.49    7.80
   5   8   3   98.99    7.70
   8 -13   3  101.69    8.00
 -13   5   3   93.49   11.60
 -13   5   3  115.49   13.30
  16  -8  -3   30.00   15.50
  -8  16  -3    1.40   14.90
  -8  -8  -3   -5.40   10.20
  -8  16  -3   -7.70    7.80
  16  -8  -3    2.70    7.00
  -8  16  -3   13.40    8.90
   8   8   3   -7.10    7.10
   8   8   3   -2.40    8.80
   8 -16   3    5.90   11.00
 -16   8   3   -6.90   19.00
 -16   8   3   19.80   17.50
   8   8   3   -6.40    7.10
 -16   8   3   21.80   11.50
   8   8   3   -3.40   14.30
  15  -9  -3   20.30    7.00
  -6  15  -3    4.70   16.30
  -6  15  -3   11.30    8.50
  -9  -6  -3   10.30   18.30
   9   6   3   16.90    7.00
   6 -15   3    6.90    8.20
 -15   9   3   13.10   18.40
 -15   9   3   -8.20   13.00
   9   6   3   21.80    9.40
 -15   9   3    3.90    9.30
   9   6   3   24.20   13.90
   9   6   3   14.40   13.40
  -3  12  -3   -7.40    6.50
  12  -9  -3    2.50    5.40
  -3  12  -3   -1.10   15.20
  -9  -3  -3  -19.50   10.90
  12  -9  -3   -1.80   16.60
 -12   9   3   -6.30    8.40
 -12   9   3   11.40    9.10
 -12   9   3    0.20    8.00
   3 -12   3    9.90    8.70
 -12   9   3   -6.90   16.80
   9   3   3  -15.80   11.40
   9   3   3  -11.60   13.90
  -9   0  -3  102.79   16.00
   0   9  -3   86.09   16.40
   0   9  -3   77.09    6.60
   9  -9  -3   70.89   12.40
  -9   0  -3   85.59    9.90
   0   9  -3   79.09   14.50
  -9   0  -3   99.69   16.20
   9   0   3   74.19    5.20
  -9   9   3   98.89    9.20
   9   0   3   64.89   11.00
  -9   9   3   79.89   15.20
   9   0   3   81.19   11.00
  -9   9   3   94.59   10.60
   0  -9   3   72.09   20.20
  -9   9   3   76.29   11.10
   9   0   3   72.09   16.70
   0  -9   3   80.59    7.80
   6  -9  -3   36.50    9.70
  -9   3  -3   45.80   15.90
  -9   3  -3   40.40    9.10
   3   6  -3   19.70   15.30
   3   6  -3   47.10   11.40
   3   6  -3   21.10   12.00
   6  -9  -3   20.20   17.10
  -9   3  -3   47.60   12.20
   3   6  -3   32.90   11.90
   6  -9  -3   25.00    8.60
   3   6  -3   32.90   11.00
  -3  -6   3   28.30    8.40
   9  -3   3   47.30    9.50
   9  -3   3   30.50   12.70
  -6   9   3   42.30    8.40
  -6   9   3   57.69   14.50
  -3  -6   3   42.30   14.10
   9  -3   3   28.10    5.50
  -6   9   3   37.70   10.50
   9  -3   3   44.20   10.60
  -6   9   3   39.00    6.40
  -6   9   3   22.50   15.30
   9  -3   3   32.70    8.60
  -6   9   3   35.30    7.40
   6   3  -3   25.60   10.40
   3  -9  -3   24.40    4.90
  -9   6  -3   22.70    5.20
   3  -9  -3   26.70    9.70
  -9   6  -3   36.40   11.60
   3  -9  -3   15.70   17.80
   6   3  -3   17.00    9.90
  -9   6  -3   19.70    7.40
  -9   6  -3    8.90   12.40
   6   3  -3   23.90    9.70
  -6  -3   3   28.30    7.50
   9  -6   3   17.10    6.80
  -3   9   3   10.00   16.10
  -3   9   3   37.20   12.20
   9  -6   3   26.60    9.50
  -3   9   3   14.30    6.00
  -6  -3   3    5.30   10.50
   9  -6   3   21.50    8.70
   9  -6   3   21.90    4.30
  -3   9   3   13.00    9.40
  -3   9   3   21.30    5.30
  -6  -3   3   11.80   12.00
   9  -6   3   -6.90   13.80
   9   0  -3   80.79   14.00
   0  -9  -3   62.79    8.60
   9   0  -3   64.59   11.40
  -9   9  -3   65.69   12.20
   0  -9  -3   54.89   17.30
   9   0  -3   64.99    8.10
  -9   9  -3   46.10   19.00
   9   0  -3   73.19    8.70
   0   9   3   78.49   18.00
   9  -9   3   65.69    9.50
  -9   0   3   70.39   10.30
   0   9   3   59.39    5.60
   9  -9   3   81.09   10.10
   9  -9   3   68.09    9.60
  -9   0   3   52.59    5.50
   0   9   3   56.49   13.00
   0   9   3   67.09    9.50
  -9  12  -3   40.50    6.40
  -9  12  -3   48.90    9.90
  12  -3  -3   31.00   13.40
  -9  12  -3   46.70   17.20
  12  -3  -3   47.90    9.70
  -3  -9  -3   23.20   21.30
  12  -3  -3   37.60    6.70
  -3  -9  -3   26.80   18.20
   3   9   3   28.80   12.30
 -12   3   3   49.40   10.20
 -12   3   3   41.40   11.50
   9 -12   3   45.00   10.20
   3   9   3   41.40    6.90
   3   9   3   41.10    6.80
  -9  15  -3   -3.10    8.20
  -9  15  -3  -10.40   10.80
  -6  -9  -3   15.20    9.70
  -6  -9  -3  -22.30   22.70
  15  -6  -3    8.50    6.50
  -9  15  -3   -0.30    9.10
  15  -6  -3   18.70   12.40
   6   9   3   -3.80    8.70
   6   9   3   12.10   11.40
 -15   6   3    2.70   14.00
   6   9   3   11.60    7.00
 -15   6   3   -6.10   14.00
   9 -15   3   16.10   11.90
   9 -15   3   25.90    7.30
   6   9   3   24.30    7.80
  18  -9  -3   33.50    8.20
  -9  18  -3   31.90    9.60
  -9  18  -3   48.10   18.20
  -9  18  -3   29.60   10.30
  -9  -9  -3   22.90   10.70
 -18   9   3   43.10   20.40
   9   9   3   33.40   19.30
   9 -18   3   26.40   13.10
 -18   9   3   17.40   10.50
   9   9   3   30.40   10.20
 -10  -7  -3    7.50   10.50
  -7  17  -3    4.60    8.40
  17 -10  -3   17.20    8.20
  -7  17  -3    6.10   10.30
  -7  17  -3    3.50    9.70
  10   7   3   -8.60    9.60
  10   7   3   18.80    7.30
 -17  10   3   12.50   10.70
 -17  10   3   -5.70   23.30
  14 -10  -3   26.70    6.20
 -10  -4  -3   21.10   13.30
  -4  14  -3    3.70    7.30
  -4  14  -3   21.50    8.10
 -10  -4  -3   11.80    8.40
 -14  10   3    5.60   22.00
  10   4   3    5.00   16.40
 -14  10   3   20.10    8.70
 -14  10   3    0.90   11.50
 -14  10   3   -5.60    9.80
  10   4   3   11.90    6.80
  -1  11  -3   14.30    5.70
 -10  -1  -3    7.40    8.70
 -10  -1  -3   11.50    8.40
  11 -10  -3   -0.70    6.40
  -1  11  -3   17.20    8.50
 -10  -1  -3    5.20   17.30
 -11  10   3    8.90   17.20
 -11  10   3   12.00   13.80
   1 -11   3   14.00    5.90
 -11  10   3   12.10    8.60
  10   1   3    8.70    6.90
 -11  10   3   25.50   10.90
  10   1   3    8.40    5.90
 -11  10   3   12.20    9.30
  10   1   3   18.10   12.20
 -10   2  -3  171.28   14.90
   2   8  -3  167.28   33.40
   8 -10  -3  157.48   14.10
   2   8  -3  138.89   18.50
  -8  10   3  145.19   10.80
  -8  10   3  155.98   12.50
  10  -2   3  176.18   17.80
  -8  10   3  170.18   14.80
  10  -2   3  154.08   10.20
  -2  -8   3  167.48    7.50
  -2  -8   3  141.99   11.00
  -2  -8   3  169.58    9.60
  10  -2   3  139.39    7.40
  -8  10   3  146.59   12.50
  -8  10   3  156.48   18.30
 -10   5  -3    8.50    7.60
   5   5  -3   -2.80   12.60
   5   5  -3   14.40   10.80
   5 -10  -3    9.60    8.90
 -10   5  -3    1.30   12.60
   5 -10  -3   23.10   11.20
   5   5  -3    5.40   11.00
   5   5  -3   26.10   10.40
 -10   5  -3   20.00   16.80
   5 -10  -3   23.60   16.00
  -5  -5   3   27.60   13.50
  -5  10   3   16.50    9.60
  -5  10   3    5.80   11.90
  10  -5   3   13.60   15.20
  10  -5   3   14.40    5.40
  10  -5   3    2.10    7.70
  10  -5   3    7.90    7.60
  10  -5   3   31.70   11.50
  -5  10   3   21.80    5.30
  -5  -5   3   24.80    6.90
  -5  10   3   15.50   15.80
  -5  10   3   17.60    6.40
  -5  10   3   -2.50   21.30
 -10   8  -3   73.49   10.00
   8   2  -3   72.99   11.90
   8   2  -3   61.49   12.50
   8   2  -3   77.79    8.80
 -10   8  -3   77.39   12.70
   2 -10  -3   66.39    7.00
 -10   8  -3   73.19   18.10
   2 -10  -3  100.89   19.20
  -8  -2   3   85.99    8.00
  10  -8   3   81.99   11.40
  -8  -2   3   80.79   12.50
  -2  10   3   86.59   13.60
  -2  10   3   89.49    6.80
  -2  10   3   68.39    8.10
  10  -8   3   65.39    9.30
  -2  10   3   38.00   18.70
  10  -8   3   59.49    8.30
 -10  11  -3   61.49   10.30
 -10  11  -3   53.19   13.30
 -10  11  -3   28.50   10.70
  11  -1  -3   25.80    7.60
  11  -1  -3   46.10    8.30
  11  -1  -3   45.80    8.00
  -1 -10  -3   19.40   19.90
  10 -11   3   47.20    9.40
   1  10   3   37.80   10.20
   1  10   3   27.60    7.00
  10 -11   3   39.00   12.40
 -11   1   3   57.09   10.40
 -11   1   3   39.80    7.90
 -10  14  -3   -4.20    9.30
  14  -4  -3   -1.00    6.30
  -4 -10  -3   -4.10    9.80
  14  -4  -3   -6.00    5.40
 -10  14  -3   -0.80    8.60
  14  -4  -3    3.00   10.40
 -10  14  -3   -6.10    6.90
  -4 -10  -3  -13.00   11.10
 -14   4   3   -5.10    9.80
   4  10   3    2.70    6.60
   4  10   3   -4.70    8.60
 -14   4   3  -12.00   12.90
   4  10   3   16.10    7.50
   4  10   3  -11.10    5.60
  10 -14   3   -4.00   11.80
  -7 -10  -3  -16.80   10.90
  17  -7  -3  -10.10    8.20
 -10  17  -3    6.80    9.60
 -10  17  -3    7.20   13.00
 -10  17  -3    6.80    9.20
   7  10   3   -2.20   14.20
   7  10   3   -3.30    9.90
 -17   7   3  -16.70   16.20
 -17   7   3  -16.20   11.00
  10 -17   3   19.50   14.60
 -10  20  -3    5.30   11.60
 -10 -10  -3    4.10   12.70
 -10  20  -3   21.10   12.50
 -20  10   3   16.80   12.50
  10  10   3   32.00   10.90
  10  10   3   37.20   12.50
  19 -11  -3   -9.40    7.90
  -8  19  -3  -12.80   10.40
  -8  19  -3   -8.30    9.50
  11   8   3   10.60   11.10
 -19  11   3   -6.60   14.10
  11   8   3  -13.80    8.40
 -19  11   3  -15.50   12.20
  11   8   3   20.00   11.90
  -5  16  -3    2.20    8.40
  -5  16  -3   15.10   10.20
  -5  16  -3   -7.40    8.70
 -11  -5  -3   -0.50    7.30
  16 -11  -3   -5.90    7.00
 -16  11   3    6.30   14.00
  11   5   3  -10.70    9.20
 -16  11   3   -3.40   15.10
  11   5   3   -2.70    6.80
  -2  13  -3   27.30    8.40
  13 -11  -3   13.90    6.60
 -11  -2  -3   18.50    7.50
  -2  13  -3    6.20    6.90
  11   2   3   29.90    7.40
  11   2   3   32.30    7.40
 -13  11   3   35.30    9.70
  11   2   3   17.80    6.20
   2 -13   3   20.70    8.90
 -13  11   3    7.70   11.90
   2 -13   3   14.90    7.10
 -13  11   3    8.80   19.90
   2 -13   3   -0.10    9.30
 -13  11   3   24.70    8.60
  11   2   3   38.90   16.00
 -11   1  -3  107.79   10.80
   1  10  -3   76.59    8.50
 -11   1  -3   83.79   10.40
   1  10  -3   95.39   11.10
   1  10  -3  112.99   10.10
  10 -11  -3  101.39   12.50
 -11   1  -3   95.59   17.20
  11  -1   3   79.09   13.80
  -1 -10   3   80.99    9.90
  11  -1   3   92.49    7.90
  11  -1   3   97.39    8.50
 -10  11   3   91.79   12.80
 -10  11   3   64.89   16.20
 -10  11   3   97.79    9.90
 -11   4  -3  103.59   15.30
   4   7  -3   84.89   16.70
 -11   4  -3   99.59   11.70
   7 -11  -3   82.79   12.40
   4   7  -3  120.09    8.90
 -11   4  -3   92.89   12.00
  -7  11   3   98.99    8.50
  -7  11   3   99.59   16.20
  -7  11   3  118.39   11.10
  -4  -7   3   93.59    9.80
  11  -4   3  106.99    8.50
  11  -4   3   93.39   11.90
  11  -4   3  105.09    6.40
  -4  -7   3  100.79    7.80
 -11   7  -3   17.90   15.60
 -11   7  -3   17.80    7.30
 -11   7  -3   23.20   10.10
   7   4  -3    8.50   11.90
   7   4  -3   28.20    6.80
   7   4  -3   19.10    8.70
 -11   7  -3   15.00    6.40
   4 -11  -3   21.90    6.00
   7   4  -3   27.10    9.90
   7   4  -3   11.40   11.90
  11  -7   3   12.10    6.40
  11  -7   3   26.40    5.30
  11  -7   3   16.90   12.00
  -4  11   3   11.00    8.40
  -4  11   3   20.00    5.70
  -4  11   3   27.10    5.70
  -7  -4   3    6.20    6.60
  11  -7   3   14.00    4.90
  -7  -4   3    9.70    8.70
  -4  11   3   24.10   11.10
 -11  10  -3   71.89   11.80
  10   1  -3   95.09    8.40
   1 -11  -3   66.89   24.50
  10   1  -3   94.29    9.40
  10   1  -3  106.59   11.80
   1 -11  -3   97.99    8.60
 -11  10  -3   95.99   12.60
 -11  10  -3   92.09   12.90
  11 -10   3  102.09   10.60
 -10  -1   3  107.69   13.50
  11 -10   3   92.79    7.90
  -1  11   3   97.79    9.00
  -1  11   3  100.39    9.90
  -2 -11  -3   43.30   12.30
 -11  13  -3   46.20   11.00
 -11  13  -3   46.20   10.20
  13  -2  -3   49.40    7.80
 -11  13  -3   63.09   16.40
  13  -2  -3   32.10   11.10
 -13   2   3   42.50   10.30
   2  11   3   46.20   13.50
   2  11   3   33.60    8.00
  11 -13   3   45.30    6.90
 -11  16  -3   13.00   10.90
  16  -5  -3   -9.20    7.20
  -5 -11  -3    4.50    9.30
  16  -5  -3    7.30    7.00
 -11  16  -3   10.40    8.60
 -11  16  -3   19.00    9.90
   5  11   3    4.80   11.50
 -16   5   3    0.30    9.80
 -16   5   3   -1.60   14.80
   5  11   3   15.50    8.90
   5  11   3    4.50    7.50
 -11  19  -3    4.40   14.80
 -11  19  -3   28.90   11.80
  -8 -11  -3    9.70   12.40
   8  11   3   18.00    9.00
   8  11   3    2.70   19.90
 -19   8   3   11.20   12.40
 -19   8   3  -19.50   20.60
  21 -12  -3   19.80    9.90
  -9  21  -3  -22.00   11.70
  -9  21  -3  -13.00   11.70
  -9  21  -3   -0.70   10.80
  12   9   3   21.50   12.40
 -21  12   3   11.50   15.90
  12   9   3  -19.30   10.10
  -6  18  -3  -16.40    9.90
  -6  18  -3    4.30    9.30
 -12  -6  -3    6.90   11.10
  18 -12  -3   19.60    8.30
  -6  18  -3   -3.30   10.30
 -18  12   3   14.90   10.20
  12   6   3    1.70   10.40
  12   6   3   -0.70    8.40
 -18  12   3    2.70   14.10
  15 -12  -3   -3.60    6.80
  -3  15  -3    2.20    8.60
 -12  -3  -3   19.10    9.10
 -15  12   3   -3.40    9.90
  12   3   3    7.90    7.50
 -15  12   3   16.40   10.60
 -15  12   3   -8.10   11.10
 -15  12   3    8.20   14.10
 -15  12   3    2.80   11.20
  12   3   3   -5.60    7.50
  12   3   3    2.80   19.50
  12 -12  -3   21.50    7.80
 -12   0  -3   16.30   18.80
 -12   0  -3   11.80    7.90
  12   0   3   26.60    6.10
 -12  12   3   23.00   14.60
 -12  12   3   22.90   13.20
  12   0   3   33.80   13.50
  12   0   3   16.00    7.30
   0 -12   3   39.10   11.40
 -12  12   3   30.60   10.90
  12   0   3   27.90    5.50
 -12  12   3   31.80    9.40
   3   9  -3  191.98   11.20
   3   9  -3  213.08   11.80
   3   9  -3  178.48   10.50
   9 -12  -3  224.28   17.30
 -12   3  -3  170.48   12.80
  12  -3   3  201.58   10.40
  -3  -9   3  176.68   11.10
  12  -3   3  190.88    9.80
  -9  12   3  194.78   13.80
  -3  -9   3  204.28    8.80
  12  -3   3  174.58   15.60
  -9  12   3  195.28   12.80
  -9  12   3  179.98   11.50
  12  -3   3  194.88    9.70
  -9  12   3  187.58   18.00
  -9  12   3  206.48   11.40
 -12   6  -3   16.40    9.60
   6 -12  -3   -0.60   13.00
   6   6  -3   26.90    5.80
   6   6  -3   22.70   11.90
   6   6  -3    5.90   13.40
 -12   6  -3   49.20   18.40
  -6  12   3   32.10    7.70
  -6  -6   3   28.30    9.50
  -6  12   3   20.00    6.90
  12  -6   3   23.00    7.90
  -6  12   3   35.60   10.20
  -6  -6   3   22.10    7.80
  -6  12   3   28.10   11.50
  12  -6   3   33.10    5.20
   3 -12  -3    3.90   21.20
   9   3  -3   35.40    9.20
   3 -12  -3    3.80    9.10
   9   3  -3    8.10    5.90
   3 -12  -3   19.90    5.50
   9   3  -3   23.90   15.10
 -12   9  -3   16.20   10.00
   9   3  -3   19.20   12.30
 -12   9  -3   25.80    8.60
  12  -9   3   17.20    4.60
  -3  12   3   10.80    6.50
  12  -9   3   24.20    7.70
  12  -9   3   45.60   14.80
  -9  -3   3   31.10   20.30
  -3  12   3   20.80    6.70
 -12  12  -3   68.99   13.00
 -12  12  -3   60.49   14.40
   0 -12  -3   74.99   13.10
 -12  12  -3   74.99   13.60
  12   0  -3   83.89   11.60
  12   0  -3   74.89   10.50
 -12   0   3   86.29    9.80
   0  12   3   88.59   12.70
  12 -12   3   76.69    8.00
 -12   0   3   62.59   13.90
   0  12   3   81.79    8.50
  12 -12   3   80.79   13.80
 -12  15  -3   36.80    8.30
 -12  15  -3    8.30   10.10
  -3 -12  -3   20.80   11.20
  -3 -12  -3   21.40   10.50
  15  -3  -3   23.10   10.90
  15  -3  -3   24.70    7.80
 -15   3   3   32.10    9.90
   3  12   3   23.20    8.00
  -6 -12  -3   13.90   11.50
 -12  18  -3    8.00   11.80
   6  12   3   -3.10    9.90
   6  12   3   12.40    8.50
 -18   6   3    2.10   19.70
  12 -18   3    3.80    8.10
 -18   6   3   12.10   11.10
   6  12   3    6.10   20.40
  -9 -12  -3   24.10   14.20
  21  -9  -3   -4.70    9.10
 -12  21  -3    5.10   13.40
 -12  21  -3    5.00   14.00
 -21   9   3   40.60   16.20
   9  12   3   13.00   13.40
 -13  -7  -3    5.80   11.70
  20 -13  -3   20.30    9.60
  -7  20  -3    5.10   11.00
  -7  20  -3   -3.90   10.30
  -7  20  -3    0.50   11.20
 -20  13   3   -8.50   14.30
  13   7   3    4.30   11.10
  13   7   3    1.40   13.70
  13   7   3    8.00   10.10
 -13  -4  -3   -1.70    8.80
  -4  17  -3   -4.20    7.90
  -4  17  -3   10.40   10.30
  17 -13  -3   -8.60    8.50
  -4  17  -3   12.90   10.20
  13   4   3  -11.00    7.50
  13   4   3   -2.80   12.30
   4 -17   3  -17.10   13.20
 -17  13   3   10.60   12.00
  13   4   3  -17.30    8.70
 -17  13   3  -21.30   14.20
 -13  -1  -3   27.30    8.40
  -1  14  -3   51.79   10.40
  -1  14  -3   13.50    7.70
  14 -13  -3   19.90    7.30
 -14  13   3   11.60   14.00
 -14  13   3   29.10    9.10
   1 -14   3    6.20   12.30
  13   1   3   39.30    7.40
 -14  13   3   20.00   12.00
  13   1   3   31.50   16.00
   1 -14   3   30.50    8.60
 -14  13   3   36.90    9.70
  13   1   3   34.20    7.20
 -13   2  -3   33.50   18.90
   2  11  -3   36.40    7.40
   2  11  -3   12.70    9.30
   2  11  -3   21.30    7.10
  11 -13  -3   16.40    8.00
 -11  13   3   20.80   15.80
  13  -2   3   19.30    5.60
  13  -2   3   29.70    9.90
  13  -2   3   27.00    6.10
 -11  13   3   34.00   11.80
 -11  13   3   23.70    8.90
  -2 -11   3   20.60    9.40
 -11  13   3   19.20   13.30
 -11  13   3   13.00   10.30
   5   8  -3   89.89    9.70
   5   8  -3  111.39   18.90
 -13   5  -3  108.79   13.80
   8 -13  -3   81.09   13.40
   5   8  -3  123.49    9.00
 -13   5  -3  104.19   18.40
  -8  13   3  117.69   13.60
  -8  13   3  126.09   10.70
  -8  13   3   89.69   10.00
  -5  -8   3  116.49   10.60
  -8  13   3  119.19   12.50
  -5  -8   3  118.99    8.50
  13  -5   3  103.79   12.70
  13  -5   3  102.79    7.40
 -13   8  -3   59.79    8.30
   8   5  -3   32.70   16.00
   8   5  -3   68.39    7.90
   8   5  -3   49.50   12.30
   8   5  -3   56.49   14.50
 -13   8  -3   56.59    8.20
 -13   8  -3   48.80    9.80
  -5  13   3   65.49   10.60
  -5  13   3   59.69   14.30
  13  -8   3   72.19    8.90
  13  -8   3   66.09    6.90
  11   2  -3   84.39    8.50
  11   2  -3  109.89   14.60
  11   2  -3   70.79    9.50
   2 -13  -3   86.49    8.20
  11   2  -3   77.29   11.90
   2 -13  -3   93.59   15.10
 -13  11  -3   74.69   12.60
  -2  13   3   95.39    9.00
 -11  -2   3  111.99   20.30
  13 -11   3   92.29    8.10
 -13  14  -3   50.79   23.30
  14  -1  -3   58.29    6.90
  -1 -13  -3   37.20   13.20
  -1 -13  -3   34.30   10.80
  14  -1  -3   41.50    9.30
  14  -1  -3   44.90    8.70
 -13  14  -3   43.70   11.40
 -13  14  -3   34.00   12.50
  14  -1  -3   48.70   11.30
  13 -14   3   52.09    7.10
 -14   1   3   31.10   10.00
   1  13   3   34.90    7.90
   1  13   3   48.90    8.50
  -4 -13  -3   27.00   11.90
 -13  17  -3   25.10   11.00
 -13  17  -3   23.60   11.70
 -17   4   3   11.10   11.00
   4  13   3   18.70    8.20
 -13  20  -3    5.40   12.50
  20  -7  -3    8.70    8.80
 -13  20  -3   25.10   14.80
  -7 -13  -3   35.70   13.50
 -20   7   3   23.90   11.70
   7  13   3   -1.30    8.40
  -5  19  -3   45.20   12.70
  -5  19  -3   12.80   12.50
  -5  19  -3   35.40   10.60
 -14  -5  -3   23.20    9.00
  14   5   3   40.00   10.00
 -19  14   3   21.10   12.90
  14   5   3   22.40   11.70
 -19  14   3   37.00   15.60
  14   5   3   22.00   12.10
  16 -14  -3   26.50    8.50
  -2  16  -3    4.70    7.70
  -2  16  -3   16.10    9.90
  14   2   3   37.20   21.50
 -16  14   3   25.80   13.70
  14   2   3   26.00    8.30
   2 -16   3   18.00   15.60
   2 -16   3   14.60    7.70
 -16  14   3   17.20   14.80
 -16  14   3    3.90   14.40
  14   2   3   38.40    8.90
   1  13  -3   -5.90    7.30
  13 -14  -3    6.80    7.10
 -14   1  -3   -9.30    8.90
   1  13  -3  -12.30    7.50
 -14   1  -3  -16.40   10.80
   1  13  -3   -9.50    8.30
  14  -1   3  -11.10    6.90
 -13  14   3    1.60   17.20
  14  -1   3   11.60    6.10
 -13  14   3    1.20   15.00
 -13  14   3  -15.60    9.70
  14  -1   3   -9.80   12.40
 -13  14   3   10.40   10.10
  -1 -13   3  -12.10   11.10
  14  -1   3   12.10    7.50
  -1 -13   3    3.50   12.50
 -14   4  -3   64.09   11.90
   4  10  -3   56.49    8.40
 -14   4  -3   35.40   13.00
  10 -14  -3   27.00   16.10
   4  10  -3   32.70    7.70
 -14   4  -3   55.29   19.60
   4  10  -3   27.50   10.30
  14  -4   3   36.20    6.40
 -10  14   3   53.69   12.70
  14  -4   3   46.90   13.90
 -10  14   3   46.50    8.20
 -10  14   3   51.19    8.20
  14  -4   3   60.29    7.30
 -10  14   3   53.19    9.60
  -4 -10   3   48.50    8.20
 -10  14   3   35.40    9.30
   7   7  -3  -15.20   16.90
   7 -14  -3   -9.50    9.60
 -14   7  -3   21.10   19.40
   7   7  -3    7.60   13.40
   7   7  -3    7.30    6.00
   7 -14  -3   -0.30   16.20
 -14   7  -3   -3.40   10.80
 -14   7  -3   -7.70    8.00
  14  -7   3   -4.90    8.70
  14  -7   3   19.80    7.90
  -7  -7   3    0.40    6.60
  -7  14   3   18.00    9.00
  -7  14   3   10.90   15.10
 -14  10  -3    5.50   11.20
  10   4  -3   30.60   12.20
  10   4  -3   29.50    6.70
 -14  10  -3   12.70    9.90
  10   4  -3   20.40    9.80
  10   4  -3    3.90   16.30
  -4  14   3   20.50    9.10
  -4  14   3   27.80    7.50
  14 -10   3   22.70    8.60
  14 -10   3   21.90    5.30
 -10  -4   3   14.20    8.00
 -14  13  -3    9.70   10.70
 -14  13  -3    1.40   14.10
   1 -14  -3   28.30   12.40
  13   1  -3    7.60    7.30
  13   1  -3   10.10    8.20
  13   1  -3   12.90   10.50
  13   1  -3   19.10   12.90
   1 -14  -3    3.00    8.30
   1 -14  -3   -1.60   12.70
  -1  14   3    0.80    7.30
  14 -13   3    3.20    5.80
 -13  -1   3   -0.70    9.00
  14 -13   3   14.50   14.00
  -1  14   3   11.70    8.30
 -13  -1   3   17.40   17.30
  16  -2  -3   25.40    6.90
 -14  16  -3   35.10   10.90
 -14  16  -3   18.40   12.60
   2  14   3   17.50    8.00
  14 -16   3    9.90    6.30
 -16   2   3   14.90    9.30
 -14  19  -3   22.70   12.60
   5  14   3   10.70    9.70
  14 -19   3   28.30    8.70
  -6  21  -3    1.80   12.60
 -15  -6  -3  -23.30   14.20
  -6  21  -3   22.10   12.70
  21 -15  -3  -10.60    9.20
  15   6   3   19.30   12.00
 -21  15   3   -0.60   14.30
 -21  15   3    2.80   16.80
  15   6   3    5.30   11.10
  -3  18  -3   24.70   12.20
 -15  -3  -3    6.40    9.40
  -3  18  -3   19.90    9.80
  -3  18  -3    3.90   10.20
  15   3   3   23.80   11.60
 -18  15   3   36.30   16.10
  15   3   3   26.60   11.40
  15   3   3   23.90    7.50
   0  15  -3   38.00   10.20
   0  15  -3   37.40   10.50
  15 -15  -3   36.90    8.00
   0  15  -3   26.70    9.30
 -15   0  -3   21.60    8.30
 -15  15   3   32.30   12.00
   0 -15   3   51.29   16.40
  15   0   3   44.70   14.80
  15   0   3   30.60    8.30
 -15  15   3   24.90   18.70
   3  12  -3   -4.70    9.00
   3  12  -3   -8.40    7.60
  12 -15  -3    8.00    8.40
 -15   3  -3   17.30   11.20
 -15   3  -3    5.10   10.40
   3  12  -3   -5.00    7.20
 -12  15   3  -12.10    8.80
 -12  15   3   22.90   11.70
  15  -3   3   -1.30    7.10
 -12  15   3    8.30   12.20
 -12  15   3   11.60   10.40
 -12  15   3    3.40    9.20
  -3 -12   3   21.60   10.50
   9 -15  -3   15.50   16.30
   6   9  -3   30.10    7.50
 -15   6  -3   47.20   16.80
   6   9  -3   20.20   20.80
 -15   6  -3   61.59   17.40
 -15   6  -3   47.70   11.30
  15  -6   3   42.30    8.00
  -9  15   3   29.00    8.70
  15  -6   3   60.19   12.00
  -6  -9   3   32.60    9.50
  -9  15   3   32.50    8.60
 -15   9  -3   10.10   11.40
   9   6  -3   29.70    9.00
   9   6  -3   16.80   11.00
 -15   9  -3    5.30    9.00
   9   6  -3   -3.70    7.40
 -15   9  -3   17.20    9.00
   9   6  -3    0.70   18.50
  15  -9   3    8.50    6.10
  -6  15   3   15.50    9.50
  -6  15   3   -0.10    9.40
  -9  -6   3   23.20    9.80
  -6  15   3   11.00    7.40
  12   3  -3  -10.10   12.00
  12   3  -3  -13.30   16.10
   3 -15  -3    6.10    6.00
  12   3  -3   -0.10    6.30
  12   3  -3    2.90    8.60
  -3  15   3    0.00    6.70
  -3  15   3   -8.50   10.20
  -3  15   3  -14.50    8.90
  15 -12   3   -5.00    9.70
 -12  -3   3    7.90    8.80
  15   0  -3   25.80    9.80
   0 -15  -3    5.90   14.30
  15   0  -3   10.80    6.40
   0  15   3   -2.60    8.60
   0  15   3    9.10    8.00
  15 -15   3    6.30    7.10
 -15  18  -3   36.70   14.50
  -3 -15  -3  -11.90   13.80
  18  -3  -3    7.30    7.10
  18  -3  -3   11.70    9.60
 -15  18  -3    4.80   10.20
  15 -18   3   13.40    8.60
   3  15   3    9.40    8.90
   3  15   3    5.70    8.50
 -18   3   3   -6.90   11.00
 -15  21  -3   -5.20   15.70
  21  -6  -3    3.20   11.00
  -6 -15  -3  -24.20   16.10
 -21   6   3   20.70   14.60
  15 -21   3    7.60   10.50
  -4  20  -3  -14.80   13.20
  -4  20  -3    1.30   10.40
  -4  20  -3   -7.70   13.20
 -20  16   3  -11.60   14.00
   4 -20   3  -12.90   17.30
  16   4   3    9.20   12.80
  16   4   3  -13.50    8.40
 -20  16   3   24.10   18.40
  -1  17  -3    8.00    8.50
  -1  17  -3    4.60   10.60
  -1  17  -3    9.60   10.40
  16   1   3   17.50   10.00
  16   1   3    6.00    8.00
 -17  16   3   17.00   16.20
  16   1   3   21.50   17.40
 -17  16   3    2.00   19.50
 -17  16   3   17.00   13.80
   1 -17   3  -13.70   13.10
 -16   2  -3   29.50   10.10
  14 -16  -3   24.00    8.10
 -16   2  -3   31.20   13.40
 -14  16   3   17.70   14.90
  16  -2   3   22.10    7.00
 -14  16   3   10.70   11.20
  -2 -14   3   11.70   13.60
 -14  16   3   -2.50   10.40
 -16   5  -3   -0.30   10.70
 -16   5  -3   11.50   15.00
   5  11  -3    8.30    7.70
 -16   5  -3   -9.90   11.40
  11 -16  -3    5.80    8.40
   5  11  -3    0.60    8.50
 -11  16   3   -1.10    9.10
 -11  16   3    5.90   14.30
  16  -5   3   -2.50   13.60
   8   8  -3   10.40    7.30
 -16   8  -3   20.00   13.90
 -16   8  -3    7.10    9.80
   8 -16  -3   12.20   18.30
   8   8  -3  -17.60   22.10
 -16   8  -3    8.00   11.80
  16  -8   3   11.20    9.80
  16  -8   3   16.00    5.80
  -8  16   3    5.30    8.30
  -8  16   3   19.70    9.70
  -8  -8   3    4.20    7.70
  11   5  -3    3.20   11.80
  11   5  -3    6.30    9.20
 -16  11  -3   23.20   11.70
 -16  11  -3   31.40   11.50
  -5  16   3   10.80   10.30
  16 -11   3    7.80    6.20
  14   2  -3  -19.30    9.70
  14   2  -3   -2.40   16.30
 -16  14  -3   -6.00   13.90
  14   2  -3   -1.00    8.40
  -2  16   3   -1.10    8.30
 -14  -2   3   17.10    9.30
  16 -14   3    7.90    6.50
  -2  16   3   -8.70   12.10
  17  -1  -3    8.20    9.40
  -1 -16  -3    3.10   16.40
 -16  17  -3   -1.00   10.40
   1  16   3    3.60   10.10
   1  16   3    0.80   12.80
  -4 -16  -3  -20.90   15.90
 -20   4   3  -14.40   11.00
  16 -20   3    4.20    9.90
   4  16   3  -16.70   15.70
 -17  -2  -3    3.10   10.60
  19 -17  -3    4.30   11.50
  -2  19  -3   -1.90   10.80
  -2  19  -3   -0.50   12.00
  17   2   3   -8.00    7.60
   2 -19   3    6.40   17.30
 -19  17   3   28.60   14.00
  17   2   3   23.50   12.40
  16 -17  -3   29.70   10.10
   1  16  -3   14.90   10.00
 -17   1  -3   24.00   10.50
   1  16  -3    4.00   10.30
  17  -1   3    8.40    7.80
  -1 -16   3  -14.50   16.50
 -16  17   3   19.60   20.80
 -16  17   3  -12.90   11.20
  17  -1   3   23.20    9.20
 -16  17   3    2.90   14.20
   4  13  -3    2.20    9.00
  13 -17  -3  -15.60    8.90
 -17   4  -3   -4.10   10.10
   4  13  -3  -10.50    7.90
   4  13  -3  -10.10    9.30
 -17   4  -3    2.20   11.40
 -13  17   3   12.20   10.60
  17  -4   3   11.30    7.30
 -13  17   3   12.00   14.70
  17  -4   3   -1.50    6.80
 -13  17   3   -8.00    9.20
 -13  17   3   10.30   10.60
  -4 -13   3   -9.80   11.10
   7  10  -3   10.40    9.60
   7  10  -3   19.90    8.20
   7  10  -3   31.60    9.20
  10 -17  -3  -16.80   21.70
 -17   7  -3   19.40   12.30
   7  10  -3   11.50   23.50
 -17   7  -3   16.90   12.40
 -10  17   3   11.60   19.40
  17  -7   3    3.70   12.60
  17  -7   3    0.20    6.10
 -10  17   3   12.80   10.00
 -10  17   3    6.20   10.10
  -7 -10   3   12.80    8.40
  10   7  -3   16.20    7.70
 -17  10  -3   -5.00   12.80
 -17  10  -3  -11.10   10.00
  10   7  -3   -4.10   13.20
  -7  17   3   11.00    9.20
  -7  17   3  -10.20    9.40
 -10  -7   3   20.30    9.90
  -7  17   3    5.10   10.20
  17 -10   3   -2.60    6.30
  13   4  -3   19.90    9.50
 -17  13  -3   20.40   12.80
  13   4  -3    9.60    7.60
 -17  13  -3    9.40   13.10
 -17  13  -3   -5.20   12.60
  13   4  -3   -6.30   11.00
  17 -13   3   -8.20    6.80
  -4  17   3    5.50   11.30
  -4  17   3    2.40    8.80
 -13  -4   3    2.10    8.90
  -4  17   3    2.40   10.30
  16   1  -3  -30.70   17.80
  16   1  -3   -5.30    7.30
  16   1  -3   -9.40   11.20
 -17  16  -3    0.40   15.40
 -17  16  -3   -8.60   19.70
   1 -17  -3  -18.00   16.20
 -16  -1   3   -8.90    9.60
  17 -16   3    1.80    7.70
  -1  17   3    5.30   10.70
  -1  17   3   13.30    9.30
  -1  17   3  -13.50   11.90
 -17  19  -3   16.40   10.80
  19  -2  -3   16.20    8.50
 -17  19  -3   17.30   16.70
  -2 -17  -3   17.80   17.20
   2  17   3   39.00   13.20
   2  17   3   13.20   10.60
  17 -19   3   10.20    9.60
   0  18  -3  -10.40   10.70
   0  18  -3    3.80   12.90
   0  18  -3    5.20   16.90
  18   0   3    7.10   11.90
 -18  18   3    8.30   17.80
  18   0   3    6.90    8.60
 -18  18   3   -1.60   18.00
   3  15  -3   -1.10    9.00
 -18   3  -3   10.80   10.80
   3  15  -3    7.30    9.30
 -18   3  -3   12.90   13.10
 -15  18   3   14.50   10.80
 -15  18   3   16.80   13.30
  18  -3   3   15.60    7.90
  18  -3   3    1.50    7.60
  -3 -15   3   -9.80   14.00
   6  12  -3   19.50    9.70
 -18   6  -3  -15.40   10.60
  12 -18  -3    6.60   10.50
 -18   6  -3   15.60   12.00
   6  12  -3   -9.80   10.20
  -6 -12   3    3.80   10.40
 -12  18   3    6.30   11.40
  18  -6   3    5.70    7.40
  18  -6   3   -0.30    6.30
 -12  18   3  -35.10   18.10
 -12  18   3  -12.20   10.50
   9   9  -3    4.50    6.80
   9 -18  -3   -7.40   21.20
   9   9  -3   21.10   10.20
   9   9  -3   -3.40   29.90
 -18   9  -3   -3.70   11.50
  -9  18   3  -15.00    8.90
  -9  18   3   17.90    9.20
  -9  18   3   20.70   11.80
  18  -9   3    6.00    6.30
  -9  -9   3   -8.10    9.20
  12   6  -3   19.90    7.80
 -18  12  -3   38.20   14.40
  12   6  -3    6.30   12.70
  12   6  -3    8.30   10.10
  -6  18   3   40.10   11.10
  18 -12   3   17.60    6.80
 -12  -6   3    6.40    9.30
  -6  18   3   24.30    9.60
 -18  15  -3    5.80   14.00
  15   3  -3   13.00    9.50
 -18  15  -3   -3.80   13.50
  15   3  -3    7.40    8.40
  15   3  -3   15.50   13.80
 -15  -3   3   20.80    9.60
  -3  18   3   14.10   12.50
  -3  18   3   17.50    9.30
 -18  18  -3   -7.10   10.90
 -18  18  -3   -5.40   18.20
   0 -18  -3  -12.00   17.20
  18   0  -3   11.20   14.70
  18   0  -3    9.40    8.60
   0  18   3    7.60   14.50
   0  18   3   24.40   14.50
   0  18   3   -3.80   11.70
  18 -18   3   -0.20    8.90
   2  17  -3   -3.00   12.10
  17 -19  -3   12.00   11.80
 -17  19   3   -7.50   14.70
  -2 -17   3   -1.10   16.10
 -17  19   3   -8.50   10.50
  19  -2   3   23.20   11.30
  14 -19  -3   18.10   11.70
 -19   5  -3   21.60   12.20
 -19   5  -3   -1.30   13.40
   5  14  -3   -9.60   10.50
   5  14  -3    3.00    9.50
  -5 -14   3   20.90   12.40
  19  -5   3    2.50    8.10
  19  -5   3    1.40    7.70
   8  11  -3   -3.00    8.60
   8  11  -3   17.80   29.80
 -19   8  -3  -23.80   13.20
 -19   8  -3  -18.60   13.00
  11 -19  -3   27.00   27.20
   8  11  -3   -1.30   10.70
 -11  19   3  -15.70   11.40
  19  -8   3   -4.50   14.20
 -11  19   3   -1.00   10.60
 -11  19   3  -16.50   11.00
  -8 -11   3   10.10   12.10
  11   8  -3   30.00   15.30
 -19  11  -3   32.60   11.70
  11   8  -3   11.30    7.90
  11   8  -3   -5.20    9.50
  19 -11   3    0.20    7.40
  -8  19   3   12.40    9.40
  -8  19   3   29.80   11.20
  -8  19   3    9.80   10.70
 -11  -8   3   13.00    9.00
 -19  14  -3   -3.60   11.80
 -19  14  -3   15.90   14.40
  14   5  -3  -13.10    9.50
  14   5  -3   -5.80   14.00
  14   5  -3    3.90    8.60
  -5  19   3    2.20    9.10
 -14  -5   3  -10.80    9.70
  -5  19   3   -2.30   11.10
  -5  19   3   26.70   12.70
  17   2  -3  -11.00   13.90
 -19  17  -3  -14.20   17.10
 -19  17  -3   34.60   26.20
   2 -19  -3  -24.30   16.60
  -2  19   3   -4.70   12.30
 -17  -2   3    5.50   21.50
 -20   4  -3   11.70   15.10
   4  16  -3   15.30   11.20
 -20   4  -3   27.40   15.30
 -16  20   3    1.50   16.10
  -4 -16   3   26.90   15.70
  20  -4   3   25.40    9.10
 -20   7  -3   19.00   12.30
 -20   7  -3   -1.20   12.60
   7  13  -3  -16.60   11.30
   7  13  -3    0.40   12.60
   7  13  -3    1.00    9.10
  -7 -13   3  -12.80   11.80
 -13  20   3  -10.30   12.30
  20  -7   3    5.40    7.70
  20  -7   3   -9.10    7.20
 -13  20   3    2.70   13.30
  10  10  -3   31.80   11.70
 -20  10  -3   19.20   13.90
  10  10  -3   15.70    8.70
 -20  10  -3    8.10   13.20
  10  10  -3  -33.00   25.50
 -10 -10   3   34.40   12.00
  20 -10   3   17.80    7.60
 -10  20   3    6.60   11.30
 -20  13  -3   17.00   15.20
 -20  13  -3    7.80   12.30
  13   7  -3   15.50   15.90
  13   7  -3    3.00    9.20
  13   7  -3  -12.60   10.30
  20 -13   3   24.00    8.10
 -13  -7   3   -0.40   11.60
  -7  20   3   36.20   13.50
  -7  20   3   20.90   12.00
 -20  16  -3   12.10   16.40
  16   4  -3   16.80    8.70
 -20  16  -3    5.30   15.30
  16   4  -3  -23.40   15.40
  -4  20   3   -7.80   13.00
 -16  -4   3    3.50   11.20
  -4  20   3   13.30   14.00
  -4  20   3    5.10   11.40
 -21   6  -3   -6.50   14.30
  15 -21  -3   10.10   13.10
   6  15  -3   16.00   10.80
   6  15  -3   15.20   13.00
 -21   6  -3  -12.80   14.10
  21  -6   3   -1.30    9.60
 -15  21   3   29.60   14.70
   9  12  -3    2.40   12.90
   9  12  -3   10.80    9.50
 -21   9  -3   25.30   14.40
   9  12  -3    0.30   13.20
 -21   9  -3    5.30   12.00
  21  -9   3  -11.10    7.80
  -9 -12   3   19.80   11.80
 -12  21   3    3.00   14.00
 -12  21   3    7.80   14.70
 -21  12  -3  -16.00   15.40
  12   9  -3   -8.50    8.70
  12   9  -3   -9.60   12.60
  12   9  -3   14.40   12.20
  12   9  -3  -16.70   16.50
  21 -12   3  -13.40    7.40
 -12  -9   3    1.90   12.40
  -9  21   3    8.60   13.50
  -9  21   3   11.40   12.30
 -21  15  -3  -11.00   13.50
 -21  15  -3   19.40   17.70
  15   6  -3   18.60   10.50
  15   6  -3   11.10   14.90
  -6  21   3   -2.70   13.40
  21 -15   3    8.30    8.80
   1  -1  -4 1091.79   32.60
   1  -1  -4 1061.29   31.60
   0   1  -4 1095.29   32.40
   0   1  -4 1082.89   33.00
   1  -1  -4 1080.19   33.40
  -1   0  -4 1105.69   33.30
   1  -1  -4 1106.79   32.50
   0   1  -4 1050.79   32.50
   0   1  -4 1033.00   32.20
  -1   1   4 1128.09   31.70
   1   0   4 1046.10   32.60
  -1   1   4 1078.99   32.20
  -1   1   4 1141.49   33.50
   0  -1   4 1094.29   32.60
  -1   1   4 1110.39   33.40
   1   0   4 1111.39   33.20
   1   0   4 1130.19   32.30
  -1   1   4 1090.29   32.60
  -1   1   4 1145.59   32.60
   0  -1   4 1042.20   32.90
   0  -1   4 1027.70   32.40
  -1   3  -4 1929.11   59.89
  -1   3  -4 2088.69   59.29
   3  -2  -4 2006.50   59.89
   3  -2  -4 1952.40   60.09
  -2  -1  -4 1999.10   60.39
  -2  -1  -4 1937.51   59.39
  -1   3  -4 2017.20   60.19
  -2  -1  -4 2040.60   60.69
  -2  -1  -4 2096.19   60.09
   3  -2  -4 2073.29   60.79
  -2  -1  -4 2102.59   59.69
  -1   3  -4 2093.69   60.99
   1  -3   4 2108.09   59.39
   2   1   4 2088.79   60.09
  -3   2   4 2034.50   59.89
   2   1   4 2056.09   60.39
   1  -3   4 2125.99   60.69
  -3   2   4 2013.20   59.99
   2   1   4 2112.89   59.79
   1  -3   4 2055.39   60.79
  -3   2   4 2089.49   60.39
   1  -3   4 2040.30   60.09
   2   1   4 2156.08   60.79
   1  -3   4 1974.80   58.89
   2   1   4 1960.10   59.79
  -2   2  -4  112.49    7.40
  -2   2  -4  113.49    8.30
   2   0  -4  127.29    8.40
   0  -2  -4  108.89    8.20
   0  -2  -4  108.49    9.00
   2   0  -4  120.39   10.10
   2   0  -4  116.79    7.00
  -2   2  -4  112.09    8.80
   0  -2  -4  103.89    9.00
  -2   2  -4  121.69    6.50
   0  -2  -4  108.09    6.30
  -2   0   4  123.19    7.40
   2  -2   4  113.59    7.30
   2  -2   4  116.99    6.70
   0   2   4  103.49    6.40
   0   2   4  127.39    9.10
  -2   0   4  111.39    6.00
   2  -2   4  121.29    9.40
  -2   0   4  126.49    8.00
   0   2   4  106.79    9.20
  -2   0   4  125.69    9.40
  -3  -2  -4 2463.85   71.89
  -3  -2  -4 2441.86   72.29
   5  -3  -4 2458.15   72.49
  -2   5  -4 2462.05   72.49
  -3  -2  -4 2429.36   72.59
  -2   5  -4 2391.66   71.29
  -2   5  -4 2404.16   73.79
   5  -3  -4 2491.05   72.19
  -2   5  -4 2527.85   73.29
  -3  -2  -4 2444.46   73.29
   5  -3  -4 2473.35   73.49
  -2   5  -4 2515.15   70.99
   3   2   4 2438.96   72.59
  -5   3   4 2443.46   72.19
   3   2   4 2545.25   72.49
   2  -5   4 2577.34   71.39
  -5   3   4 2503.55   71.19
   2  -5   4 2438.76   72.39
   3   2   4 2433.76   72.19
  -5   3   4 2471.05   73.09
   2  -5   4 2417.06   73.49
  -5   3   4 2414.86   71.89
   3   2   4 2437.46   72.99
  -5   3   4 2500.25   70.89
   2  -5   4 2294.17   70.29
   2  -5   4 2522.95   73.49
   2  -3  -4   10.40    7.80
   1   2  -4   16.00    6.20
   1   2  -4   28.40    6.30
   2  -3  -4   22.60    9.90
  -3   1  -4   20.50    5.70
   2  -3  -4   31.20    6.40
  -3   1  -4   27.60    7.70
  -3   1  -4   22.00    5.50
   1   2  -4   20.40    6.30
  -1  -2   4   32.60    7.80
  -1  -2   4   25.50    6.00
  -1  -2   4   37.30    8.10
  -2   3   4   39.40    7.30
  -1  -2   4   23.20    7.10
   3  -1   4   13.30    5.60
  -2   3   4   25.40    5.50
  -2   3   4   23.50    7.90
   3  -1   4   17.90    5.00
   3  -1   4   34.40    8.20
  -2   3   4   24.20    7.50
   4  -1  -4    8.50    8.60
   4  -1  -4    3.50    6.30
   4  -1  -4   14.20    8.70
  -3   4  -4    7.00    7.40
  -1  -3  -4   -0.30    6.00
   4  -1  -4    6.00    5.60
  -1  -3  -4    2.10    8.40
  -3   4  -4   26.70   10.60
  -1  -3  -4   -3.70    6.60
  -3   4  -4   13.50    4.90
  -3   4  -4   15.20    9.90
  -4   1   4    8.30    6.10
   1   3   4    2.00    5.60
  -4   1   4    9.00    5.60
   1   3   4   -2.50    6.40
   1   3   4    6.60    9.00
  -4   1   4   18.70    6.20
  -4   1   4   12.40    8.10
   1   3   4   10.00    8.50
   1   3   4   15.80    7.50
   3  -4   4    4.80    6.60
   3  -4   4    3.60    9.20
  -4  -3  -4  933.61   29.40
  -3   7  -4  862.61   28.30
   7  -4  -4  947.71   30.30
  -4  -3  -4  901.51   29.60
  -4  -3  -4  907.21   29.80
  -3   7  -4  877.11   30.40
   7  -4  -4  927.01   33.30
  -3   7  -4  947.01   32.80
  -3   7  -4  886.51   32.50
   7  -4  -4  917.81   29.60
   4   3   4  897.81   29.40
  -7   4   4  883.11   28.30
   3  -7   4  885.41   30.60
   4   3   4  852.41   29.70
   3  -7   4  902.11   28.40
  -7   4   4  869.41   29.30
   4   3   4  924.91   30.70
  -7   4   4  926.61   27.60
   3  -7   4  888.01   26.60
   4   3   4  919.11   30.70
   3  -7   4  911.31   31.80
  -7   4   4  947.61   29.90
   3  -7   4  885.71   33.00
   4   3   4  887.01   30.90
  -7   4   4  853.51   31.90
  -7   4   4  906.71   28.70
  -4   0  -4   39.10    8.60
   0   4  -4   49.10    8.70
   4  -4  -4   37.70    8.50
  -4   0  -4   38.20    9.60
   4  -4  -4   24.40    9.70
   0   4  -4   48.20    8.90
   0   4  -4   24.40    8.40
  -4   0  -4   26.30    7.20
   0   4  -4   37.90    7.40
   0  -4   4   29.80    8.90
   4   0   4   32.90    6.60
  -4   4   4   33.60    9.50
  -4   4   4   33.10    6.60
   0  -4   4   46.60    8.60
   4   0   4   32.30    8.30
   4   0   4   44.60    9.70
   0  -4   4   47.50    7.20
   0  -4   4   50.39   10.40
  -4   4   4   27.60    9.90
  -4   3  -4   -0.60    6.10
   1  -4  -4    9.20    4.90
   3   1  -4   12.80    7.10
  -4   3  -4    6.90    6.10
   3   1  -4   14.80    8.50
   3   1  -4   -2.40    5.90
  -1   4   4    8.00    8.50
  -1   4   4   -4.00    6.80
   4  -3   4   14.80    5.80
  -3  -1   4   10.50    5.70
  -1   4   4    2.90    8.90
  -3  -1   4   24.90    8.00
  -3  -1   4   20.10    6.30
  -1   4   4    8.30    6.40
  -4   6  -4    6.80    8.30
  -2  -4  -4   -3.50    7.50
  -2  -4  -4   -5.30    7.60
  -2  -4  -4   -7.20    7.50
  -4   6  -4    2.90   11.60
  -4   6  -4   -1.00   10.80
   6  -2  -4   -5.00    5.30
  -4   6  -4   -3.20    5.00
  -2  -4  -4    3.10    9.70
   6  -2  -4   -7.60    6.30
   2   4   4   13.20    9.30
  -6   2   4    3.10    6.00
   2   4   4   -1.60    7.40
   4  -6   4    3.00    4.80
   4  -6   4    5.10   10.30
   2   4   4    9.10    8.00
  -6   2   4   -5.00    7.70
   2   4   4    0.90    8.20
   2   4   4    5.30    9.40
   4  -6   4    7.50    7.90
   4  -6   4   -5.70    5.30
  -6   2   4   -6.10    7.70
   2   4   4    8.90    9.70
  -5  -4  -4  320.57   16.90
   9  -5  -4  293.07   16.30
  -4   9  -4  299.27   18.50
   9  -5  -4  312.87   17.10
  -5  -4  -4  291.87   16.60
  -4   9  -4  313.67   21.00
  -4   9  -4  303.07   14.10
   5   4   4  301.47   16.70
   4  -9   4  318.97   13.80
  -9   5   4  303.67   16.60
  -9   5   4  279.47   14.20
   5   4   4  307.67   15.70
   4  -9   4  307.67   21.60
   5   4   4  309.67   12.80
   4  -9   4  282.97   10.30
   5   4   4  320.37   17.80
   5   4   4  305.17   16.00
  -9   5   4  294.47   11.90
  -9   5   4  288.97   21.10
  -9   5   4  294.67   15.60
   6  -5  -4   66.69   12.30
  -5  -1  -4   75.79   12.20
  -5  -1  -4   47.70    9.40
  -1   6  -4   50.59    9.80
  -1   6  -4   60.99   11.90
  -5  -1  -4   77.09   11.00
  -5  -1  -4   46.00    9.00
  -5  -1  -4   71.49    9.70
   6  -5  -4   65.59    9.80
  -1   6  -4   70.39    8.90
  -6   5   4   64.79    9.40
   5   1   4   67.99    9.90
   5   1   4   49.00    8.60
   1  -6   4   53.29    7.70
  -6   5   4   51.59   12.70
   1  -6   4   54.29   11.70
  -6   5   4   62.69    8.40
   1  -6   4   65.09   14.60
  -6   5   4   64.99   11.50
   1  -6   4   53.89    7.60
   5   1   4   84.49   13.90
   1  -6   4   57.59   10.50
   2   3  -4  184.18   10.90
  -5   2  -4  171.38   12.60
   2   3  -4  171.48   13.40
   3  -5  -4  175.48    9.90
   2   3  -4  169.98   10.70
   2   3  -4  156.08   10.50
   3  -5  -4  184.98   11.90
  -5   2  -4  164.18    9.20
  -5   2  -4  160.28   10.10
   3  -5  -4  188.18   13.40
   2   3  -4  185.18   12.00
   3  -5  -4  156.48   11.30
  -2  -3   4  158.48   10.80
  -3   5   4  180.78   12.80
  -3   5   4  180.68    9.80
   5  -2   4  155.68   10.10
   5  -2   4  162.88    8.50
  -3   5   4  162.48    9.40
  -3   5   4  160.48    7.80
  -2  -3   4  169.68   10.50
  -2  -3   4  181.58   11.70
  -3   5   4  170.78   12.60
   5  -2   4  192.78   13.70
  -2  -3   4  183.48    9.50
   0  -5  -4  109.49    7.50
   5   0  -4  117.29    7.60
   0  -5  -4  134.59   11.10
   5   0  -4  119.59    9.70
   5   0  -4  142.09   11.30
  -5   5  -4  111.29    9.30
   5   0  -4  105.29    8.10
  -5   5  -4  111.09    8.00
  -5   5  -4  125.19   13.10
   0   5   4  131.49   10.50
   5  -5   4  147.49   13.50
   5  -5   4  119.89    8.90
  -5   0   4  121.49    9.20
   5  -5   4  125.09    7.90
  -5   0   4  130.19   10.00
  -5   0   4  126.99    8.80
   0   5   4  128.39    8.20
   8  -3  -4  204.98   11.30
  -5   8  -4  164.58    9.50
  -5   8  -4  177.18    8.20
  -3  -5  -4  169.08   14.80
  -5   8  -4  185.28   15.00
   8  -3  -4  192.78   13.40
   8  -3  -4  166.98    9.20
  -5   8  -4  217.58   18.40
  -3  -5  -4  184.28   13.20
  -8   3   4  187.08   12.00
  -8   3   4  188.38   12.60
  -8   3   4  192.68    9.40
   5  -8   4  191.38    8.40
  -8   3   4  176.18    9.10
   5  -8   4  174.58   13.10
   3   5   4  175.08   14.00
  -8   3   4  208.38   17.10
   5  -8   4  186.48    9.10
   3   5   4  165.28   11.70
   3   5   4  184.78   15.50
   3   5   4  188.18   14.20
   3   5   4  203.08   13.90
  -5  11  -4    5.60    9.50
  -6  -5  -4  -19.90   13.90
  11  -6  -4    2.10    9.60
  -6  -5  -4   -8.30   12.70
  -5  11  -4    6.30    5.70
  -5  11  -4    4.00    6.60
  11  -6  -4    5.60   15.90
  11  -6  -4   11.70    6.30
 -11   6   4   13.80   12.70
 -11   6   4   -4.50    5.90
   5 -11   4    4.80    6.40
   6   5   4   -9.30   13.40
 -11   6   4    0.20   10.80
   5 -11   4   -9.00    7.90
   6   5   4   -2.80    8.00
 -11   6   4    0.30   12.70
   6   5   4   13.30   12.80
 -11   6   4    1.20    6.10
  -2   8  -4   14.20   12.50
   8  -6  -4   42.50   10.50
  -6  -2  -4   33.60    9.50
  -6  -2  -4   12.20   11.40
  -6  -2  -4   30.70   11.50
   8  -6  -4    8.20   13.00
  -6  -2  -4   18.10   12.40
  -2   8  -4   41.00    9.00
  -2   8  -4   33.90   11.80
   6   2   4   28.80    7.50
   6   2   4   28.00   12.80
   2  -8   4   25.40   14.00
  -8   6   4   20.90   12.20
   6   2   4   43.40   15.30
   2  -8   4   37.00    9.30
   6   2   4   33.80   10.00
   2  -8   4   35.00    5.60
  -8   6   4   24.10    9.90
   6   2   4   30.30   11.20
   6   2   4   39.70   10.00
  -8   6   4   30.30   14.70
  -8   6   4   23.00    8.60
  -6   1  -4   32.50    7.70
  -6   1  -4   34.40    8.00
   5  -6  -4   15.60    8.90
  -6   1  -4   10.40   10.60
   1   5  -4   22.50    9.30
   1   5  -4   25.80    8.10
   5  -6  -4   11.30   12.90
  -6   1  -4   30.50   10.40
   1   5  -4    5.20    9.00
  -5   6   4   21.50    9.30
   6  -1   4   27.20    8.40
  -5   6   4    8.40   11.60
  -5   6   4   26.60    6.90
   6  -1   4   21.30   10.60
   6  -1   4   17.50    6.60
  -5   6   4   25.50    8.10
  -1  -5   4   27.40    9.90
  -1  -5   4   34.10   11.20
  -1  -5   4   22.70    7.70
  -5   6   4   17.20    7.10
  -1  -5   4   10.90    6.80
   4   2  -4  118.99   10.40
  -6   4  -4  117.69   12.00
  -6   4  -4  110.69    7.70
   2  -6  -4   98.89   13.90
   4   2  -4  118.19    9.90
   4   2  -4  111.89   11.00
   4   2  -4   96.39    8.40
  -2   6   4  112.49    9.20
  -4  -2   4  109.39   10.80
  -2   6   4  101.79    9.30
  -2   6   4  100.89    7.20
   6  -4   4  121.39   12.70
  -4  -2   4   93.79    7.70
  -2   6   4  132.19   14.10
   6  -4   4   89.99    7.70
  -2   6   4  122.79   12.00
  -4  -2   4   93.99    9.70
  -4  -2   4  105.49   11.80
  -1  -6  -4   42.50   10.30
   7  -1  -4   37.50    8.90
   7  -1  -4   57.09    6.80
   7  -1  -4   69.89   15.60
  -6   7  -4   69.89    8.20
   7  -1  -4   60.59    7.00
  -1  -6  -4   48.30   12.20
  -1  -6  -4   42.80   13.10
  -6   7  -4   54.49   14.70
  -1  -6  -4   66.19    8.50
   1   6   4   48.30   11.30
  -7   1   4   54.09    9.20
   6  -7   4   64.79    7.70
   1   6   4   53.19   12.20
   6  -7   4   59.99   14.50
  -7   1   4   43.80    7.90
   1   6   4   58.19   10.70
  -7   1   4   42.70   13.10
   1   6   4   49.20    8.60
   6  -7   4   55.79    9.80
  -7   1   4   52.79    9.60
   1   6   4   49.90   11.00
  -6  10  -4   81.19   15.50
  -4  -6  -4   79.29   15.20
  -6  10  -4   87.09    8.80
  10  -4  -4   96.29    9.30
  -4  -6  -4   87.19   15.70
   6 -10   4   85.99    7.30
 -10   4   4   86.09   16.50
   4   6   4   97.59   18.60
   6 -10   4  101.19    9.30
   4   6   4   97.79   14.20
 -10   4   4   93.89    9.40
 -10   4   4   81.79   11.80
   4   6   4  103.09    8.70
   4   6   4   99.19   13.00
   4   6   4   77.49   13.60
 -10   4   4   94.69   12.20
   6 -10   4   91.29    6.10
  13  -7  -4    9.20    5.70
  -7  -6  -4   -2.90    8.60
  -6  13  -4   -5.70    6.70
  -7  -6  -4   14.30   16.80
  13  -7  -4    2.60   11.70
 -13   7   4   12.90   13.50
   7   6   4   -0.10   14.50
 -13   7   4    3.70   15.50
 -13   7   4   13.80    9.70
 -13   7   4    5.40   13.80
   6 -13   4    1.90    9.50
   6 -13   4    4.50    7.90
   7   6   4   -8.50    8.00
  -3  10  -4   12.50    5.30
  10  -7  -4   -7.00   14.60
  -7  -3  -4    9.00   13.40
  -7  -3  -4   20.10   11.20
  -3  10  -4   29.50   10.60
   7   3   4   16.00   10.80
   7   3   4   20.20    9.90
 -10   7   4   11.40   18.00
   3 -10   4   20.30    7.10
   3 -10   4   20.60   10.90
 -10   7   4   12.60    8.30
 -10   7   4   21.10   11.90
   7   3   4   24.60    9.10
 -10   7   4   15.50    8.40
   3 -10   4   21.00    4.30
 -10   7   4   23.00   14.60
   0   7  -4   44.30   12.10
  -7   0  -4   64.89   12.90
   0   7  -4   72.49   10.20
   7  -7  -4   70.59   11.10
  -7   0  -4   53.09    9.80
   7  -7  -4   37.20   14.90
   0   7  -4   61.39   11.90
  -7   0  -4   76.39   12.40
  -7   7   4   79.19    9.50
   7   0   4   71.59    9.70
  -7   7   4   80.49   15.30
   0  -7   4   46.60    8.30
  -7   7   4   65.99   10.80
  -7   7   4   66.59   10.40
   7   0   4   57.69    8.60
   7   0   4   66.29   12.40
   0  -7   4   84.09   10.70
   7   0   4   85.79   17.80
   7   0   4   51.09   10.50
  -7   7   4   66.89   11.70
   0  -7   4   96.09   15.10
   4  -7  -4   13.90   11.20
   4  -7  -4   11.20   14.50
   3   4  -4   19.40   11.70
  -7   3  -4    9.60   14.00
   3   4  -4   39.60   12.00
   3   4  -4   33.70    8.10
  -7   3  -4   45.00    9.10
  -7   3  -4   36.10   11.30
  -7   3  -4   36.80    7.10
   3   4  -4   21.90    9.50
   3   4  -4   20.70    8.70
   4  -7  -4   39.40    8.80
  -4   7   4   12.60   11.80
  -4   7   4   34.00    7.70
  -4   7   4   26.40   10.60
  -4   7   4   40.30    7.10
  -3  -4   4   38.00   10.20
   7  -3   4   23.40    5.80
   7  -3   4   42.40    9.70
  -4   7   4   31.50    5.80
  -3  -4   4   30.60   10.30
  -3  -4   4   42.30    6.70
   7  -3   4   36.70   10.80
   7  -3   4   35.40    6.10
  -4   7   4    9.10   12.70
   1  -7  -4   25.30   12.60
  -7   6  -4    9.90    8.60
  -7   6  -4    2.80    8.10
   6   1  -4    9.00    9.20
  -7   6  -4   -3.20   12.90
   6   1  -4    5.50    5.30
   1  -7  -4   14.40   10.00
   1  -7  -4    1.30   13.20
   6   1  -4    2.20   10.00
   6   1  -4    6.30    7.60
   1  -7  -4   10.30    5.70
   6   1  -4   -8.40   12.80
  -6  -1   4    7.50    7.50
  -1   7   4   12.20    9.90
  -1   7   4   17.70   12.80
  -6  -1   4   -8.20   10.10
  -1   7   4   13.80    6.90
  -1   7   4   -3.50   10.10
  -1   7   4   17.00    9.10
  -6  -1   4    3.30   11.90
   7  -6   4    3.10    7.30
   7  -6   4   11.10    6.90
  -1   7   4    8.60    9.10
   7  -6   4    4.60    7.90
  -6  -1   4    5.20    8.50
   7  -6   4   -1.10   12.20
  -7   9  -4   12.30   11.90
  -2  -7  -4   -1.30   10.10
   9  -2  -4   -0.20    9.20
  -2  -7  -4   29.30   16.60
   9  -2  -4    2.30    5.60
   9  -2  -4   15.00   11.90
  -2  -7  -4   -8.60   13.00
  -7   9  -4   -7.50   15.50
   9  -2  -4   -3.00    6.50
   7  -9   4    1.90    3.70
   2   7   4   26.60   15.70
   2   7   4   -5.70    9.20
   2   7   4  -12.40   13.60
   7  -9   4   -0.40    7.40
   7  -9   4    5.90    7.30
   7  -9   4    8.50   11.40
  -9   2   4   17.50   14.20
  -9   2   4    9.10   16.00
   2   7   4   11.00   12.40
   2   7   4    5.00   11.70
  -9   2   4    1.80    7.40
  -7  12  -4   14.70    7.50
  -7  12  -4   -2.10    8.70
  12  -5  -4    5.80    8.40
  -5  -7  -4   34.70   17.30
  -5  -7  -4   19.30   17.80
  -7  12  -4   14.10    9.30
 -12   5   4   14.10    9.40
 -12   5   4   26.40   12.50
   5   7   4   18.70    7.60
   5   7   4   24.20    7.00
   5   7   4   13.40    8.40
 -12   5   4   29.30   11.30
   7 -12   4    7.50    6.20
  15  -8  -4  241.68   17.90
  -7  15  -4  230.48   17.50
  -8  -7  -4  195.88   23.10
  -7  15  -4  221.98   13.10
  -8  -7  -4  240.28   13.30
 -15   8   4  213.98   14.70
   8   7   4  243.98   12.40
 -15   8   4  256.57   22.60
 -15   8   4  200.88   19.10
   8   7   4  239.68   17.30
   8   7   4  266.17   12.20
   7 -15   4  247.38   13.30
  -8  -4  -4    4.20   13.90
  -4  12  -4   21.00    7.80
  12  -8  -4   -3.40    6.00
  -4  12  -4    1.40    7.20
  -4  12  -4    8.30   11.90
 -12   8   4   -5.90   15.80
   8   4   4   -1.90   14.50
 -12   8   4   10.60    7.50
 -12   8   4   16.00   19.80
   8   4   4    9.00   10.70
   8   4   4   -3.60    6.00
   4 -12   4  -10.80    9.80
 -12   8   4    9.80   10.10
 -12   8   4   14.10    9.20
 -12   8   4    7.50   10.20
   4 -12   4    3.20    6.20
  -1   9  -4   15.40   14.30
  -1   9  -4   20.30   10.70
  -8  -1  -4    1.00    9.70
  -8  -1  -4    2.80   14.80
  -8  -1  -4    5.30   12.90
   9  -8  -4   -4.20   11.40
   9  -8  -4    2.70   14.60
   8   1   4   -1.30   10.00
   1  -9   4    8.80    5.80
  -9   8   4   -1.40   19.60
  -9   8   4    7.20    9.40
   8   1   4   17.70   10.60
  -9   8   4    9.10   12.20
   8   1   4    3.20    8.30
   1  -9   4    2.40    8.70
   1  -9   4   -4.30   15.90
   6  -8  -4   -4.20   10.00
  -8   2  -4    2.90   11.10
  -8   2  -4  -13.20   12.30
   2   6  -4   11.00    9.70
   2   6  -4   16.80   11.50
   6  -8  -4    8.60   14.90
  -8   2  -4    6.20    8.40
   2   6  -4  -11.40    9.70
  -6   8   4   -4.30    7.50
  -6   8   4  -14.80   11.50
   8  -2   4    6.90    6.80
  -6   8   4    6.80    7.40
  -6   8   4    3.70   10.10
  -6   8   4   -4.70    7.30
   8  -2   4   -5.80   10.50
   8  -2   4    9.70    7.90
   8  -2   4   24.10   12.20
  -8   5  -4  106.29   14.00
   3  -8  -4   81.89   10.00
   5   3  -4   90.89   11.90
  -8   5  -4   98.39    7.20
   5   3  -4   87.29   10.90
   5   3  -4   79.29   10.10
   3  -8  -4   62.39   15.20
   8  -5   4  111.59   14.90
   8  -5   4   83.09    6.60
  -3   8   4  102.59    8.00
  -3   8   4   97.19    7.20
  -5  -3   4   67.89   12.60
   8  -5   4   98.59    9.90
  -5  -3   4  101.79   12.40
  -3   8   4   97.49   10.50
  -3   8   4   86.69   11.80
   8   0  -4  150.48    8.50
   8   0  -4  182.28   14.60
   8   0  -4  184.68   10.70
   0  -8  -4  138.79   19.80
  -8   8  -4  158.28   11.70
   8   0  -4  165.88   12.90
  -8   8  -4  169.58   21.00
  -8   8  -4  187.48   13.00
   0  -8  -4  191.08   17.30
  -8   0   4  175.78   12.20
   0   8   4  183.78   16.00
   8  -8   4  154.28   10.00
   8  -8   4  179.08   11.70
   8  -8   4  148.29   10.90
  -8   0   4  151.98   17.00
   0   8   4  193.58   16.50
   0   8   4  186.68   15.60
   0   8   4  144.59   11.00
  -8  11  -4   -8.20   14.80
  -3  -8  -4   -7.80   19.70
  11  -3  -4   18.10   12.40
  -8  11  -4    6.80    9.20
  -3  -8  -4   -8.90   16.60
  -8  11  -4   -9.00    6.20
  11  -3  -4   -8.60    6.00
   3   8   4  -10.10    5.80
   3   8   4   -1.80    6.50
   3   8   4    1.50    6.10
   3   8   4  -16.30   11.60
   8 -11   4    0.90    8.50
   8 -11   4    4.20    4.50
   8 -11   4   -1.60    6.70
 -11   3   4    1.30    6.70
 -11   3   4    0.70    8.60
 -11   3   4   12.30    8.30
  -8  14  -4  234.28   13.90
  -8  14  -4  201.78   15.10
  14  -6  -4  202.18   11.00
  -6  -8  -4  212.68   13.40
  14  -6  -4  228.88   15.00
  -8  14  -4  215.68   12.50
   6   8   4  211.08   10.90
   6   8   4  210.98   11.50
 -14   6   4  251.67   18.70
 -14   6   4  203.58   14.70
 -14   6   4  192.98   16.10
   6   8   4  204.88   13.60
  -8  17  -4   12.20    9.00
  -9  -8  -4    8.20   11.10
  -9  -8  -4   20.50   25.90
  -8  17  -4   17.80   17.40
  -8  17  -4   -1.50    9.20
   8 -17   4   18.50   11.00
 -17   9   4   34.70   13.20
 -17   9   4   -9.60   18.50
   9   8   4   15.80   16.30
   9   8   4    3.80    9.30
   9   8   4   10.90    9.20
  -5  14  -4   87.39   10.30
  -5  14  -4  117.89   17.20
  -9  -5  -4   70.49   17.60
 -14   9   4   70.69   11.10
   5 -14   4  103.79    8.50
   9   5   4  115.89   13.60
 -14   9   4  103.99   18.90
   9   5   4   96.59    8.90
   9   5   4   97.49    8.50
 -14   9   4   64.79   13.20
  -2  11  -4   40.50    7.90
  -9  -2  -4   34.70    6.60
  11  -9  -4   38.50    6.70
  -9  -2  -4   24.20   10.90
  -2  11  -4   31.30   14.40
  -2  11  -4   23.90    7.80
  11  -9  -4   27.10   18.20
 -11   9   4   39.00    9.90
 -11   9   4   61.99   15.10
   2 -11   4   30.60    6.40
 -11   9   4   12.60   10.10
   9   2   4   24.40    5.90
   2 -11   4   34.70    8.00
 -11   9   4   15.20    9.90
   9   2   4   25.90    7.00
   9   2   4   30.30   12.70
   2 -11   4   15.40    9.10
   9   2   4   37.30   11.40
   1   8  -4   -0.30   12.00
   1   8  -4    9.90   11.70
  -9   1  -4    4.20   11.90
  -9   1  -4    2.60    9.90
  -9   1  -4    9.60   11.50
   8  -9  -4    2.40   10.40
   8  -9  -4  -30.50   17.00
  -9   1  -4   38.90   15.70
   1   8  -4   14.50   12.20
   9  -1   4   -4.30   14.60
  -1  -8   4   11.20    5.70
   9  -1   4   11.50    8.90
  -1  -8   4   10.40   14.30
  -8   9   4   -5.50   13.00
   9  -1   4   -5.10    9.20
  -8   9   4   -8.10    7.80
   9  -1   4   -5.60    9.20
  -1  -8   4   15.10    7.10
  -8   9   4    4.90   10.70
  -9   4  -4   22.00   12.30
   4   5  -4    6.70   11.20
   4   5  -4    3.70   10.60
   4   5  -4  -11.20   11.30
   5  -9  -4   -0.10    9.30
  -9   4  -4    0.50    8.10
  -9   4  -4   19.70   18.80
   4   5  -4   17.70   15.20
   5  -9  -4    0.90   17.50
   4   5  -4   -9.10   13.00
   5  -9  -4   20.50   12.40
  -5   9   4    9.30    5.70
  -5   9   4    8.10   16.10
  -5   9   4   -1.00    8.60
   9  -4   4    4.20    7.20
  -5   9   4   12.70   10.70
  -4  -5   4   20.20   10.10
  -5   9   4   14.20    7.20
   9  -4   4  -19.10   12.40
  -4  -5   4    0.70    6.40
   9  -4   4    3.20    8.20
   9  -4   4   10.10    9.40
  -4  -5   4   -5.90   10.90
   7   2  -4   19.80   11.10
   2  -9  -4   10.80   14.30
   2  -9  -4   36.90   20.20
   2  -9  -4   37.30    6.40
   7   2  -4   33.00    7.30
  -9   7  -4   37.00   10.90
   7   2  -4   29.70   10.00
  -9   7  -4   39.80   16.60
  -9   7  -4   34.30    8.90
   9  -7   4   43.70    8.20
  -2   9   4   22.80   12.90
  -7  -2   4   35.30   13.70
  -7  -2   4   40.00   12.00
  -2   9   4   33.10    6.40
  -2   9   4   34.50    7.70
  -7  -2   4   21.90    9.20
  -2   9   4    2.10   16.20
   9  -7   4   49.99   10.50
   9  -7   4   22.60    8.50
  -2   9   4   43.00   11.10
  -9  10  -4   74.49    9.80
  10  -1  -4   60.09   12.50
  -1  -9  -4   80.59   17.90
  -9  10  -4   64.99   13.00
  10  -1  -4   71.89    7.30
  -1  -9  -4   40.80   20.20
  -1  -9  -4   67.59   10.60
  10  -1  -4   85.39    8.60
  10  -1  -4   64.49    6.70
 -10   1   4   72.89    9.00
   9 -10   4   64.39   10.60
   1   9   4   66.09    7.50
 -10   1   4   61.69    9.80
   9 -10   4   68.29   12.50
   1   9   4   57.29    8.00
   9 -10   4   90.19   10.90
   1   9   4   86.89   25.90
  13  -4  -4   14.80   10.80
  13  -4  -4   -4.30    6.40
  13  -4  -4   13.50    8.40
  -4  -9  -4    7.80    8.90
  -4  -9  -4    8.40   30.60
 -13   4   4   12.90    8.90
   9 -13   4    7.30    4.70
   4   9   4    7.00    8.20
 -13   4   4    3.10   10.60
   4   9   4   -1.10    6.10
   4   9   4   -0.60    6.00
   9 -13   4    7.10   10.70
  16  -7  -4   -5.30   11.30
  -9  16  -4   17.80   12.20
  -7  -9  -4  -16.80   12.30
  -9  16  -4    3.00   10.30
  -9  16  -4   -3.80    9.00
   9 -16   4    2.60    7.30
   7   9   4   20.10   12.50
   7   9   4    5.70    7.60
 -16   7   4    4.60   19.50
   9 -16   4    5.60   12.40
 -16   7   4    6.90   14.00
   7   9   4   16.20    8.20
 -16   7   4   -1.60    9.80
  -9  19  -4   42.00   12.10
  -9  19  -4   15.80   10.80
  -9  19  -4   -2.40   10.90
  19 -10  -4   16.20    8.40
 -19  10   4   14.80   22.60
  10   9   4   35.50   11.80
 -19  10   4   -4.60   12.80
  10   9   4   29.90   12.20
  16 -10  -4   30.40    8.80
  -6  16  -4   41.00    8.80
 -10  -6  -4   56.89   11.10
 -10  -6  -4   25.50   17.60
  -6  16  -4   40.80   10.30
  -6  16  -4   48.50   10.60
 -16  10   4   44.90   21.00
  10   6   4   54.19    8.40
  10   6   4   49.10    9.40
 -16  10   4   36.50   15.50
 -16  10   4   30.90   11.40
  10   6   4   56.39   10.30
  -3  13  -4  103.49   10.70
  13 -10  -4  113.39    9.20
  -3  13  -4  112.69    9.30
 -10  -3  -4  121.59   13.70
  -3  13  -4  128.19   10.20
  10   3   4  114.29    8.90
 -13  10   4  111.19   12.90
  10   3   4  139.59   19.00
 -13  10   4  116.99   11.60
  10   3   4  107.99    8.80
   3 -13   4  101.59   12.60
 -13  10   4  106.39   20.50
  10   3   4  120.89    9.00
 -13  10   4   91.49   11.90
  10 -10  -4   41.40   21.40
 -10   0  -4   -9.30    6.70
 -10   0  -4   -3.50   17.10
   0  10  -4    7.10    7.00
 -10   0  -4    0.50   10.30
  10   0   4    9.80   11.50
  10   0   4    2.20    4.30
 -10  10   4    0.00   10.70
  10   0   4   -4.80   11.00
   0 -10   4   -4.20    6.40
 -10  10   4  -13.60    9.20
 -10  10   4   -5.80   10.50
 -10  10   4   -5.50   14.60
   3   7  -4  128.29   20.70
 -10   3  -4  154.38   13.10
 -10   3  -4  139.09   23.60
   7 -10  -4  156.78   14.60
 -10   3  -4  126.99   14.40
   3   7  -4  154.18   14.60
  10  -3   4  129.19   11.70
  -3  -7   4  129.99   11.70
  10  -3   4  130.99    8.60
  -7  10   4  147.49   11.80
  -7  10   4  134.39   11.80
  -3  -7   4  131.89    8.20
  -3  -7   4  155.58    8.50
  -7  10   4  130.29   17.80
  10  -3   4  154.08    7.20
   4 -10  -4  114.79   13.70
   6   4  -4   83.29   13.60
   6   4  -4   80.09   13.00
 -10   6  -4  124.19   17.30
   4 -10  -4   92.29    8.10
   6   4  -4  121.79   12.90
 -10   6  -4  113.59    9.50
  -4  10   4   86.19   19.10
  -4  10   4  112.69   15.00
  -4  10   4  108.59    8.60
  -4  10   4  116.49    8.20
  -6  -4   4  116.69    9.70
  -4  10   4  106.39   12.30
  -6  -4   4  101.39   18.00
  10  -6   4  109.29    8.80
   9   1  -4   61.59    8.10
   9   1  -4   79.09   14.90
   9   1  -4   67.49   11.20
 -10   9  -4   76.29   12.20
   9   1  -4   66.29    5.80
 -10   9  -4   86.69    8.50
 -10   9  -4   64.29   11.70
   1 -10  -4   64.59   18.70
   1 -10  -4   69.49    9.50
   1 -10  -4   69.09    7.90
  10  -9   4   71.99   10.50
  -1  10   4   73.59    9.70
  -9  -1   4   62.99   12.00
  -1  10   4   59.89    7.90
  -1  10   4   70.79   19.30
  10  -9   4   87.89   12.20
  12  -2  -4   21.60    7.10
  12  -2  -4   37.60    7.30
  -2 -10  -4   33.40   18.90
 -10  12  -4   28.80    9.80
  12  -2  -4   26.30    8.20
 -10  12  -4   37.20   17.40
 -10  12  -4    8.40    8.90
  -2 -10  -4   27.30   11.30
   2  10   4   35.00    7.90
   2  10   4   15.50    6.80
   2  10   4   30.90   11.10
 -12   2   4   34.10    9.00
 -12   2   4   22.60    9.20
  10 -12   4   31.20   14.50
   2  10   4   19.50    5.90
  15  -5  -4    2.30   10.40
  -5 -10  -4  -17.00   12.20
 -10  15  -4   -9.20    8.70
 -10  15  -4   -3.40    8.80
  -5 -10  -4    5.50    9.40
   5  10   4    9.70   10.00
 -15   5   4   -5.90    9.00
   5  10   4   -7.40    7.20
 -15   5   4   -1.30   12.70
   5  10   4    4.70    7.00
  10 -15   4    5.50   11.50
  10 -15   4   10.90    6.20
   5  10   4   18.40    8.90
 -10  18  -4    6.20   14.50
  18  -8  -4    0.30    7.90
 -10  18  -4   27.00   10.30
 -10  18  -4   31.60   11.30
  -8 -10  -4    5.40   11.00
   8  10   4   14.60    7.70
 -18   8   4   23.40   12.60
  10 -18   4   27.50   15.20
 -18   8   4    5.70   18.50
   8  10   4   18.70   17.40
   8  10   4   15.00   10.00
 -10  21  -4    3.70   12.10
 -11 -10  -4    6.50   14.20
 -10  21  -4   13.70   14.10
  11  10   4    7.60    9.80
  11  10   4   12.40   14.40
  -7  18  -4    8.50   10.30
 -11  -7  -4   31.20   11.50
  11   7   4   42.60   10.30
  11   7   4   18.80    8.60
 -18  11   4   41.40   13.50
  11   7   4   27.30    8.00
 -11  -4  -4  -11.40   14.30
 -11  -4  -4   11.50    8.10
  -4  15  -4  -16.10    8.10
  -4  15  -4    7.70    9.20
  -4  15  -4   -9.80    7.40
 -15  11   4   -3.50    9.40
  11   4   4   10.40    7.60
 -15  11   4   16.90   22.70
  11   4   4    0.00    7.20
 -15  11   4  -10.10   12.70
  11   4   4   -3.00    7.00
   4 -15   4   -5.50   13.00
 -15  11   4   -6.10    9.00
  11   4   4   -5.00    8.90
  -1  12  -4    9.40    6.90
  12 -11  -4    8.70    7.10
 -11  -1  -4  -10.10   10.10
  -1  12  -4    0.80    7.10
 -11  -1  -4    6.90    9.80
 -12  11   4    5.60   10.20
   1 -12   4   14.10   10.20
 -12  11   4   -6.60   10.60
   1 -12   4   -3.90    7.20
  11   1   4    4.20    7.90
 -12  11   4   13.60   11.40
  11   1   4   12.80   14.20
 -12  11   4   10.70   18.10
 -12  11   4   -3.80   11.70
   9 -11  -4   85.99   16.10
   2   9  -4   78.69    8.30
 -11   2  -4  103.89   18.00
 -11   2  -4   93.89   11.70
   2   9  -4  104.59    9.80
  -9  11   4   87.39   14.30
  11  -2   4   87.89    7.50
  11  -2   4   74.49    8.40
  -2  -9   4   79.69   11.30
  11  -2   4  102.89    7.40
  11  -2   4   68.39   12.20
  11  -2   4  112.79   11.20
  -2  -9   4   84.19    6.60
  -9  11   4  110.89   11.00
  -9  11   4   85.59   11.60
  -9  11   4   86.49   16.90
 -11   5  -4   26.10    9.50
 -11   5  -4   24.10   16.80
 -11   5  -4   34.80    9.30
   5   6  -4   18.00   15.10
   6 -11  -4   40.60   11.70
   5   6  -4   24.60   13.00
   5   6  -4   21.60   13.10
   5   6  -4   33.70    7.40
   5   6  -4   40.40   16.70
   6 -11  -4   12.70   14.40
  -6  11   4   26.40    8.20
  11  -5   4   26.50    5.30
  -5  -6   4   25.50    7.10
  -6  11   4   18.40   10.70
  11  -5   4    8.80    8.60
  -6  11   4   18.70   13.00
  -6  11   4   26.80    8.50
  -5  -6   4   25.70    7.50
  11  -5   4   22.30    6.00
  -6  11   4   28.00    6.80
   8   3  -4    2.50    7.80
 -11   8  -4   15.10   20.40
   8   3  -4   15.70    8.00
   8   3  -4  -12.00   14.30
   8   3  -4    7.30   11.50
   3 -11  -4   16.40   11.00
   3 -11  -4   12.10   17.30
   3 -11  -4   15.70    5.50
 -11   8  -4   15.80    9.70
  -3  11   4    7.00    7.50
  -3  11   4   10.50   13.60
  11  -8   4    8.50   12.90
  11  -8   4   -0.80    7.60
  -8  -3   4   22.00   15.80
  -3  11   4    8.50    6.60
  -8  -3   4   15.10    6.60
  11  -8   4   22.00    4.80
   0 -11  -4   34.00   23.30
  11   0  -4   20.70    6.70
  11   0  -4   22.10    7.00
  11   0  -4   16.90    8.00
   0 -11  -4   14.10    8.90
 -11  11  -4   24.50   13.30
  11   0  -4   25.80   10.30
 -11  11  -4   11.30   11.70
   0 -11  -4   12.50    9.80
 -11   0   4   25.00   12.00
   0  11   4    5.40    9.80
  11 -11   4   19.80   12.10
   0  11   4   24.20    7.10
  11 -11   4   32.20    6.30
  -3 -11  -4   16.00   11.50
 -11  14  -4    4.80    9.90
 -11  14  -4    7.30    9.70
  14  -3  -4   14.10    6.80
 -11  14  -4    8.10    7.60
  -3 -11  -4    3.40   10.30
  14  -3  -4   10.50    9.10
 -14   3   4   26.30    9.10
   3  11   4   24.00    7.90
   3  11   4   15.50    7.20
  -6 -11  -4    6.70   10.60
  -6 -11  -4   38.30   15.00
 -11  17  -4   10.80   11.60
 -17   6   4   17.50   11.80
  11 -17   4    9.90    7.70
   6  11   4   -5.60    7.80
 -17   6   4   13.10   15.00
   6  11   4   13.40    8.70
   6  11   4   -2.80   12.90
   6  11   4   -5.90    9.80
 -11  20  -4   -9.40   11.90
  -9 -11  -4   13.10   14.10
 -11  20  -4   13.00   12.50
   9  11   4    8.70    9.30
 -20   9   4   -9.30   12.90
  -8  20  -4   11.60   11.50
  -8  20  -4   15.90   12.40
  -8  20  -4   35.80   11.30
 -20  12   4   43.50   15.70
 -20  12   4   -2.80   14.50
  12   8   4   17.60    8.80
  -5  17  -4   12.40    7.90
  17 -12  -4    1.30    7.30
  -5  17  -4   -6.10   10.10
  -5  17  -4   12.50    9.40
 -12  -5  -4    3.10    7.40
  12   5   4   31.20   11.70
 -17  12   4   -4.20   10.30
  12   5   4   10.40    8.00
  12   5   4   -4.90    9.30
 -17  12   4   15.70   16.10
  12   5   4   13.40    7.20
 -12  -2  -4    6.60    7.50
  -2  14  -4  -14.50    7.80
  -2  14  -4    7.20    9.40
  -2  14  -4    6.50    7.70
  12   2   4  -10.00    6.50
  12   2   4   -9.90    7.30
 -14  12   4   -6.00   10.10
 -14  12   4    4.70   12.60
  12   2   4   -1.40   17.70
   2 -14   4   -2.70    7.30
 -14  12   4   -5.50   11.10
   2 -14   4   -4.10    8.10
 -14  12   4   -5.00   12.20
 -14  12   4   17.00   11.80
 -12   1  -4    4.50   18.20
   1  11  -4   16.70    8.20
 -12   1  -4   14.30   11.30
   1  11  -4   24.50    6.80
 -12   1  -4    7.50    8.00
  11 -12  -4   25.10    7.40
   1  11  -4   12.20    6.80
  -1 -11   4    6.90    9.30
  12  -1   4   16.20    6.70
 -11  12   4   28.20   13.90
  12  -1   4   12.40    5.50
  12  -1   4   17.50    5.60
 -11  12   4   26.10   10.30
 -11  12   4    6.30   11.40
 -11  12   4   20.30   10.20
  -1 -11   4   10.20   10.20
   8 -12  -4   77.59   15.40
   4   8  -4  109.49    9.30
 -12   4  -4  124.49   14.20
 -12   4  -4  103.59   17.70
   4   8  -4  102.79    8.80
   4   8  -4  110.39   19.20
 -12   4  -4   87.49   10.90
  12  -4   4  103.79    8.00
  -4  -8   4   88.19    9.90
  12  -4   4   98.69    7.20
  -8  12   4  117.39   12.40
  -8  12   4  108.49   12.70
  -8  12   4   98.09   11.50
  12  -4   4  112.39    9.40
  -4  -8   4  110.79    8.20
  12  -4   4  104.39    7.20
 -12   7  -4  163.88   15.40
   7   5  -4  164.58   17.40
 -12   7  -4  172.98   11.20
 -12   7  -4  155.18   26.60
   7   5  -4  151.18   13.20
   7   5  -4  184.88   16.20
   7   5  -4  177.08    9.70
  -5  12   4  163.58   11.10
  12  -7   4  161.58    9.30
  -5  12   4  186.58   10.20
  -7  -5   4  158.88   11.30
  -7  -5   4  176.68   12.80
  12  -7   4  168.38    8.50
  12  -7   4  186.48    9.30
  12  -7   4  187.28    9.60
  -5  12   4  176.18   13.30
 -12  10  -4   64.29   12.10
  10   2  -4   59.99   12.30
  10   2  -4   50.39    9.50
 -12  10  -4   57.49   11.30
   2 -12  -4   51.89    7.50
  10   2  -4   49.30    9.50
   2 -12  -4   40.30   10.30
  10   2  -4   58.29    7.40
   2 -12  -4   29.50   22.40
  12 -10   4   59.49    7.10
  -2  12   4   52.19    8.50
  -2  12   4   44.00    9.30
  12 -10   4   47.30   10.00
 -10  -2   4   44.10    7.80
  -2  12   4   46.70    8.60
 -10  -2   4   37.80   16.00
 -12  13  -4   29.00   12.10
  -1 -12  -4   19.90   13.30
  13  -1  -4   16.70    6.80
 -12  13  -4   23.40   16.10
  13  -1  -4   29.70    9.70
 -12  13  -4    7.60   10.90
  13  -1  -4   14.00    9.50
   1  12   4   41.80   13.20
  12 -13   4   21.90    6.40
   1  12   4    9.60    7.80
 -13   1   4   11.70    8.20
 -13   1   4   10.10   12.90
 -12  16  -4    9.90   11.30
  -4 -12  -4    8.60   12.10
  16  -4  -4    2.30    7.30
  16  -4  -4   13.80    8.40
  -4 -12  -4   15.60   13.60
 -12  16  -4   21.50   10.50
   4  12   4   18.20    9.90
   4  12   4   14.40    7.60
   4  12   4   20.90    7.70
 -16   4   4    6.80    9.80
  12 -16   4    8.10    6.90
  19  -7  -4    7.00    8.00
 -12  19  -4   -6.90   11.80
 -12  19  -4  -10.60   10.20
  -7 -12  -4  -12.80   10.30
 -19   7   4    7.50   12.10
   7  12   4  -12.80   10.40
  12 -19   4   -2.00    9.20
   7  12   4   -9.10    8.20
  -6  19  -4   12.90   10.70
  -6  19  -4    9.30   11.00
  19 -13  -4   17.10    9.20
 -13  -6  -4   -0.80   11.90
  13   6   4  -17.30   11.60
 -19  13   4   -5.00   12.40
  13   6   4   -6.10    9.10
  13   6   4   16.10   10.70
  -3  16  -4    8.70    9.20
  -3  16  -4    9.80    9.40
  -3  16  -4   -2.90    8.10
 -13  -3  -4   16.50    8.90
 -16  13   4  -10.70   12.60
   3 -16   4   10.00   13.70
  13   3   4   10.10    7.90
 -16  13   4   12.30   12.30
 -16  13   4    3.00   15.70
 -16  13   4    6.60   10.90
  13   3   4   13.50    8.10
  13   3   4    4.00    7.60
  13   3   4   13.20    9.60
 -13   0  -4    9.50   12.10
   0  13  -4   26.50    7.80
   0  13  -4   16.00    8.70
  13 -13  -4   -0.70    8.00
  13   0   4   32.00   14.90
  13   0   4    6.90    5.50
 -13  13   4   22.00   10.90
 -13  13   4   29.20   10.90
 -13  13   4  -18.90   15.30
  13   0   4   14.40    8.00
   0 -13   4    6.20    9.40
   3  10  -4   19.90    8.80
  10 -13  -4   37.10   15.80
 -13   3  -4   32.40    8.40
   3  10  -4   34.90    7.60
   3  10  -4   24.20    6.40
 -10  13   4   27.00   11.10
 -10  13   4   34.50    9.60
 -10  13   4   35.10   10.10
  13  -3   4   20.00   13.10
 -10  13   4   21.70    9.10
 -10  13   4   18.10    6.10
  -3 -10   4   25.40    9.00
  -3 -10   4   29.80    5.90
  13  -3   4   43.70    9.50
  13  -3   4   27.10    6.40
   6   7  -4   24.00    8.90
   7 -13  -4   38.70    9.20
   6   7  -4   29.30   18.60
   6   7  -4   16.70   15.90
   6   7  -4   31.60    6.00
   6   7  -4   43.50   17.20
 -13   6  -4   47.80    9.10
 -13   6  -4   43.40   11.10
  -7  13   4   51.19    8.90
  -7  13   4   56.29    6.60
  -6  -7   4   35.10    7.50
  13  -6   4   42.40    9.70
  13  -6   4   52.89    6.20
  -6  -7   4   44.30    8.30
  -7  13   4   45.90   10.00
  -7  13   4   30.70    8.00
  -7  13   4   46.50   13.60
   4 -13  -4   47.80    6.50
   9   4  -4   49.10   16.10
 -13   9  -4   38.90   10.10
   9   4  -4   40.00   10.40
   9   4  -4   39.00    6.90
   9   4  -4   53.29   15.30
 -13   9  -4   47.40   10.80
  -4  13   4   52.29    7.80
  -4  13   4   57.09    5.90
  13  -9   4   50.09    7.80
  -4  13   4   34.30    7.70
  -4  13   4   58.89    8.60
  -9  -4   4   49.40    7.30
   1 -13  -4   31.20    8.80
  12   1  -4   38.10    9.70
 -13  12  -4   36.60   12.10
  12   1  -4   59.29   12.80
 -13  12  -4   27.40   13.20
  12   1  -4   38.90    7.80
   1 -13  -4   38.90   13.40
  12   1  -4   24.50    8.90
  -1  13   4   27.20    7.80
 -12  -1   4   41.00    9.50
  -1  13   4   58.99   11.80
 -12  -1   4   42.30   16.70
  13 -12   4   32.80   11.40
 -13  15  -4   -2.10   10.90
  -2 -13  -4   25.40   11.20
 -13  15  -4   24.50   12.70
  15  -2  -4   19.40    8.10
  15  -2  -4   20.50    7.70
   2  13   4   31.20    8.40
 -15   2   4   16.70    9.10
   2  13   4   35.00   25.30
  13 -15   4    9.50    5.90
 -13  18  -4    8.70   11.90
   5  13   4   14.00    9.30
   5  13   4   16.40    9.20
 -18   5   4    7.60   10.30
  21  -8  -4   29.50   10.00
 -13  21  -4   11.50   14.10
  -8 -13  -4  -11.60   13.80
 -13  21  -4    2.70   14.80
   8  13   4  -10.40    9.90
  -7  21  -4    6.60   11.60
 -14  -7  -4   38.80   14.60
  21 -14  -4   18.80   10.20
 -21  14   4   25.30   15.70
  14   7   4   -2.70   11.40
  14   7   4   35.80   12.90
  18 -14  -4  -10.30    8.70
 -14  -4  -4   -2.40    8.70
  -4  18  -4    0.00   10.90
  -4  18  -4    5.70   10.40
  14   4   4   14.20   10.60
  14   4   4    5.80    8.40
  14   4   4  -12.40   11.60
 -18  14   4   31.60   15.90
   4 -18   4    6.20   14.40
 -18  14   4   -2.90   11.60
  -1  15  -4   35.50    8.50
  -1  15  -4   51.99    9.20
  15 -14  -4   36.30    9.40
  14   1   4   38.30    7.90
 -15  14   4   47.60   11.40
  14   1   4   49.10   18.90
  14   1   4   24.70    8.40
 -15  14   4   10.30   16.00
  14   1   4   40.30    7.60
 -15  14   4   28.70   13.00
 -15  14   4   48.90   12.90
  12 -14  -4  -10.90    8.40
   2  12  -4   -2.50    6.30
   2  12  -4  -10.60    9.10
 -14   2  -4   21.80    9.80
 -14   2  -4   13.60   11.60
   2  12  -4   -0.60    7.50
  14  -2   4    7.20   11.80
 -12  14   4    7.80   11.30
  14  -2   4   -1.60    5.30
  14  -2   4    6.10    7.50
  14  -2   4    5.40    7.70
 -12  14   4   16.70   12.60
 -12  14   4   -3.60    8.10
 -12  14   4    3.90   13.20
 -12  14   4    2.40    8.00
   5   9  -4   28.50   21.50
   5   9  -4   51.19   10.00
   9 -14  -4   30.70   17.70
 -14   5  -4   24.40    9.20
 -14   5  -4   18.60   10.20
 -14   5  -4   33.10   17.40
   9 -14  -4   17.20   10.10
   5   9  -4   35.50    6.60
  -9  14   4   36.20    6.90
  -5  -9   4   22.90    8.40
  -9  14   4   39.60    8.00
  14  -5   4   40.00    7.40
  14  -5   4   46.70    6.80
  -9  14   4   42.10    7.80
  -5  -9   4   31.90    7.80
  14  -5   4   19.40   11.50
  -9  14   4   45.60   13.40
 -14   8  -4  278.17   15.90
 -14   8  -4  230.18   15.60
   8   6  -4  228.48   15.60
   8   6  -4  266.47   12.00
 -14   8  -4  254.47   14.20
  -6  14   4  242.48   12.20
  14  -8   4  246.48   12.10
  14  -8   4  262.87   11.20
  -8  -6   4  252.47   14.20
  -6  14   4  272.17   13.60
  -6  14   4  241.88   14.80
 -14  11  -4   61.39   12.10
  11   3  -4   36.00    9.40
   3 -14  -4   51.79    6.80
   3 -14  -4   24.50   12.80
  11   3  -4   20.20   11.00
 -14  11  -4   57.49   10.40
  -3  14   4   60.19   10.10
  14 -11   4   37.80    9.50
  -3  14   4   46.60    7.70
  -3  14   4   42.90    8.70
 -11  -3   4   27.40    8.20
 -14  14  -4  -22.00   11.80
  14   0  -4  -11.60    7.60
  14   0  -4   -3.00   11.50
 -14  14  -4    4.50   16.60
   0 -14  -4   -9.70   11.40
   0 -14  -4  -17.20   14.10
  14   0  -4   -4.70    6.20
  14   0  -4   10.60    9.30
   0  14   4   -5.00    6.70
 -14   0   4  -19.80   18.00
   0  14   4    4.90    8.30
  14 -14   4    1.30    5.40
 -14  17  -4   17.80   13.40
  17  -3  -4   15.10    8.50
  17  -3  -4    3.00    7.70
  -3 -14  -4   17.20   13.00
 -14  17  -4    9.60   11.20
   3  14   4   17.80    8.60
  14 -17   4   15.10    8.10
 -17   3   4   19.30    9.70
 -14  20  -4   12.90   12.80
 -14  20  -4   12.50   13.50
  -6 -14  -4   26.30   14.50
   6  14   4   11.10   11.50
  14 -20   4   -2.30    9.00
 -20   6   4   -1.60   13.80
 -15  -5  -4   -5.90    9.40
  20 -15  -4   24.20   11.10
  -5  20  -4  -22.30   11.40
  -5  20  -4    2.70   17.50
 -20  15   4  -12.50   15.00
  15   5   4  -10.60   11.80
 -20  15   4    9.50   13.70
  15   5   4    6.60   10.00
  -2  17  -4   14.80   11.00
  -2  17  -4   23.00    9.00
 -15  -2  -4    4.80    9.10
  17 -15  -4   16.40    9.90
  -2  17  -4    0.60    9.40
 -17  15   4  -17.60   15.80
 -17  15   4    5.40   11.70
   2 -17   4   23.90   16.00
  15   2   4  -10.30   30.10
  15   2   4   14.30    9.90
 -17  15   4    4.70   15.30
   1  14  -4    5.80    9.50
   1  14  -4    9.70    8.20
  14 -15  -4    9.70    8.50
 -15   1  -4  -11.30    9.50
   1  14  -4    4.50    7.90
 -15   1  -4    3.30   12.70
  -1 -14   4    6.10   13.10
 -14  15   4   -1.80   11.70
 -14  15   4   34.30   18.30
  15  -1   4   15.40    7.30
 -14  15   4    2.40   11.00
 -14  15   4   -7.40    9.00
  15  -1   4  -12.60   14.20
  11 -15  -4    3.20    9.50
 -15   4  -4   12.20   11.20
   4  11  -4   13.20    7.90
   4  11  -4    1.50    7.00
 -11  15   4   42.20   13.70
  15  -4   4   19.10    5.60
  -4 -11   4   21.00    8.80
 -11  15   4   17.80    9.40
 -11  15   4    3.20   10.40
 -11  15   4   11.80   10.10
 -15   7  -4   16.10   13.30
   7   8  -4   11.80    8.70
 -15   7  -4   19.10   25.10
   7   8  -4   16.20   16.30
   7   8  -4   28.30    7.80
   8 -15  -4   -1.30   18.60
 -15   7  -4   15.20   10.40
   7   8  -4   37.90    8.50
 -15   7  -4   30.90    9.60
   7   8  -4   22.90   21.80
   8 -15  -4   15.80   10.20
  15  -7   4   25.80    6.30
  -8  15   4   25.20    7.70
  -8  15   4   19.10   15.10
  -7  -8   4   27.00    8.70
  -8  15   4   35.80   11.70
  15  -7   4   41.80   10.50
  -8  15   4   42.30    9.90
 -15  10  -4   67.89   14.10
  10   5  -4   79.69    9.10
  10   5  -4  101.09    9.40
 -15  10  -4   79.89   11.70
  15 -10   4   90.09    9.10
  -5  15   4   82.79   10.40
  15 -10   4   80.59    7.70
  -5  15   4   88.79   10.30
  -5  15   4  102.09   12.70
  13   2  -4   25.20    7.80
   2 -15  -4    8.30    6.40
  13   2  -4   12.70    9.10
 -15  13  -4   -8.80   12.60
  13   2  -4    9.50   15.70
   2 -15  -4   -8.80   11.90
 -15  13  -4   -6.70   11.20
  13   2  -4   -1.00    9.40
  -2  15   4   18.60    7.40
  15 -13   4    5.90    9.70
 -13  -2   4   17.90    8.20
  -1 -15  -4  -11.60   13.90
 -15  16  -4   24.80   12.80
  16  -1  -4   -0.50    7.70
  16  -1  -4    0.20   10.30
 -15  16  -4   20.20   10.80
  15 -16   4   -3.10    6.90
   1  15   4   11.70    9.70
   1  15   4    9.50    8.10
  19  -4  -4   14.90   10.50
 -15  19  -4    0.50   14.70
 -15  19  -4   -2.50   11.00
  -4 -15  -4    5.40   15.10
  19  -4  -4   16.50    8.20
   4  15   4   16.30   11.50
  15 -19   4   10.80    9.80
 -19   4   4   17.90   11.80
   4  15   4   -4.80    9.60
  -3  19  -4  -14.20   12.70
  -3  19  -4  -17.20   11.00
  19 -16  -4   -9.30   10.30
 -16  -3  -4  -17.30   10.80
 -19  16   4   27.60   17.70
  16   3   4   10.60    8.60
  16   3   4  -13.70   11.10
 -19  16   4  -18.40   14.50
   3 -19   4    9.90   16.90
   0  16  -4   39.20   10.30
  16 -16  -4   30.70    9.50
   0  16  -4   10.30    8.70
 -16  16   4   14.00   14.00
 -16  16   4   20.70   15.50
 -16  16   4   17.20   13.30
  16   0   4   21.40   10.00
  16   0   4   42.90   16.00
   0 -16   4   31.30   14.80
  13 -16  -4  -16.50    8.50
   3  13  -4   12.10    9.50
   3  13  -4   -9.20    8.50
 -16   3  -4    5.50   12.60
   3  13  -4   15.60    7.70
 -13  16   4   -9.40   11.80
 -13  16   4    1.50   13.30
 -13  16   4    1.50   10.00
  -3 -13   4   -4.40    9.00
  16  -3   4    4.50    7.10
 -13  16   4  -20.10   10.10
  16  -3   4   -1.30    7.10
  16  -3   4   -1.60    5.70
   6  10  -4   28.00   24.00
  10 -16  -4   -7.40   20.20
 -16   6  -4    5.70   11.80
   6  10  -4   -0.70    9.40
   6  10  -4   12.50    7.10
 -16   6  -4    3.60   19.80
 -16   6  -4    9.40   12.10
  -6 -10   4   -5.60    8.60
  16  -6   4    2.50   12.30
 -10  16   4   -8.00    8.30
 -10  16   4    2.40   17.20
  16  -6   4    3.10    5.90
 -10  16   4   -4.70    8.40
  16  -6   4   13.70    7.80
   9   7  -4  114.09   25.10
 -16   9  -4  145.59   13.20
 -16   9  -4  174.58   16.00
   9   7  -4  153.78   11.00
   9   7  -4  137.49   13.10
  -9  -7   4  143.59   12.30
  -7  16   4  152.58   11.80
  -7  16   4  167.98   13.30
  16  -9   4  150.88    9.60
  16  -9   4  176.38   10.30
   4 -16  -4   47.50   14.30
 -16  12  -4   79.29   13.40
  12   4  -4   76.29   12.10
  12   4  -4   57.39    7.20
 -16  12  -4   51.69   12.30
 -16  12  -4   67.89   13.10
 -12  -4   4   75.39   10.30
  -4  16   4   62.89   10.40
  -4  16   4   74.19   12.20
  15   1  -4   -2.90   14.80
 -16  15  -4   -2.20   17.70
  15   1  -4    1.20    7.80
   1 -16  -4   15.80   13.40
  -1  16   4    5.80    8.60
 -15  -1   4   11.80    9.20
  -1  16   4    9.80    8.60
  -2 -16  -4  -29.70   14.50
  18  -2  -4   22.10   11.50
 -16  18  -4  -18.00   10.30
  18  -2  -4  -14.70    8.30
   2  16   4  -11.90   10.30
  18 -17  -4    3.00   10.30
  -1  18  -4   16.70   12.60
 -18  17   4   34.60   17.00
  17   1   4   10.80    8.70
   1 -18   4    6.80   16.40
  15 -17  -4   -8.20    9.10
   2  15  -4   15.90    9.80
 -17   2  -4   -3.40    9.60
   2  15  -4   -4.90    9.70
   2  15  -4   -1.70    8.40
 -17   2  -4    8.60   13.90
 -15  17   4    0.00   19.70
 -15  17   4   10.20   14.70
  17  -2   4    7.00    8.20
 -15  17   4    2.10   13.40
  -2 -15   4   26.10   15.60
  17  -2   4    8.80    7.60
 -15  17   4    4.10   10.30
   5  12  -4   24.60    7.70
  12 -17  -4   27.50   10.30
   5  12  -4   15.60    8.90
 -17   5  -4   14.60   11.30
  -5 -12   4   26.30   11.00
 -12  17   4   -0.40   17.20
  17  -5   4    1.60    7.60
 -12  17   4    4.70   10.30
 -12  17   4   14.20    9.50
  17  -5   4    1.40    5.80
  17  -5   4   10.50    6.70
   8   9  -4    9.60   10.50
   9 -17  -4   26.00   21.50
 -17   8  -4    3.60   11.80
   8   9  -4   26.20    7.60
   8   9  -4    6.80   28.60
   8   9  -4   32.50    9.00
  17  -8   4   23.60    6.60
  -9  17   4   18.60   10.70
  -9  17   4   31.30   10.50
  17  -8   4   19.00   10.30
  11   6  -4   21.10   13.90
 -17  11  -4   29.90   11.00
  11   6  -4   24.20    9.10
 -17  11  -4   -0.30   12.30
  11   6  -4    5.50    7.60
  -6  17   4   11.60    8.80
  17 -11   4    7.80    5.80
  -6  17   4    3.50   10.10
  -6  17   4   -9.90   10.50
  14   3  -4   22.10   12.60
 -17  14  -4    8.30   12.90
  14   3  -4   20.50    7.10
  14   3  -4   27.20   12.80
   3 -17  -4    5.60   14.10
 -17  14  -4    3.80   15.10
  -3  17   4    6.00    7.90
  -3  17   4  -12.80   11.70
  17 -14   4    5.60    7.10
 -14  -3   4    9.60    9.20
 -17  17  -4    6.20   11.00
   0 -17  -4   37.50   16.50
 -17  17  -4  -12.10   15.20
   0  17   4   -4.60    9.90
 -17   0   4    9.50    9.90
  17 -17   4  -10.70    8.30
   0  17   4   31.10   12.60
  -3 -17  -4  -11.30   15.90
  20  -3  -4   15.50   11.00
 -20   3   4  -16.80   11.60
   3  17   4   20.80   11.90
   1  17  -4   -0.20   12.20
 -18   1  -4   15.70   10.90
  17 -18  -4   10.80   10.60
   1  17  -4   -0.70    9.80
 -17  18   4   23.00   17.30
  18  -1   4    1.70    9.60
  18  -1   4   -0.20    7.80
  -1 -17   4  -23.20   16.90
 -17  18   4   14.90   11.30
   4  14  -4    4.50    8.40
 -18   4  -4  -12.70   13.50
 -18   4  -4  -13.20   10.70
  14 -18  -4   11.30   11.00
   4  14  -4   10.30    9.50
  -4 -14   4   -5.40   10.60
 -14  18   4   -6.80   11.90
 -14  18   4   -5.60   16.80
 -14  18   4   -4.00   11.40
  18  -4   4   -6.00    7.80
   7  11  -4   -5.90    9.70
   7  11  -4   -1.20    9.80
   7  11  -4    8.00    7.60
  11 -18  -4    1.60   11.00
 -18   7  -4   21.30   13.40
 -18   7  -4   17.40   11.50
  18  -7   4  -20.20   13.50
  18  -7   4  -10.30    5.20
  -7 -11   4   -2.70    9.30
 -11  18   4   -8.00   10.40
 -18  10  -4   18.50   13.50
  10   8  -4    3.50   16.80
 -18  10  -4    6.40   10.40
  10   8  -4    1.30    7.60
  10   8  -4   15.10   10.70
 -10  -8   4   -7.80    8.10
  -8  18   4    1.80   10.90
  -8  18   4    1.50    9.70
  -8  18   4   -2.30    9.50
 -18  13  -4  -14.50   13.70
  13   5  -4  -10.50    8.30
 -18  13  -4   24.70   12.30
  13   5  -4    9.40   13.60
  13   5  -4   -6.90    9.70
  -5  18   4  -12.00   12.40
  -5  18   4    1.60    9.10
  18 -13   4    1.90    6.70
  -5  18   4    4.80   11.60
 -18  16  -4   15.20   22.30
 -18  16  -4  -17.70   15.50
  16   2  -4   -1.10    8.10
   2 -18  -4  -21.80   15.60
 -16  -2   4   -3.40   10.10
  18 -16   4    2.00    7.80
  -2  18   4   18.20   11.10
  -2  18   4   25.20   14.30
  -1 -18  -4  -18.00   18.70
 -18  19  -4  -11.00   17.70
  19  -1  -4   28.30   14.50
  19  -1  -4   16.20    9.60
   1  18   4   24.90   14.20
   0 -19   4    6.20   19.90
 -19   3  -4    4.70   14.20
   3  16  -4   -1.50   10.90
   3  16  -4   13.60   10.70
 -19   3  -4   16.40   12.50
   3  16  -4   17.60   11.00
  16 -19  -4    8.80   12.90
 -16  19   4    5.30   11.10
  19  -3   4    0.60    9.00
  19  -3   4   -9.20    8.80
  -3 -16   4   17.90   17.20
 -16  19   4   -1.10   14.00
  13 -19  -4   17.70   12.80
   6  13  -4   -2.50    9.60
 -19   6  -4  -10.80   13.30
   6  13  -4   26.70   10.70
   6  13  -4   30.50    9.70
 -19   6  -4  -14.20   12.30
  19  -6   4    4.20    7.90
 -13  19   4   16.80   12.30
 -13  19   4   -4.60   12.10
  19  -6   4   11.50    7.40
 -13  19   4    0.10   21.20
  10 -19  -4    9.40   25.10
   9  10  -4   33.10   35.90
 -19   9  -4  -11.50   11.70
   9  10  -4    8.20   10.60
   9  10  -4  -17.10   10.00
 -19   9  -4    3.70   13.50
  -9 -10   4   12.80   10.30
 -10  19   4   21.00   11.80
  19  -9   4    4.00    6.90
 -10  19   4   -0.90   10.00
 -10  19   4   -6.30   11.00
 -19  12  -4   34.20   15.70
  12   7  -4   -0.50    7.40
  12   7  -4    3.60    9.60
  12   7  -4    8.40   14.50
 -19  12  -4  -20.00   12.50
  -7  19   4   12.30   12.50
  -7  19   4  -12.70    9.40
  -7  19   4   20.20   10.30
  19 -12   4   -6.80    6.60
 -12  -7   4  -12.60   11.00
  15   4  -4   13.50    9.30
  15   4  -4    7.30   14.20
 -19  15  -4  -20.20   13.50
  15   4  -4  -12.30    9.70
 -19  15  -4  -15.00   12.30
  -4  19   4   -8.10   11.60
  -4  19   4   11.40   10.20
 -15  -4   4   -6.70   10.50
   1 -19  -4   -0.90   18.00
  18   1  -4   21.10   16.40
 -19  18  -4   -3.20   18.50
  18   1  -4   -0.70    9.00
 -18  -1   4   -3.40   12.70
  -1  19   4    4.50   14.20
  -1  19   4   23.80   12.80
  19 -18   4   16.00   10.20
   5  15  -4   21.70   10.40
 -20   5  -4    8.70   17.70
 -20   5  -4   -5.00   13.90
  15 -20  -4   22.40   13.70
   5  15  -4    1.40   13.50
 -15  20   4   11.10   13.60
 -15  20   4  -14.60   11.80
  20  -5   4    6.60    8.20
  20  -5   4   -4.90   10.50
  -5 -15   4   21.20   13.20
   8  12  -4   24.70   11.50
 -20   8  -4   12.70   14.10
  12 -20  -4    9.40   13.50
 -20   8  -4   -5.20   11.70
   8  12  -4   11.50    9.30
  -8 -12   4   12.00   12.20
 -12  20   4   20.90   12.90
 -12  20   4    2.70   12.20
  11   9  -4   11.80    8.70
  11   9  -4    8.30   17.90
 -20  11  -4   12.90   14.30
  11   9  -4   15.00   11.10
 -20  11  -4   -2.60   10.90
 -11  -9   4   -2.70   10.00
  -9  20   4   12.90   11.40
  20 -11   4    6.30    6.80
  -9  20   4   16.60   12.50
  -9  20   4    4.40   11.60
  14   6  -4    4.60   10.40
  14   6  -4  -13.70   17.10
 -20  14  -4  -16.50   15.30
  14   6  -4   11.60    8.70
 -20  14  -4  -25.30   15.30
  20 -14   4   -1.20    7.60
  -6  20   4   -7.10    9.60
  -6  20   4    1.70   12.90
 -14  -6   4    0.10   10.90
  17   3  -4    2.00   14.20
 -20  17  -4   13.60   16.60
 -20  17  -4   23.00   20.60
  -3  20   4    4.60   14.40
 -17  -3   4    7.90   12.20
 -21   7  -4   -2.30   13.40
  14 -21  -4   13.90   13.30
   7  14  -4   -6.50   10.80
 -21   7  -4   -9.80   14.40
   7  14  -4  -14.50   11.90
 -14  21   4  -11.30   13.70
  21  -7   4    1.90    8.30
  10  11  -4   -2.00   12.60
  10  11  -4   10.30   11.40
 -21  10  -4   17.20   15.80
  10  11  -4    4.30    9.20
 -11  21   4   20.30   12.00
 -11  21   4   -3.00   14.20
 -10 -11   4  -18.40   14.90
  21 -10   4   10.40    8.30
  13   8  -4   31.40   12.20
  13   8  -4   41.20   18.10
 -21  13  -4   -6.70   12.40
  13   8  -4    3.00   10.20
  13   8  -4   15.40    9.40
 -21  13  -4   12.50   16.60
  -8  21   4   13.80   13.20
 -13  -8   4   -4.40   11.10
  21 -13   4    2.30    8.00
   1   0  -5   23.20    6.20
   0  -1  -5   26.90    4.80
   0  -1  -5   23.50    7.20
  -1   1  -5   45.50    7.60
  -1   1  -5   22.60    7.20
  -1   1  -5   39.90    7.20
   1   0  -5   43.70    6.80
   0  -1  -5   29.70    8.50
  -1   1  -5   29.50    5.00
   0   1   5   40.50    5.90
  -1   0   5   37.00    6.60
   1  -1   5   42.10    7.30
   0   1   5   34.20    8.30
  -1   0   5   25.60    6.00
   1  -1   5   41.30    5.90
   0   1   5   18.20    6.90
  -1   0   5   39.40    6.00
   1  -1   5   24.10    7.60
  -1   0   5   29.90    6.60
   1  -1   5   37.10    6.60
   0   1   5   27.20    8.00
  -1   0   5   29.20    9.30
   2  -2  -5 2593.04   76.89
   2  -2  -5 2655.53   75.49
  -2   0  -5 2479.55   75.79
  -2   0  -5 2632.54   76.99
   0   2  -5 2635.04   76.09
   0   2  -5 2741.83   76.29
   0   2  -5 2600.84   76.59
   0   2  -5 2597.84   76.19
   2  -2  -5 2583.44   76.39
   2  -2  -5 2588.94   77.39
   0  -2   5 2557.44   75.99
  -2   2   5 2769.72   76.89
  -2   2   5 2582.14   75.89
   2   0   5 2587.04   76.99
   2   0   5 2631.44   76.19
   0  -2   5 2648.44   76.39
  -2   2   5 2720.33   76.09
   0  -2   5 2721.23   75.89
   0  -2   5 2519.95   76.49
   0  -2   5 2606.64   75.69
  -2   2   5 2657.03   75.29
  -2   2   5 2598.64   76.99
   2   0   5 2600.84   75.89
  -1  -2  -5  137.59    9.90
   3  -1  -5  130.09   13.60
  -2   3  -5  113.59    9.20
   3  -1  -5  137.49    9.00
  -1  -2  -5  138.09    8.30
   3  -1  -5  138.59    9.10
  -2   3  -5  121.29   11.60
   3  -1  -5  125.59    9.50
  -2   3  -5  136.69   12.30
  -2   3  -5  135.99    7.80
  -1  -2  -5  146.19   11.90
  -1  -2  -5  121.59   11.50
  -3   1   5  116.39    9.80
   1   2   5  127.39    8.30
  -3   1   5  115.29    7.30
   2  -3   5  133.09   11.60
   2  -3   5  130.29    9.30
   1   2   5  126.89   11.40
   2  -3   5  138.99    7.30
  -3   1   5  108.39    8.10
  -3   1   5  125.89   10.00
  -3  -1  -5 4261.27  122.99
  -1   4  -5 4151.68  122.09
  -1   4  -5 4036.10  121.59
  -3  -1  -5 4254.07  122.59
   4  -3  -5 4402.86  122.69
  -3  -1  -5 4178.38  121.89
  -3  -1  -5 4052.49  122.19
  -1   4  -5 3992.20  122.99
  -1   4  -5 4301.17  121.89
  -1   4  -5 4367.36  122.79
   4  -3  -5 4201.18  122.59
  -3  -1  -5 4413.46  122.09
   4  -3  -5 4401.66  123.19
   1  -4   5 4019.50  121.49
   1  -4   5 4350.16  122.99
   1  -4   5 4468.35  121.19
  -4   3   5 4321.67  122.79
   3   1   5 4435.46  122.19
   1  -4   5 4005.30  122.79
   3   1   5 4405.56  123.19
  -4   3   5 4218.28  122.19
   3   1   5 4146.19  122.19
  -4   3   5 4196.48  122.19
   1  -4   5 4196.58  122.09
  -3   2  -5   11.40    7.10
   2   1  -5    5.70    6.70
   2   1  -5   -0.20    8.40
   1  -3  -5    7.00    5.20
   2   1  -5   23.30   12.50
   1  -3  -5   -4.80    7.00
   2   1  -5    6.00    5.20
  -3   2  -5    4.60    6.90
   1  -3  -5   11.20    9.10
  -1   3   5   15.20    9.60
  -1   3   5   -5.70    8.60
   3  -2   5   13.20    6.10
  -1   3   5   13.50    5.60
   3  -2   5   22.40    8.30
   3  -2   5   12.90    6.30
  -2  -1   5    1.10    8.40
   3  -2   5   -3.00    6.10
  -1   3   5    1.90    7.50
  -2  -1   5    3.10    8.80
  -2  -1   5   11.70    7.20
  -2  -1   5    2.80    6.10
  -2  -1   5    7.80    6.10
   5  -2  -5  131.89   11.70
  -2  -3  -5  111.59    8.10
  -2  -3  -5  113.79    9.00
   5  -2  -5  106.89    9.20
  -3   5  -5  120.99   14.10
   5  -2  -5  123.99   12.60
   3  -5   5   97.69    7.20
   3  -5   5  107.09    6.90
   2   3   5  118.49    9.80
  -5   2   5   99.09    8.10
  -5   2   5  134.99   11.00
   3  -5   5  131.39   10.40
   2   3   5  106.39    9.20
   3  -5   5  126.79   13.00
  -5   2   5  105.29    9.00
   2   3   5   94.79    9.10
  -5   2   5  121.19   11.90
  -2   6  -5  391.86   19.70
  -2   6  -5  400.16   18.20
  -2   6  -5  428.86   16.00
  -2   6  -5  437.66   19.70
  -4  -2  -5  428.76   16.50
   6  -4  -5  387.36   17.40
   6  -4  -5  431.36   21.00
  -4  -2  -5  432.46   19.10
  -4  -2  -5  422.16   17.60
   6  -4  -5  404.26   18.00
  -4  -2  -5  446.66   18.50
  -6   4   5  419.26   19.30
  -6   4   5  404.06   15.90
   4   2   5  415.26   17.50
  -6   4   5  397.86   17.60
   4   2   5  435.06   18.90
   4   2   5  429.06   17.60
   2  -6   5  434.36   19.20
   4   2   5  436.26   16.90
  -6   4   5  414.76   16.40
   2  -6   5  411.56   18.10
   2  -6   5  421.56   19.50
   2  -6   5  386.56   15.70
  -4   1  -5   33.30    8.10
   3  -4  -5   47.70   11.80
   3  -4  -5   12.00    8.70
  -4   1  -5   31.30    9.50
   1   3  -5   32.90    8.20
   1   3  -5   13.60    7.90
   3  -4  -5   29.70   10.30
  -4   1  -5   27.70    6.60
   1   3  -5   26.80    7.70
   1   3  -5   22.60    8.10
  -3   4   5   19.80    8.20
  -1  -3   5   37.70    7.30
  -3   4   5   41.50    6.20
   4  -1   5   33.80    6.50
  -3   4   5   10.20    9.20
  -3   4   5   17.30    8.80
   4  -1   5   24.80    9.10
  -1  -3   5   35.10    9.50
  -3   4   5   31.90    8.00
  -1  -3   5   14.70    8.10
  -1  -3   5   26.40    8.50
  -1  -3   5   25.10    8.00
   4  -1   5   24.60    6.90
   4  -1   5   28.10    7.80
   0  -4  -5  168.38   13.60
  -4   4  -5  143.79    9.50
  -4   4  -5  154.88    9.00
   4   0  -5  144.09    8.90
   4   0  -5  133.09    9.30
   4   0  -5  146.39   12.30
   0  -4  -5  146.09   11.00
  -4   4  -5  168.38   13.90
   4   0  -5  151.88   12.70
   0  -4  -5  142.39    8.00
   4  -4   5  137.39    9.20
   0   4   5  162.88    9.10
   4  -4   5  160.48   13.30
   0   4   5  157.98   13.20
  -4   0   5  164.68    9.80
  -4   0   5  149.88    9.70
   0   4   5  136.89   10.90
   0   4   5  141.79    7.70
  -4   0   5  157.08   11.50
   4  -4   5  144.49    8.10
  -4   7  -5  647.04   20.10
   7  -3  -5  662.43   22.40
  -4   7  -5  651.63   24.10
  -3  -4  -5  618.54   22.30
  -4   7  -5  638.04   27.30
  -4   7  -5  609.24   26.20
   7  -3  -5  626.24   26.20
   7  -3  -5  606.24   23.80
   4  -7   5  649.43   20.10
   3   4   5  639.24   24.10
   3   4   5  667.63   24.30
   4  -7   5  607.24   27.30
  -7   3   5  626.24   22.90
  -7   3   5  613.74   25.20
  -7   3   5  617.04   22.90
  -7   3   5  648.94   20.80
   4  -7   5  624.24   23.30
   3   4   5  611.84   22.50
   3   4   5  675.03   24.00
   3   4   5  633.64   26.00
   4  -7   5  675.03   21.20
  -5  -3  -5  455.05   19.20
   8  -5  -5  421.66   19.70
  -3   8  -5  439.96   20.70
  -3   8  -5  432.16   22.40
  -5  -3  -5  421.06   18.30
  -8   5   5  399.76   17.20
   5   3   5  452.95   22.30
   3  -8   5  403.96   16.90
  -8   5   5  451.45   17.80
   5   3   5  447.86   19.20
   5   3   5  422.36   19.60
  -8   5   5  437.96   20.10
  -8   5   5  449.16   16.60
   5   3   5  430.76   18.70
   5   3   5  438.26   19.00
  -8   5   5  446.96   22.90
   5   3   5  439.36   22.30
   3  -8   5  419.76   14.20
  -5   0  -5  333.77   15.70
  -5   0  -5  351.86   15.00
   5  -5  -5  316.57   17.10
  -5   0  -5  311.37   15.10
   0   5  -5  333.37   16.30
  -5   0  -5  344.97   14.80
   5  -5  -5  356.46   16.80
   0   5  -5  331.47   16.30
   0   5  -5  299.97   14.90
  -5   0  -5  321.47   16.20
   0   5  -5  319.67   14.20
   5   0   5  337.27   14.90
   0  -5   5  333.57   14.20
  -5   5   5  316.07   17.00
   0  -5   5  345.87   15.20
   0  -5   5  312.37   14.80
  -5   5   5  328.57   14.00
   5   0   5  346.87   14.30
   0  -5   5  339.57   16.40
  -5   5   5  350.56   16.00
  -5   5   5  349.27   16.70
  -5   3  -5  169.78    9.90
   3   2  -5  163.08   11.10
   2  -5  -5  163.18   14.30
   3   2  -5  175.38   14.50
   3   2  -5  151.38   13.60
   2  -5  -5  172.08    8.40
   3   2  -5  162.88   10.60
  -5   3  -5  178.98   13.50
   2  -5  -5  175.88   12.10
   3   2  -5  164.08    9.60
  -3  -2   5  181.98   13.00
  -2   5   5  157.88   11.50
  -3  -2   5  172.78   11.00
  -2   5   5  172.68   13.60
  -2   5   5  185.58    8.60
  -2   5   5  179.38   10.70
   5  -3   5  171.18   10.00
   5  -3   5  178.88    9.20
  -3  -2   5  177.58    9.90
   5  -3   5  165.48    8.20
  -3  -2   5  184.38   10.80
   5  -3   5  167.18   13.50
  -1  -5  -5   -7.30    9.30
   6  -1  -5   17.70   10.20
  -1  -5  -5    5.30   11.50
  -5   6  -5   17.10    8.80
   6  -1  -5   -0.10    7.80
  -1  -5  -5    4.60    8.70
   6  -1  -5    2.90    6.80
  -5   6  -5    0.90    6.20
  -5   6  -5   20.10   12.90
  -1  -5  -5   13.10    8.00
   6  -1  -5    7.30    6.40
  -5   6  -5    4.20   12.10
   6  -1  -5   30.30   11.50
   5  -6   5    3.80    6.30
   1   5   5    8.30    8.10
  -6   1   5   20.50   10.70
   1   5   5    1.90   12.20
   1   5   5   16.20   11.60
   5  -6   5   20.80    8.40
   5  -6   5   -8.10   11.90
  -6   1   5   13.40    8.40
   1   5   5   15.70   10.30
   1   5   5    2.80    8.30
  -6   1   5    9.70    7.20
   1   5   5   19.20    9.10
  -5   9  -5  305.27   12.30
   9  -4  -5  272.97   15.00
  -5   9  -5  256.37   12.80
   9  -4  -5  270.27   17.60
  -4  -5  -5  260.87   17.40
  -5   9  -5  262.27   17.60
  -5   9  -5  286.67   21.60
  -4  -5  -5  269.47   15.80
   5  -9   5  291.07   10.80
   4   5   5  282.67   17.50
   4   5   5  289.47   18.90
   5  -9   5  276.37   12.50
  -9   4   5  307.47   15.90
  -9   4   5  256.37   12.20
   4   5   5  279.97   16.60
   4   5   5  269.67   15.20
  -9   4   5  275.57   20.50
  -9   4   5  278.57   15.40
  -4  10  -5   12.40    6.30
  -4  10  -5   39.60   10.20
  -6  -4  -5   22.30   11.80
  10  -6  -5   29.60   15.20
   4 -10   5   19.90    7.00
 -10   6   5   34.90   13.70
 -10   6   5   20.20   11.20
 -10   6   5   10.20   10.70
 -10   6   5   23.60    8.80
   6   4   5   34.00   12.20
   6   4   5   12.60   12.00
 -10   6   5   20.90   18.90
   6   4   5   24.70    8.50
   4 -10   5   20.70    9.30
   6   4   5   18.70   12.20
   6   4   5   16.30    5.50
  -6  -1  -5    1.00    9.80
  -6  -1  -5    2.20   11.20
  -1   7  -5   -5.50   10.40
   7  -6  -5    8.40   10.40
  -1   7  -5    1.30    8.40
  -1   7  -5    7.60   11.30
  -6  -1  -5   10.30   12.60
  -6  -1  -5    3.60   10.20
   7  -6  -5   -4.50   12.00
  -7   6   5    9.70    9.60
   6   1   5   14.20   11.40
  -7   6   5    9.80    8.80
  -7   6   5   -0.40   13.30
   6   1   5   -9.10    9.50
  -7   6   5   -0.70   13.60
   1  -7   5    4.50    8.00
   1  -7   5    1.40    8.20
   6   1   5   -9.50   15.50
   6   1   5    2.80    8.80
   1  -7   5    5.70   15.60
   1  -7   5    1.00   14.70
   2   4  -5   14.10   10.00
  -6   2  -5    3.90    9.50
   2   4  -5   -6.60    8.20
  -6   2  -5    7.30    9.20
   4  -6  -5    0.60   11.90
  -6   2  -5   -1.60   13.70
   2   4  -5   -1.70    7.90
  -6   2  -5    3.90    6.90
   4  -6  -5  -14.50   11.40
   2   4  -5   -4.70    9.10
  -2  -4   5   -5.70    8.80
   6  -2   5   12.80   11.30
  -4   6   5  -14.00   11.80
  -2  -4   5   -7.10    6.80
  -2  -4   5   -2.30    9.90
   6  -2   5    4.60    7.90
  -4   6   5   -9.60    7.20
  -4   6   5    9.90    6.30
  -4   6   5   -7.20   10.10
   6  -2   5   -4.90    6.90
  -4   6   5   -8.20    8.00
   6  -2   5   -4.70    5.70
  -6   5  -5   42.60    8.90
   1  -6  -5   52.89    9.30
  -6   5  -5   33.90    8.30
   1  -6  -5   34.10    9.30
   5   1  -5   40.10   11.50
   5   1  -5   32.50    5.30
   5   1  -5   41.90    9.10
  -6   5  -5   42.20   11.50
   1  -6  -5   46.80    6.40
   5   1  -5   29.70   10.60
   1  -6  -5   49.00   13.00
   5   1  -5   34.40    7.90
  -5  -1   5   49.50   10.40
   6  -5   5   41.40   11.50
   6  -5   5   41.00    7.90
  -1   6   5   26.90   11.20
  -1   6   5   36.50    9.20
  -1   6   5   44.20    8.70
   6  -5   5   43.10    8.20
  -5  -1   5   32.40    8.80
   6  -5   5   50.39    4.60
  -1   6   5   38.90    7.10
  -1   6   5   45.30   11.40
  -5  -1   5   44.90   10.90
  -5  -1   5   43.20    8.00
  -1   6   5   48.50   12.40
  -2  -6  -5  225.88   14.50
   8  -2  -5  193.98   10.60
   8  -2  -5  223.08   16.60
  -2  -6  -5  200.68   12.30
  -6   8  -5  224.18   20.20
  -6   8  -5  225.38   15.00
  -6   8  -5  226.08   10.10
  -2  -6  -5  200.98   15.90
   8  -2  -5  210.28   11.30
   6  -8   5  217.78    9.50
   6  -8   5  228.28   14.20
   6  -8   5  213.88   10.30
  -8   2   5  201.98   17.80
   2   6   5  242.88   17.10
  -8   2   5  201.78   14.60
  -8   2   5  221.48   11.60
   2   6   5  205.78   15.80
  11  -5  -5   38.20   14.00
  11  -5  -5   50.89    7.40
  -6  11  -5   43.10   10.10
  -6  11  -5   44.90    6.40
  -6  11  -5   64.99   10.50
  -5  -6  -5   75.09   15.70
   5   6   5   49.30    7.40
   5   6   5   68.09    9.50
 -11   5   5   63.29   10.10
 -11   5   5   39.50    9.70
   5   6   5   28.10   16.10
 -11   5   5   57.19   14.50
 -11   5   5   56.09   13.60
   5   6   5   44.20   12.10
   6 -11   5   42.30    7.70
  12  -7  -5    2.90   18.20
  -5  12  -5   23.30    7.90
  -7  -5  -5   12.80   14.70
  -7  -5  -5   26.90   14.60
  12  -7  -5   19.70    6.80
  -5  12  -5   41.10   11.30
 -12   7   5   38.00   14.70
   7   5   5   29.20   10.20
 -12   7   5   28.30   12.80
 -12   7   5   17.50   16.30
   5 -12   5   15.60    9.80
   7   5   5   21.50   14.20
   5 -12   5    8.10    7.70
 -12   7   5   25.00    8.40
 -12   7   5   23.10    8.20
  -2   9  -5   -0.50   12.30
   9  -7  -5    2.00   12.90
  -7  -2  -5   12.10   12.10
  -7  -2  -5    2.70   14.40
   9  -7  -5  -16.90   14.10
  -7  -2  -5   -9.70   10.80
  -2   9  -5    4.10   14.50
   7   2   5    4.20   10.80
  -9   7   5    1.30    9.80
   2  -9   5    2.10    6.00
   7   2   5  -12.40   12.00
  -9   7   5   -9.40   11.10
   2  -9   5  -18.70   15.00
  -9   7   5  -11.60   14.80
  -9   7   5   13.70   16.40
   7   2   5   -5.60    7.70
   7   2   5    2.30   11.00
   2  -9   5   -7.00   10.30
   6  -7  -5   43.60   14.80
  -7   1  -5   45.10   10.60
  -7   1  -5   46.10   12.70
   1   6  -5   29.90   10.80
   6  -7  -5   66.19   12.00
  -7   1  -5   64.79   12.50
   1   6  -5   54.69   11.60
   7  -1   5   37.40   12.10
  -6   7   5   51.69   11.90
  -1  -6   5   44.00   10.50
   7  -1   5   56.09    8.90
  -6   7   5   48.20    8.80
  -6   7   5   43.40    9.50
   7  -1   5   61.59   10.10
  -1  -6   5   53.39   12.70
  -6   7   5   56.29    9.10
  -6   7   5   24.80   14.50
  -6   7   5   36.90   11.50
  -7   4  -5   27.20   12.30
  -7   4  -5   23.80    6.70
   4   3  -5   25.00    7.90
   4   3  -5   25.60    9.20
   4   3  -5   11.80   12.80
  -7   4  -5   39.90   10.40
   3  -7  -5   16.60   13.80
   4   3  -5   19.60   13.90
   3  -7  -5   17.80    9.10
   4   3  -5   24.50    9.40
  -7   4  -5   29.90    8.20
  -4  -3   5   34.30    7.60
  -4  -3   5   39.80   12.70
  -4  -3   5   23.90   10.00
  -3   7   5   35.10    6.40
   7  -4   5   30.90    6.90
  -3   7   5   32.90    8.40
  -3   7   5   17.60   11.50
   7  -4   5    8.10   11.90
  -3   7   5   22.30    8.80
   7  -4   5   36.10    5.60
  -3   7   5   22.90   12.20
  -4  -3   5   22.20   11.80
  -3   7   5   25.70   13.50
   7  -4   5   26.50    9.30
   0  -7  -5  -16.20   12.00
  -7   7  -5   -7.20   13.60
   7   0  -5   16.60    9.40
  -7   7  -5   -5.70    9.30
  -7   7  -5   11.00    8.50
   7   0  -5   -2.30    6.40
   7   0  -5    1.90    7.30
   0  -7  -5   14.40    7.60
   0  -7  -5   -7.40   13.10
  -7   0   5  -13.30   12.10
   0   7   5  -13.00   16.50
   0   7   5    1.90   10.30
   7  -7   5   12.60    8.60
   7  -7   5    1.20    8.80
   0   7   5    1.10    9.70
   0   7   5   -1.20    8.30
  -7   0   5   17.70   12.90
   7  -7   5   -4.50    3.70
  10  -3  -5   21.10   10.80
  -7  10  -5   18.80   15.10
  -7  10  -5   21.30    7.90
  10  -3  -5   35.00    6.40
  -3  -7  -5   32.10   15.10
  -7  10  -5   29.30    6.60
  -3  -7  -5   37.30   17.10
 -10   3   5   18.10    7.80
   3   7   5   17.50   16.30
   7 -10   5   28.60    7.10
   7 -10   5   16.70    5.30
 -10   3   5    8.50   10.00
   3   7   5   19.60   10.60
   7 -10   5   18.60    8.10
   3   7   5   29.10    6.70
  -7  13  -5   -2.70    7.60
  -6  -7  -5  -12.60    8.00
  13  -6  -5    1.90    5.20
  -6  -7  -5   -7.40   18.80
  -7  13  -5   10.50   11.00
   6   7   5    4.00    6.50
   7 -13   5    3.20    9.30
   7 -13   5   -5.90    7.00
 -13   6   5    4.00   11.70
   6   7   5    5.10   10.00
   6   7   5  -14.10    7.90
 -13   6   5  -14.70   15.40
   6   7   5    1.20    6.50
 -13   6   5   11.80    8.10
  -6  14  -5    3.10    8.40
  -8  -6  -5   12.30   10.10
  -6  14  -5   15.70   14.10
  14  -8  -5    0.50    6.20
  -8  -6  -5   18.10   17.00
   8   6   5    0.00    6.70
   8   6   5   32.30   16.00
 -14   8   5    2.80    8.80
   6 -14   5    3.50    9.00
   8   6   5   -3.20   13.00
 -14   8   5   17.40   24.80
   8   6   5   11.70    6.70
 -14   8   5    4.10   15.00
   8   6   5   16.90    8.70
  -8  -3  -5   -7.60   12.90
  -3  11  -5    1.90   11.80
  11  -8  -5    0.80    7.10
  -3  11  -5   14.60    7.70
  -3  11  -5    4.90    7.10
  11  -8  -5   -0.80   17.00
  -8  -3  -5   -7.90   12.20
   8   3   5   -4.50   10.80
   8   3   5    5.60    6.80
   3 -11   5   -2.00    9.10
   8   3   5    0.10   13.20
 -11   8   5   16.90   10.30
   8   3   5    3.70    5.50
 -11   8   5    4.50   14.20
 -11   8   5   13.80   10.10
 -11   8   5   -4.10    6.30
   3 -11   5   -5.40    5.20
   0   8  -5   -2.00   12.40
  -8   0  -5   -1.10   14.20
  -8   0  -5   -6.50   13.10
   8  -8  -5  -10.00   11.60
  -8   0  -5    5.50   13.70
  -8   0  -5   -2.50   11.10
   0   8  -5    3.70   10.90
   8  -8  -5   -1.60   15.40
   0   8  -5   -2.50   12.40
   0  -8   5   -1.90   16.00
   8   0   5   -4.70    8.40
  -8   8   5    3.60   16.10
   8   0   5   -1.30   11.40
   0  -8   5    4.30    8.80
  -8   8   5  -14.30   10.30
   8   0   5   -4.30   10.60
  -8   8   5    9.10   12.30
   8   0   5   -4.70    9.30
  -8   3  -5    8.00   11.30
   3   5  -5    4.50   10.00
   3   5  -5   -6.90   10.00
  -8   3  -5   18.90   15.00
   3   5  -5   17.10   15.30
   5  -8  -5    0.40   15.70
   3   5  -5   20.50   10.50
   5  -8  -5    3.60   13.60
  -8   3  -5    5.50    8.10
  -5   8   5   12.60    8.00
  -5   8   5    7.70   11.30
   8  -3   5    5.50   12.20
  -5   8   5    1.20    6.60
  -3  -5   5   -4.10    6.40
  -3  -5   5   15.10   11.90
  -3  -5   5    6.80   14.70
  -5   8   5    3.30    8.80
   8  -3   5    1.30    6.50
   8  -3   5    5.60    8.70
   6   2  -5  104.79    9.60
  -8   6  -5  122.99   10.90
   2  -8  -5  115.89   17.60
   6   2  -5  141.79   11.30
   6   2  -5  136.89   11.70
  -8   6  -5  129.29   15.70
   6   2  -5  110.09   13.70
   2  -8  -5  122.09    7.70
   2  -8  -5  135.39   13.30
   8  -6   5  118.19   10.10
  -2   8   5  130.19   15.00
   8  -6   5  112.69    6.30
  -2   8   5  129.99   11.00
  -6  -2   5  131.99   15.00
  -2   8   5  124.99    9.10
  -6  -2   5  125.19   10.40
   8  -6   5  108.49    9.60
  -2   8   5   94.79   13.60
  -6  -2   5  108.99   12.40
  -8   9  -5   89.99   13.00
  -1  -8  -5   74.79   14.90
  -1  -8  -5   44.80   10.10
   9  -1  -5   39.50   13.40
  -1  -8  -5   71.39   20.50
  -8   9  -5   76.39    9.60
   9  -1  -5   65.39   12.60
   9  -1  -5   70.69    8.60
   1   8   5   81.89   14.60
   8  -9   5   68.99    9.30
   1   8   5   59.09   11.10
   8  -9   5   64.19   12.70
  -9   1   5   56.69   10.60
  -8  12  -5    8.70    7.10
  -4  -8  -5   12.70   20.20
  -4  -8  -5   19.60   19.10
  12  -4  -5   17.20    6.30
  -8  12  -5    3.00   10.00
   4   8   5    6.20    6.60
 -12   4   5   16.70    8.50
   8 -12   5    3.40    5.30
 -12   4   5    2.10    7.60
   4   8   5   14.80   13.40
 -12   4   5    0.30   11.40
   4   8   5   -4.40    8.20
   8 -12   5    8.80    7.30
   8 -12   5   12.40    9.60
  -8  15  -5  188.88   11.90
  -8  15  -5  157.88   14.90
  -7  -8  -5  135.79   25.20
  15  -7  -5  191.98   11.40
  -8  15  -5  164.98   13.80
 -15   7   5  187.48   20.20
 -15   7   5  168.08   14.00
 -15   7   5  149.88   16.00
   8 -15   5  162.78   12.10
   7   8   5  195.88   11.60
   7   8   5  178.08   10.50
   7   8   5  173.48   14.40
   8 -15   5  181.18   12.90
  16  -9  -5    9.50    7.40
  -9  -7  -5    7.70    9.80
  -7  16  -5   13.80    9.60
  -9  -7  -5  -13.80   24.00
  -7  16  -5   11.50   16.90
 -16   9   5    4.90   17.20
   9   7   5   11.20    8.10
   9   7   5    9.90   11.30
   9   7   5   16.60    7.50
   7 -16   5   25.30   10.30
 -16   9   5   -1.50   11.80
  -4  13  -5  118.59   10.20
  -9  -4  -5  115.99   15.60
  -4  13  -5  107.29   16.10
  -9  -4  -5  133.79   11.10
  -4  13  -5  104.59   11.60
 -13   9   5  109.69   12.90
 -13   9   5  107.59   11.60
   9   4   5  151.48   25.80
   4 -13   5  118.99    8.60
 -13   9   5   79.39   18.50
   9   4   5   99.59    8.90
 -13   9   5   96.39   10.60
 -13   9   5  118.99   12.60
   4 -13   5  133.19   13.40
   9   4   5  122.29    9.60
  -1  10  -5   21.00   13.00
  -9  -1  -5   19.40   11.30
  10  -9  -5   -1.90   15.90
  -9  -1  -5   32.00   12.50
  10  -9  -5   19.30    4.90
  -1  10  -5   11.70    6.70
  -1  10  -5    8.40    6.40
  -9  -1  -5    8.30   17.80
   9   1   5   13.90    6.50
 -10   9   5    7.80   10.90
   9   1   5   17.90    9.40
   1 -10   5    1.10    9.10
 -10   9   5    6.30   13.10
   1 -10   5   18.40    9.60
   9   1   5   17.60   10.40
 -10   9   5   -0.90   20.70
 -10   9   5   22.70   13.80
   9   1   5   20.60   12.80
   1 -10   5    5.40   10.40
  -9   2  -5  306.47   16.50
  -9   2  -5  306.97   19.30
   2   7  -5  313.57   18.70
   2   7  -5  301.27   18.90
   9  -2   5  317.87   15.50
  -7   9   5  297.27   18.00
  -7   9   5  310.67   15.50
   9  -2   5  296.67   13.60
  -2  -7   5  296.67   18.60
  -7   9   5  311.67   13.80
   9  -2   5  274.97   15.10
  -7   9   5  320.57   15.20
  -2  -7   5  306.17   12.60
   4  -9  -5   26.60    7.60
   5   4  -5   -8.00   14.90
   5   4  -5   -0.70   11.10
   5   4  -5   27.30   11.10
   4  -9  -5   -6.40   17.30
  -9   5  -5   14.30   14.80
   4  -9  -5    9.30   14.90
   4  -9  -5   18.40   11.20
  -4   9   5   12.40    6.90
  -5  -4   5   15.10   14.50
   9  -5   5   13.90    6.10
  -4   9   5   39.90   15.70
  -4   9   5   12.90   12.70
  -5  -4   5   10.40    7.90
  -4   9   5   15.20    9.70
  -4   9   5   30.30    8.30
  -5  -4   5   11.70   13.40
   9  -5   5   12.70    8.40
   9  -5   5   15.70    6.50
   9  -5   5    8.40   10.80
   1  -9  -5   52.29   15.80
   1  -9  -5   30.40   18.50
  -9   8  -5   74.79   12.00
   8   1  -5   68.59   10.60
   8   1  -5   54.59   13.80
  -9   8  -5   47.90   11.40
   1  -9  -5   58.89    8.00
   8   1  -5   57.79   11.20
  -9   8  -5   56.09   17.50
  -1   9   5   43.80   10.60
  -1   9   5   77.79   13.50
  -8  -1   5   47.00   11.60
   9  -8   5   70.39   10.90
   9  -8   5   58.89   10.30
   9  -8   5   70.19   10.20
  -1   9   5   70.39    9.60
  -8  -1   5   45.00    6.00
  -9  11  -5   30.50   10.50
  -2  -9  -5   26.30   16.70
  11  -2  -5   31.30    8.00
  11  -2  -5   30.60    8.40
  -9  11  -5   39.80    8.30
  -9  11  -5   21.70   15.80
 -11   2   5   29.60   10.00
   2   9   5   28.80    7.50
   9 -11   5   24.30   10.20
   9 -11   5   38.10   10.40
   2   9   5   23.30   10.90
 -11   2   5   50.29    9.80
  14  -5  -5   37.80    7.60
  -9  14  -5   70.99   10.00
  -9  14  -5   47.10   11.50
  -5  -9  -5   53.59   12.60
  -5  -9  -5   46.00   11.90
   5   9   5   57.39    8.20
   5   9   5   52.09    6.50
   9 -14   5   38.30    6.80
 -14   5   5   61.09   11.10
 -14   5   5   52.29   10.90
   5   9   5   63.49    8.50
 -14   5   5   32.10   13.30
  -9  17  -5   -8.70   14.80
  -9  17  -5   15.20   10.40
  -8  -9  -5   -0.80   14.40
  -9  17  -5   10.80   10.60
   8   9   5    3.30    8.40
 -17   8   5    4.20   16.00
   8   9   5    3.80   16.20
   9 -17   5    6.70   13.00
   8   9   5   -6.30    8.20
   8   9   5   20.10    9.50
 -17   8   5  -12.10   10.90
  -8  18  -5   13.10    9.70
  -8  18  -5   15.00    9.90
  18 -10  -5    1.50    8.40
 -10  -8  -5   -8.70   26.20
  -8  18  -5   -7.90    9.00
 -18  10   5   15.50   22.00
  10   8   5   -9.00    7.80
  10   8   5    3.20    8.20
  10   8   5   11.10   10.80
   8 -18   5   17.60   10.80
 -18  10   5    4.20   10.80
  -5  15  -5   42.00   10.20
  -5  15  -5   37.70   10.10
 -10  -5  -5   40.90    9.20
  -5  15  -5   54.79    9.30
 -10  -5  -5   28.70   16.40
   5 -15   5   69.79    8.10
  10   5   5   62.39    9.50
 -15  10   5   33.00   16.20
 -15  10   5   69.09   22.40
  10   5   5   61.89    8.10
  10   5   5   69.69    7.50
 -15  10   5   69.49   11.40
  10   5   5   78.69   10.70
  12 -10  -5   75.59    9.50
  -2  12  -5   84.29    8.70
  -2  12  -5   86.19   10.00
  -2  12  -5  102.39    9.00
 -10  -2  -5   85.39   10.20
 -10  -2  -5  100.79   13.40
   2 -12   5   89.39    8.50
  10   2   5   78.39    9.40
  10   2   5  100.79    8.70
 -12  10   5   91.69   11.50
 -12  10   5   86.99   12.30
 -12  10   5   97.59   13.10
   2 -12   5   90.49   11.10
  10   2   5  107.19    8.00
 -12  10   5  107.39   19.50
   2 -12   5   96.99    8.20
   9 -10  -5   13.50   13.70
   1   9  -5   -8.20    4.60
 -10   1  -5  -11.00   11.20
   1   9  -5  -13.80   13.10
   9 -10  -5   -4.60    8.00
 -10   1  -5    2.40    6.00
 -10   1  -5   12.20   15.60
   1   9  -5   -1.40    7.50
  -9  10   5   10.40    9.80
  -1  -9   5    8.40    7.60
  10  -1   5    4.70   11.10
  10  -1   5  -10.00    4.60
  10  -1   5   -7.30    6.40
  -9  10   5   12.00   15.30
  -9  10   5   17.20   12.10
  -1  -9   5   -2.50    5.80
  -1  -9   5   -2.20    8.10
  -9  10   5   -9.40   12.70
  10  -1   5   -5.10   10.80
 -10   4  -5  213.78   17.50
   4   6  -5  210.48   17.20
   6 -10  -5  205.08   16.70
   4   6  -5  213.38    9.30
 -10   4  -5  190.68   13.30
   4   6  -5  205.08   16.80
  -6  10   5  196.18   12.20
  10  -4   5  225.68   14.00
  10  -4   5  198.28    9.90
  -6  10   5  194.78   10.50
  -4  -6   5  199.08   10.40
  -6  10   5  218.78   17.70
  -6  10   5  174.48   13.50
  -6  10   5  190.58   22.60
  10  -4   5  204.78    9.00
  -6  10   5  188.68   20.40
  -4  -6   5  207.98   11.00
   7   3  -5   42.40   14.90
   7   3  -5   66.49   12.20
 -10   7  -5   49.00   15.70
   7   3  -5   64.29    6.10
   3 -10  -5   64.09    6.80
   7   3  -5   49.99   10.90
 -10   7  -5   66.69    9.90
  -3  10   5   52.19   13.30
  10  -7   5   78.99   12.10
  -7  -3   5   50.99    7.90
  10  -7   5   64.29    9.20
  -7  -3   5   61.39   16.30
  -3  10   5   62.79    8.50
  -3  10   5   70.09    8.50
  -3  10   5   59.59    6.20
 -10  10  -5  111.89   12.30
   0 -10  -5  109.59   22.00
  10   0  -5  110.89    8.40
 -10  10  -5  126.59   14.50
  10   0  -5  110.79    9.00
 -10  10  -5  102.09   12.20
  10   0  -5  125.09   11.40
   0 -10  -5  110.59   10.10
   0 -10  -5  105.29   12.80
  10 -10   5  126.39   13.90
 -10   0   5  112.49   13.40
   0  10   5  112.59    9.10
   0  10   5  127.79   27.10
   0  10   5  121.59   12.00
   0  10   5  103.29    8.30
  10 -10   5  108.19    6.20
 -10  13  -5   78.59   10.50
 -10  13  -5   47.10    8.80
  13  -3  -5   61.59    9.00
 -10  13  -5   36.90   10.50
  -3 -10  -5   35.60   12.10
  13  -3  -5   56.19    7.80
  10 -13   5   63.89    5.20
   3  10   5   55.29   13.60
 -13   3   5   52.39    9.00
   3  10   5   61.39    8.20
 -13   3   5   46.20    9.20
   3  10   5   67.09    8.30
   3  10   5   53.99    7.90
  -6 -10  -5   11.30   13.90
 -10  16  -5   -9.00   10.30
  -6 -10  -5  -11.80   10.10
 -10  16  -5    0.30    8.90
   6  10   5   12.00   11.70
 -16   6   5   -0.60   12.80
   6  10   5    8.80    8.70
  10 -16   5   -4.10    5.20
  19  -9  -5   13.30   10.00
 -10  19  -5   -3.20   17.30
 -10  19  -5    6.70   11.00
 -10  19  -5   -6.20   11.00
  -9 -10  -5    5.20   11.60
 -19   9   5   30.60   20.80
 -19   9   5   -0.80   12.30
   9  10   5   22.20    8.40
   9  10   5   24.90   20.80
  10 -19   5   38.60   15.40
   9  10   5  -14.50   11.40
  20 -11  -5   -0.50    9.50
  -9  20  -5    6.40   10.70
 -11  -9  -5    1.80   13.90
  -9  20  -5  -26.60   12.40
  11   9   5   12.10    7.70
  11   9   5  -17.10   11.20
 -20  11   5  -13.20   13.60
  11   9   5  -15.50   13.60
  -6  17  -5   39.50    9.90
  -6  17  -5   28.10   10.00
 -11  -6  -5   35.30    8.60
  -6  17  -5   31.30    9.60
 -11  -6  -5   12.80   19.10
  17 -11  -5   25.20    9.30
 -17  11   5   13.90   24.40
  11   6   5   36.10    8.30
  11   6   5   29.50   10.60
  11   6   5   42.00    9.60
  -3  14  -5    1.90    8.60
 -11  -3  -5    5.10   14.00
  -3  14  -5  -10.40    7.80
  14 -11  -5  -11.90    7.20
  -3  14  -5   14.30    8.60
  11   3   5    6.70    6.50
  11   3   5    0.20    6.30
   3 -14   5   -6.20    6.40
   3 -14   5   10.10    5.60
  11   3   5   24.20   18.30
  11   3   5   -1.80    7.10
 -14  11   5    5.80   11.00
 -14  11   5   43.00   23.10
 -14  11   5   16.70   10.00
 -14  11   5    2.70   12.10
   0  11  -5    2.60    7.20
 -11   0  -5   14.70    8.70
   0  11  -5   -3.00    6.30
  11 -11  -5  -16.20   10.20
  11 -11  -5   16.40    8.00
 -11   0  -5  -13.20   11.90
   0  11  -5   -5.20    7.70
 -11  11   5    5.10   12.70
   0 -11   5    1.10    8.80
 -11  11   5    0.90   12.20
  11   0   5    7.90   13.20
 -11  11   5   17.60   13.10
  11   0   5   12.10    5.70
  11   0   5   -1.40    5.50
   0 -11   5    7.00   10.20
 -11  11   5    7.00   10.70
  11   0   5   12.00    6.50
 -11  11   5    5.50   16.60
   0 -11   5   -4.60    5.20
   8 -11  -5   53.59   15.00
   3   8  -5   75.69    8.70
   3   8  -5   78.09    9.20
 -11   3  -5   69.99   10.00
 -11   3  -5   65.29   13.70
 -11   3  -5   95.69   18.60
   3   8  -5   55.69   16.20
  11  -3   5   82.19    8.20
  11  -3   5   75.09    7.50
  -8  11   5   93.79   16.10
  11  -3   5   70.89   11.20
  11  -3   5   80.99    7.90
  -3  -8   5   80.09    9.50
  -3  -8   5   87.89    7.90
  -8  11   5   80.29   11.20
   6   5  -5   40.90   13.40
   6   5  -5   38.10    6.70
   5 -11  -5   20.90   16.30
 -11   6  -5   38.10   11.80
   6   5  -5   27.00   16.80
   6   5  -5   52.69   13.50
 -11   6  -5   44.80    8.30
 -11   6  -5   38.20   16.80
   6   5  -5   11.70   14.50
  11  -6   5   27.70    7.40
  -6  -5   5   38.70    9.30
  -5  11   5   54.99    8.00
  -5  11   5   34.00   13.00
  11  -6   5   40.20   11.80
  11  -6   5   41.30    7.50
  11  -6   5   40.10    5.50
  -5  11   5    9.60   24.30
  -5  11   5   48.10    8.40
  -5  11   5   32.50    7.00
  -6  -5   5   39.10    9.10
 -11   9  -5   53.69   11.20
   2 -11  -5   41.40   19.80
   2 -11  -5   54.79    7.50
   9   2  -5   64.79   12.40
 -11   9  -5   53.79   11.70
   9   2  -5   46.20    7.70
   9   2  -5   64.99   19.90
  -2  11   5   60.59    7.70
  -2  11   5   63.19    9.80
  11  -9   5   66.39    6.50
  -2  11   5   54.69    8.50
  -9  -2   5   48.00   15.40
  -2  11   5   47.30    7.90
  -9  -2   5   45.50    7.80
  11  -9   5   44.30   10.20
  11  -9   5   72.99   13.80
  -1 -11  -5   -0.60   19.90
  12  -1  -5   20.70    8.10
 -11  12  -5  -11.60   17.30
  -1 -11  -5    5.10    9.90
 -11  12  -5    7.70   11.80
  12  -1  -5   11.00    9.60
 -11  12  -5    7.40   10.80
  12  -1  -5   10.10    6.80
   1  11   5    5.20   12.00
 -12   1   5    9.80   11.90
  11 -12   5   31.90   12.30
   1  11   5    7.10    6.40
  11 -12   5    5.40    6.10
   1  11   5   -0.90    6.70
 -11  15  -5   23.30    9.40
  -4 -11  -5    8.20   11.10
  -4 -11  -5   16.80   13.10
  15  -4  -5   14.60    7.40
 -11  15  -5   19.10   11.20
 -15   4   5   18.00    9.80
   4  11   5   10.70    7.70
   4  11   5   24.10    9.50
   4  11   5   28.50    9.50
   4  11   5   34.20    8.40
 -11  18  -5   -1.30   11.10
  -7 -11  -5   -0.70   11.90
  -7 -11  -5  -20.60   15.30
  18  -7  -5    0.60    8.20
   7  11   5    0.70    9.50
  11 -18   5   15.50    8.50
 -18   7   5   22.20   10.80
   7  11   5   -6.20   16.00
 -18   7   5  -30.70   15.50
   7  11   5    1.90    9.50
 -11  21  -5   24.80   15.10
  21 -10  -5   11.70   10.80
 -11  21  -5   15.50   13.80
 -10 -11  -5   -3.00   13.40
  10  11   5   14.40   10.10
 -21  10   5  -17.80   18.40
  -7  19  -5   35.60   12.60
  -7  19  -5   23.00   10.30
  19 -12  -5    5.80    9.90
  -7  19  -5    6.70   10.50
 -19  12   5   33.30   13.00
  12   7   5   13.30    8.90
  12   7   5   21.50   10.40
 -19  12   5   34.30   14.00
  -4  16  -5   -9.50    7.90
  16 -12  -5   -1.30    8.50
 -12  -4  -5   17.00   16.30
  -4  16  -5   -3.00    8.20
  12   4   5    0.90    7.10
 -16  12   5  -11.10   10.60
  12   4   5    1.20    8.80
 -16  12   5    3.30   11.30
 -16  12   5   -1.20   14.00
  12   4   5    5.80   10.70
  12   4   5  -10.90    7.50
 -12  -1  -5   17.50   11.50
  -1  13  -5  -15.30    7.40
  -1  13  -5  -15.80    7.50
 -12  -1  -5  -10.70    7.70
  -1  13  -5    1.30    8.60
 -12  -1  -5    5.50   12.00
  13 -12  -5   -5.20    7.60
  13 -12  -5   -2.00    8.90
 -13  12   5    3.80   11.50
  12   1   5   -1.90    6.90
 -13  12   5   12.00   11.00
 -13  12   5  -20.90   10.10
  12   1   5   -3.30    6.10
 -13  12   5  -22.60   12.40
   1 -13   5   -5.50   12.00
  12   1   5  -11.20    6.90
 -13  12   5    2.30   13.30
  12   1   5   30.80   15.80
   1 -13   5   18.30   11.80
   1 -13   5   -5.70    8.10
 -12   2  -5   11.20   12.30
   2  10  -5   26.60    9.50
   2  10  -5   21.10    6.80
 -12   2  -5    4.40    6.50
   2  10  -5   11.10    6.20
  10 -12  -5    7.70    6.60
 -10  12   5   24.40   15.90
  12  -2   5   12.50   12.20
 -10  12   5   19.30   11.40
  -2 -10   5   17.50    6.00
  12  -2   5   14.70    5.90
 -10  12   5   22.40    8.10
  12  -2   5   25.40   13.50
  -2 -10   5   28.60    8.50
 -10  12   5   25.70   11.90
  12  -2   5   14.40    8.60
   5   7  -5    6.00   14.40
   5   7  -5   -1.90    5.40
 -12   5  -5   -4.60    8.10
   5   7  -5   14.20   19.80
 -12   5  -5    4.50   11.30
   5   7  -5   -7.50   18.70
   7 -12  -5   20.50    9.00
   7 -12  -5   31.80   17.80
  -5  -7   5    9.10    6.90
  -7  12   5    5.70    7.20
  12  -5   5   10.00    5.90
  -7  12   5   -4.10   10.40
  -5  -7   5   23.40    7.40
  -7  12   5   17.70   11.30
  12  -5   5    6.50    5.10
  -7  12   5   10.20    9.30
  12  -5   5   -1.00    9.30
   4 -12  -5   11.20    9.90
   8   4  -5    7.20   18.40
   8   4  -5    6.20    8.90
 -12   8  -5   10.40    9.80
   8   4  -5    2.90   12.40
   4 -12  -5   10.70    7.00
   8   4  -5   -2.30   10.10
 -12   8  -5    1.50    9.80
   8   4  -5  -17.40   13.60
  12  -8   5   10.80    8.60
  12  -8   5   13.20    5.10
  -8  -4   5    3.50    6.80
  -4  12   5   12.70    8.30
  -4  12   5   18.40    6.80
  -4  12   5   16.00    7.40
  12  -8   5   10.30   22.80
   1 -12  -5    2.90    8.90
 -12  11  -5    8.60   13.50
  11   1  -5   28.80    7.60
   1 -12  -5    8.40   20.90
  11   1  -5   15.00    6.30
   1 -12  -5   14.60    8.90
 -12  11  -5    5.00    9.50
  11   1  -5   13.90    8.10
  11   1  -5   23.50   11.90
  -1  12   5    9.60   10.40
  12 -11   5   22.20    6.30
  12 -11   5   25.80   14.70
  -1  12   5   29.30    6.40
 -11  -1   5    3.90    7.10
  -1  12   5   20.10    7.30
 -11  -1   5   11.40   15.60
 -12  14  -5   20.00   10.10
  14  -2  -5   27.70    7.70
  -2 -12  -5    8.40   11.80
 -12  14  -5    7.10    9.60
 -12  14  -5   15.70   11.30
  -2 -12  -5   12.30   10.50
 -14   2   5    2.20    9.20
 -14   2   5   16.30   12.30
   2  12   5   23.10   12.80
   2  12   5   12.80    7.40
  12 -14   5    5.40    6.30
 -12  17  -5   -2.90   10.50
  17  -5  -5   -0.80    7.50
  -5 -12  -5    4.80   11.20
  -5 -12  -5    0.10   15.20
   5  12   5    6.60    8.70
 -17   5   5   -3.50    9.70
  12 -17   5    3.80    7.50
   5  12   5   19.40    9.70
   5  12   5    3.10   12.30
   5  12   5    1.60    9.60
 -12  20  -5    5.90   12.40
  20  -8  -5   13.60   10.10
 -12  20  -5   -1.30   13.00
  -8 -12  -5  -15.50   12.70
  12 -20   5    6.80    8.60
   8  12   5   -9.40   11.40
   8  12   5    0.30    9.80
 -13  -8  -5    1.70   15.00
  -8  21  -5   23.10   10.80
  -8  21  -5   22.30   12.80
  21 -13  -5    4.60   11.40
 -21  13   5   20.70   28.70
  13   8   5   -8.70    9.40
  13   8   5    1.20   12.30
  -5  18  -5   -5.90   10.70
 -13  -5  -5    5.30    8.70
  -5  18  -5    3.70   10.40
  -5  18  -5   20.20    9.50
 -18  13   5    8.70   21.20
 -18  13   5   13.60   12.60
  13   5   5   16.20    7.90
  13   5   5   -7.70    9.90
 -18  13   5    7.10   16.60
 -13  -2  -5    7.40    7.90
  15 -13  -5   12.70    8.60
  -2  15  -5   32.30    8.60
  -2  15  -5   -1.30    7.50
  -2  15  -5    2.40    9.00
  13   2   5   22.20   20.70
 -15  13   5    8.20   12.60
   2 -15   5   15.20    7.20
 -15  13   5   -3.50   13.40
  13   2   5   14.00    6.80
 -15  13   5   21.30   13.10
  13   2   5   15.60    7.00
  13   2   5   23.10    7.70
 -15  13   5   22.90   14.20
  12 -13  -5   27.70    8.60
 -13   1  -5   33.00   11.30
  12 -13  -5   21.30   10.10
   1  12  -5   31.00    7.40
   1  12  -5   22.00    8.30
 -13   1  -5   26.70    8.90
 -13   1  -5   30.80   13.20
 -12  13   5   28.60   15.20
 -12  13   5   42.10   10.30
 -12  13   5   32.40   15.80
  -1 -12   5   38.70   11.30
  13  -1   5   22.20    6.40
  13  -1   5   14.00    6.80
 -12  13   5   32.80   11.70
  -1 -12   5   40.80   15.20
  13  -1   5   38.90   14.20
 -12  13   5   28.90   16.80
 -13   4  -5   21.20   10.50
   9 -13  -5   33.40    9.10
   9 -13  -5    8.60   19.20
 -13   4  -5   20.00    9.20
   4   9  -5    6.90    6.80
   4   9  -5   25.30    6.20
  13  -4   5   16.40   10.10
  13  -4   5   16.30    6.50
  -9  13   5   33.50   12.40
  -4  -9   5   34.20    6.90
  -4  -9   5   15.60    8.10
  -9  13   5   34.70    9.40
  13  -4   5   20.30   11.60
  13  -4   5   21.10    6.30
 -13   7  -5  108.19   11.10
 -13   7  -5  119.19   13.00
   7   6  -5  135.59   17.50
   6 -13  -5  111.79   10.40
   7   6  -5  129.49   10.50
   7   6  -5  129.19    9.10
  -6  13   5  140.09   12.00
  13  -7   5  113.19   10.00
  13  -7   5  124.29    9.30
  -6  13   5  129.89   10.40
  13  -7   5  114.99    7.50
  -7  -6   5  101.99   10.60
  -6  13   5  148.69   14.90
  -6  13   5  121.69    9.00
  -6  13   5  123.99    9.70
  10   3  -5   69.59    8.20
   3 -13  -5   68.09    7.70
 -13  10  -5   73.19   12.70
  10   3  -5   81.89   15.40
  10   3  -5   68.79    9.90
 -13  10  -5   62.19    9.10
  13 -10   5   82.49   10.70
  13 -10   5   83.19    7.10
  -3  13   5   50.09    8.40
  13 -10   5   38.20   17.80
  -3  13   5   66.09    9.90
  13   0  -5   -6.50    8.30
 -13  13  -5   -2.10   10.40
  13   0  -5   -8.10    8.80
   0 -13  -5   -9.90    8.50
 -13  13  -5   13.00   17.00
  13   0  -5    4.00   11.90
   0 -13  -5  -19.00   13.50
  13   0  -5    5.80    6.90
 -13   0   5   -9.90   15.10
   0  13   5   14.30   12.00
   0  13   5   -3.70    7.60
  16  -3  -5   27.20    7.80
  -3 -13  -5    2.20   13.00
 -13  16  -5   13.10   11.50
  16  -3  -5   17.00    7.00
 -13  16  -5   39.30   10.00
  13 -16   5   34.20    7.00
   3  13   5   20.40   11.10
 -16   3   5   19.60   10.00
   3  13   5   29.80    8.60
 -13  19  -5   -3.50   11.10
 -13  19  -5    2.20   13.70
  -6 -13  -5    2.10   12.40
 -19   6   5   21.20   12.10
   6  13   5   -6.00    9.40
  13 -19   5   13.00    8.70
   6  13   5  -19.50   10.10
  -6  20  -5   24.20   12.10
 -14  -6  -5    7.80   14.70
  20 -14  -5    0.50    9.50
  14   6   5   -2.20   12.70
  14   6   5  -21.40   11.60
 -20  14   5    2.30   14.60
  14   6   5    0.90    9.20
 -20  14   5    9.10   15.10
  -3  17  -5    8.30   10.30
  -3  17  -5  -12.00    9.30
  17 -14  -5   18.40    9.10
 -14  -3  -5   14.00    9.40
  14   3   5    2.40    7.50
 -17  14   5  -21.40   14.90
  14   3   5   -0.30    9.10
  14   3   5    5.30    7.70
 -17  14   5   21.80   12.10
 -17  14   5    2.40   14.10
 -17  14   5    3.30   14.70
   0  14  -5    9.00    9.30
 -14   0  -5    0.60    9.10
 -14   0  -5    3.60   11.90
   0  14  -5   -0.50    7.60
  14   0   5   12.60   16.60
 -14  14   5   13.00   18.30
   0 -14   5    5.60   11.60
 -14  14   5   25.80   11.50
 -14  14   5    7.50   15.10
 -14  14   5   20.40   12.40
  14   0   5    2.70    6.40
  14   0   5   11.60    6.10
 -14   3  -5   10.30    8.80
 -14   3  -5    8.90   13.60
   3  11  -5   29.50    7.80
   3  11  -5   22.80    8.90
  11 -14  -5   22.90    9.70
 -14   3  -5   12.40   10.30
   3  11  -5   28.20    7.10
  14  -3   5   26.70    6.00
  14  -3   5   12.60    5.20
  14  -3   5   25.70    7.30
 -11  14   5   39.60   11.30
  14  -3   5   11.80   10.90
 -11  14   5    4.50    9.50
 -11  14   5   15.20   12.70
  14  -3   5    9.40    6.80
  -3 -11   5   21.10   10.10
 -11  14   5   28.90    9.90
 -11  14   5   39.50   11.50
 -14   6  -5   27.00    9.90
   6   8  -5   33.10    8.80
   8 -14  -5    6.10    9.90
   6   8  -5   20.60   22.30
 -14   6  -5   16.40    9.50
   6   8  -5   17.80    6.60
   8 -14  -5   -3.40   19.30
  -8  14   5   36.70    7.90
  -6  -8   5   28.30    8.10
  -8  14   5   24.10    7.30
  -6  -8   5   25.10    9.10
  14  -6   5    6.20   11.00
  -8  14   5   42.90   15.80
  14  -6   5   22.40    5.70
   9   5  -5   16.30   11.60
   9   5  -5   26.30   10.60
   9   5  -5   42.60    7.90
 -14   9  -5   53.59   12.10
   9   5  -5   33.50   11.10
   9   5  -5   26.70   15.10
 -14   9  -5   23.60    9.80
  -5  14   5   24.30    8.20
  14  -9   5   29.30    6.30
  14  -9   5   42.30    8.20
  -5  14   5   28.40    7.80
  -5  14   5   38.70    7.90
  -5  14   5   41.10   10.20
   2 -14  -5   27.00    8.50
 -14  12  -5   23.00   11.80
  12   2  -5   17.30   10.00
   2 -14  -5    6.70   10.10
  12   2  -5   22.80   15.10
   2 -14  -5   17.60   13.40
  12   2  -5   20.00    6.50
  12   2  -5   21.30   10.70
 -14  12  -5    8.40   13.30
  -2  14   5   29.00    7.70
  14 -12   5    6.50   21.40
  14 -12   5   16.30    5.60
  -2  14   5   12.90    7.50
  -2  14   5   14.20   10.30
 -12  -2   5    7.10    8.40
  14 -12   5   27.70   11.90
 -14  15  -5   -7.00   11.80
 -14  15  -5    7.80   11.10
  15  -1  -5   14.80   11.50
  -1 -14  -5  -12.00   13.00
  15  -1  -5  -12.20    9.70
  14 -15   5   -5.60    6.70
   1  14   5   10.20   17.70
   1  14   5    4.80    7.00
   1  14   5    3.70    7.50
  18  -4  -5    5.20   10.10
 -14  18  -5  -19.60   11.20
  -4 -14  -5   12.50   16.70
 -14  18  -5  -11.80   12.20
   4  14   5  -11.90    8.80
 -18   4   5  -17.50   10.70
   4  14   5   -5.80    8.40
  14 -18   5  -12.80    7.80
  21  -7  -5   10.40   11.10
 -14  21  -5   11.40   15.60
  -7 -14  -5   12.90   15.10
 -21   7   5   18.40   18.40
   7  14   5    5.20    9.50
 -15  -4  -5   -9.50    9.80
  -4  19  -5    3.10   12.30
  -4  19  -5    0.20   12.00
  19 -15  -5   -4.10   10.00
  -4  19  -5    7.40   10.30
 -19  15   5  -10.00   15.70
  15   4   5   -1.30    8.40
   4 -19   5  -26.20   17.50
  15   4   5   13.40   13.00
  -1  16  -5   55.59   10.80
  16 -15  -5   39.20    9.80
 -16  15   5   20.70   13.80
 -16  15   5   -0.40   18.80
 -16  15   5   33.50   12.50
 -16  15   5   25.50   13.80
  15   1   5   36.30    6.70
   1 -16   5   11.70   11.30
  15   1   5   21.10    9.40
   1 -16   5    9.90   14.10
  15   1   5   31.10    8.20
 -15   2  -5   21.70   12.80
   2  13  -5   -0.90    7.80
   2  13  -5   10.90    8.10
 -15   2  -5    7.40   11.80
   2  13  -5    7.20    9.30
 -15   2  -5   -3.20    9.30
  15  -2   5    5.10    6.80
 -13  15   5    2.30   15.90
  15  -2   5   -0.80    5.70
 -13  15   5   18.80   13.90
 -13  15   5    3.30   10.90
  -2 -13   5   21.50   11.20
 -13  15   5   20.30   13.20
  15  -2   5   20.90    7.00
 -13  15   5   10.10   10.40
  15  -2   5   29.50   13.80
 -15   5  -5   19.10   11.50
   5  10  -5    5.00    8.70
 -15   5  -5  -11.90   10.70
   5  10  -5    2.70    7.70
  10 -15  -5  -14.90    9.40
   5  10  -5   -6.10    8.40
  15  -5   5   12.00    5.50
  15  -5   5   -1.00   13.80
 -10  15   5    6.20    7.80
 -10  15   5    7.60    8.00
 -10  15   5    1.60    8.50
 -10  15   5    0.30    9.60
 -10  15   5    5.10   15.60
  15  -5   5   14.60    6.90
  -5 -10   5   12.00    7.30
   8   7  -5   64.29    8.10
   8   7  -5   76.09    9.20
   8   7  -5   35.60   26.20
 -15   8  -5   58.99   11.20
   8   7  -5   55.69   14.70
 -15   8  -5   92.99   11.70
 -15   8  -5   84.49   12.50
   8   7  -5   90.69   19.00
  15  -8   5   81.99    9.10
  -7  15   5   83.89   11.90
  -7  15   5   83.79    8.90
  11   4  -5  168.88   10.60
 -15  11  -5  139.79   12.30
 -15  11  -5  169.98   14.60
  11   4  -5  145.79    9.80
  11   4  -5  157.68   13.40
  15 -11   5  169.98    9.10
  15 -11   5  167.68   10.60
  15 -11   5  168.78   11.20
  -4  15   5  161.28   11.90
  -4  15   5  161.58   10.30
  -4  15   5  162.68   14.40
 -15  14  -5  -15.40   12.10
 -15  14  -5   -2.30   17.40
  14   1  -5  -11.30   14.30
   1 -15  -5    3.10   11.20
  14   1  -5    8.90    7.30
  15 -14   5   17.80    6.70
  -1  15   5   10.90    8.00
  -1  15   5    6.20   14.60
  -1  15   5    1.60    8.30
  17  -2  -5    3.10   10.90
  17  -2  -5   -6.60    7.90
  -2 -15  -5  -26.30   14.10
 -15  17  -5   -0.60   10.50
   2  15   5  -13.50    8.00
   2  15   5    7.70    9.40
  15 -17   5  -13.40    8.60
  20  -5  -5   38.10   19.70
  -5 -15  -5   -9.70   15.50
 -15  20  -5    5.70   27.00
 -15  20  -5   10.40   11.30
 -20   5   5   23.10   13.90
  15 -20   5    5.90   10.40
  18 -16  -5   22.00   10.60
  -2  18  -5  -16.40   11.80
  -2  18  -5   10.30   11.30
 -16  -2  -5    6.20    9.60
  -2  18  -5   -4.60   10.10
  16   2   5   -7.60   10.40
  16   2   5    5.20    8.80
  16   2   5   -1.40   11.90
 -18  16   5    9.80   18.00
   2 -18   5   22.80   17.90
 -18  16   5   13.70   14.70
   1  15  -5   44.60    9.70
 -16   1  -5   20.10   10.80
 -16   1  -5   35.00   12.90
  15 -16  -5   31.60    9.60
  16  -1   5   17.60   16.00
  16  -1   5   28.40    8.00
  16  -1   5   11.40    8.40
 -15  16   5   23.50   14.00
 -15  16   5   33.30   20.30
 -15  16   5   10.20   14.30
  16  -1   5   32.00    8.60
 -15  16   5   18.70   13.50
 -16   4  -5    9.80    9.50
   4  12  -5    3.30    7.30
   4  12  -5    2.30    8.40
 -16   4  -5    7.50   14.00
 -16   4  -5  -11.10   11.10
 -12  16   5    3.20   16.00
 -12  16   5  -12.80   10.20
  16  -4   5   -5.40    7.40
 -12  16   5    0.90   10.60
  16  -4   5   10.00    7.00
 -12  16   5    6.50   10.00
  -4 -12   5   16.90    9.80
   7   9  -5   -9.80    6.90
 -16   7  -5    4.00   10.70
   7   9  -5    0.30    8.40
   9 -16  -5   -2.20   11.90
   9 -16  -5    0.50   22.20
 -16   7  -5   12.40   16.90
   7   9  -5    9.80   26.80
 -16   7  -5  -13.90    9.40
   7   9  -5   -4.10    8.10
  16  -7   5   -6.30    8.20
  -7  -9   5    0.70    8.50
  16  -7   5   -1.00   11.20
  -9  16   5    9.40    9.50
  -9  16   5    0.60    0.60
 -16  10  -5   11.10   11.40
  10   6  -5   23.60    8.20
  10   6  -5   10.80    7.80
  10   6  -5    4.20   14.50
  10   6  -5    3.20   18.80
  10   6  -5   18.50    6.30
 -10  -6   5   13.30    9.60
  -6  16   5    5.90    8.00
  -6  16   5   19.30    9.40
   3 -16  -5   45.90   12.70
 -16  13  -5   30.40   11.80
 -16  13  -5   58.69   14.40
  13   3  -5   53.79    8.20
 -13  -3   5   40.50    8.90
  16 -13   5   56.29    7.70
  -3  16   5   49.50    9.30
  -3  16   5   45.90    8.80
   0 -16  -5    0.50   15.30
 -16  16  -5    2.80   13.20
 -16  16  -5   11.20   11.00
  16   0  -5   28.70    8.80
  16   0  -5    8.80   15.20
   0 -16  -5   31.30   15.30
   0  16   5   16.20    9.20
 -16   0   5   17.20   10.40
   0  16   5   -6.90    9.50
  19  -3  -5   25.10   11.80
  -3 -16  -5  -12.70   16.20
 -16  19  -5    6.50   15.60
  19  -3  -5   -6.50    8.90
 -16  19  -5    9.20   11.20
   3  16   5   10.80   10.80
  16 -19   5    8.00    9.20
   3  16   5  -13.90   10.80
 -17  -3  -5   24.60   11.70
 -20  17   5   14.50   14.60
   3 -20   5   33.30   19.10
   0  17  -5   28.70   10.60
  17 -17  -5   34.10   10.80
 -17  17   5   20.80   11.80
  17   0   5   37.90    8.90
 -17  17   5   35.10   13.60
   0 -17   5   24.70   18.40
 -17  17   5   17.40   15.30
   3  14  -5   32.30    9.80
   3  14  -5   29.80    9.40
 -17   3  -5   26.10   13.80
   3  14  -5   13.00   10.30
  14 -17  -5   16.90   10.70
 -17   3  -5   23.60   11.40
 -14  17   5   46.30   16.90
 -14  17   5   41.50   14.20
  17  -3   5   11.40    8.40
  -3 -14   5   38.60   12.80
  17  -3   5   14.50    7.70
 -14  17   5    4.10   11.50
 -14  17   5   17.40   10.40
 -17   6  -5   33.30   10.10
   6  11  -5    2.30    8.60
  11 -17  -5   38.50   12.70
   6  11  -5   -0.10    9.50
   6  11  -5   17.30    7.20
 -17   6  -5   -5.30   11.60
  -6 -11   5   10.40    9.20
 -11  17   5   30.90   29.00
  17  -6   5   30.00    7.70
 -11  17   5   -1.20    9.60
  17  -6   5   16.00   13.80
 -11  17   5   32.00   10.70
   9   8  -5   78.29   11.60
   9   8  -5   85.99    9.70
 -17   9  -5   63.99   13.10
  17  -9   5   75.09    7.90
  -8  17   5   63.39   11.10
  -8  17   5   61.29    9.80
  -9  -8   5   54.69    9.20
  12   5  -5   18.80   14.30
   5 -17  -5   14.90   10.20
  12   5  -5    8.00    6.70
 -17  12  -5   -3.10   12.80
  12   5  -5   11.60    8.40
 -17  12  -5   -9.10   12.40
  12   5  -5   -0.40   17.60
 -12  -5   5  -12.30    8.80
  -5  17   5   10.50   12.80
  17 -12   5   -5.00    6.50
  -5  17   5    0.70   10.30
  -5  17   5   -3.30    8.40
  15   2  -5    1.90    8.50
 -17  15  -5   17.60   12.40
 -17  15  -5    5.00   18.10
   2 -17  -5    6.40   13.70
   2 -17  -5   15.10   13.20
  15   2  -5   -6.70   19.30
  15   2  -5   -0.60   12.50
  -2  17   5  -10.70   12.00
  -2  17   5    6.60    9.70
  17 -15   5   -7.20    7.30
  -2  17   5   -5.90   11.10
 -17  18  -5   10.60   10.70
 -17  18  -5  -23.10   16.10
  -1 -17  -5   -3.20   16.10
  18  -1  -5   17.50    8.40
   1  17   5  -13.80   10.10
   1  17   5   -7.00   13.20
  17 -18   5   -2.50    9.50
 -18   1   5   23.70   12.30
 -18  -1  -5    5.70   16.50
  19 -18  -5   12.20   12.00
 -19  18   5   25.20   16.90
  18   1   5   18.50   12.60
  18   1   5   20.30    9.50
  16 -18  -5   18.00   12.90
 -18   2  -5  -23.90   11.40
   2  16  -5   16.00   11.50
   2  16  -5   -8.40   10.10
 -18   2  -5    8.50   13.80
   2  16  -5  -12.10    9.50
  18  -2   5   -4.70    8.90
 -16  18   5  -19.60   14.30
  18  -2   5  -13.50    8.40
 -16  18   5   -6.20   11.10
  -2 -16   5    3.90   16.10
   5  13  -5   13.10    8.40
  13 -18  -5   -0.90   11.80
   5  13  -5    9.40    9.60
 -18   5  -5    5.50   12.90
   5  13  -5   17.80   10.80
 -13  18   5   -0.30   11.20
 -13  18   5    2.40   11.00
  18  -5   5   -9.60    7.70
  18  -5   5   -3.60    6.10
  18  -5   5   -6.30    7.80
 -13  18   5   -0.20   20.30
  -5 -13   5    2.60   11.20
  10 -18  -5   21.50   27.80
   8  10  -5   10.10    9.90
   8  10  -5   14.20    7.50
 -18   8  -5    9.60   11.50
   8  10  -5   14.70   34.50
  18  -8   5   -9.00   11.80
 -10  18   5   11.60   10.60
  18  -8   5   20.30    6.70
  -8 -10   5   10.70    9.00
 -10  18   5  -11.40   11.10
 -10  18   5    9.30   11.10
  11   7  -5   13.80   15.90
  11   7  -5  -10.80    8.00
 -18  11  -5   -6.90   12.80
 -18  11  -5    4.60   11.90
  11   7  -5    0.30    8.50
  11   7  -5  -18.00   10.50
  18 -11   5  -12.30    6.30
  -7  18   5   -7.30   10.60
  -7  18   5    6.40   11.70
  -7  18   5   20.50    9.90
  14   4  -5   22.50   10.40
  14   4  -5  -21.30   13.70
 -18  14  -5   -7.80   11.70
  14   4  -5    3.60    8.20
 -18  14  -5  -17.00   12.60
  14   4  -5   -2.30   16.50
  -4  18   5   20.00   11.40
 -14  -4   5   12.10    9.20
  -4  18   5   11.50   13.10
  17   1  -5    1.00   14.30
 -18  17  -5    1.70   11.80
   1 -18  -5    2.30   16.40
 -18  17  -5   14.10   17.70
  18 -17   5    7.50    9.10
  -1  18   5   31.20   13.90
 -17  -1   5   10.80   11.40
  -1  18   5   -1.10   11.60
 -19   1  -5    4.10   15.80
   1  18  -5    3.80   12.10
   1  18  -5   26.20   12.30
 -18  19   5   28.80   17.80
  -1 -18   5   13.40   31.10
  19  -1   5    3.90    9.40
 -18  19   5   37.70   19.00
   4  15  -5   10.10   11.20
 -19   4  -5   20.40   12.00
   4  15  -5   16.30   10.50
 -19   4  -5   19.70   14.90
  15 -19  -5   14.90   13.30
 -15  19   5    8.70   13.50
  19  -4   5   10.10    8.30
 -15  19   5   -0.30   12.60
 -19   7  -5    0.30   13.80
   7  12  -5    6.90   10.20
  12 -19  -5   25.80   14.10
 -19   7  -5   -7.00   11.60
   7  12  -5   18.10   10.50
   7  12  -5   10.40    8.20
  19  -7   5   25.70    7.30
 -12  19   5    9.70   11.90
  19  -7   5   25.30    8.20
 -12  19   5   25.40   12.40
  10   9  -5    5.30   21.00
  10   9  -5   23.70   10.70
 -19  10  -5    9.90   13.40
  10   9  -5    2.40    9.90
 -19  10  -5    6.80   11.40
  10   9  -5    8.80    7.80
 -10  -9   5  -11.20    8.70
 -19  13  -5   -5.30   14.60
  13   6  -5   12.60    9.40
  13   6  -5    0.40    8.70
 -19  13  -5    7.20   12.40
  13   6  -5   18.90   10.30
  19 -13   5   12.40    8.30
  -6  19   5   20.10   12.20
  -6  19   5   13.10    9.50
 -13  -6   5   13.10   11.60
  16   3  -5  -14.50    8.70
  16   3  -5   -2.30   16.30
 -19  16  -5   -6.50   14.50
  -3  19   5  -15.50   15.50
  -3  19   5    2.90   11.40
  19 -16   5    5.70    8.00
 -20   3  -5    4.30   13.40
 -17  20   5   28.80   20.60
  -3 -17   5   33.50   18.40
   6  14  -5   12.70   11.80
   6  14  -5    8.00   11.40
 -20   6  -5   25.70   12.00
  14 -20  -5   -2.30   13.40
 -20   6  -5    4.50   13.90
  -6 -14   5  -10.20   12.40
  20  -6   5    8.40    8.20
 -14  20   5    7.50   14.00
   9  11  -5    3.40   10.70
   9  11  -5  -11.30   10.70
 -20   9  -5  -13.00   14.60
   9  11  -5   17.70    8.60
 -11  20   5  -12.10   12.00
 -11  20   5   -5.50   11.80
  20  -9   5    3.20    7.30
  -9 -11   5   -0.30   10.50
 -11  20   5   25.80   12.10
  12   8  -5  -12.20   10.60
  12   8  -5    0.80   11.10
  12   8  -5   13.90   18.00
  12   8  -5   -9.90    8.90
 -20  12  -5  -23.00   15.50
  -8  20   5   -8.40   12.70
  20 -12   5    2.30    7.20
  -8  20   5   -0.30   11.00
  -8  20   5    7.70   10.60
 -20  15  -5   16.30   15.00
  15   5  -5   37.80   13.10
 -20  15  -5   17.70   16.90
  15   5  -5   15.10   10.00
  -5  20   5   21.00   12.20
  -5  20   5   -0.20   15.20
   8  13  -5   -2.90   11.80
 -21   8  -5  -23.00   14.30
 -13  21   5    7.70   13.10
  -8 -13   5   18.90   14.70
  21  -8   5   -5.00    7.50
  11  10  -5   12.20   11.70
  11  10  -5   12.50   10.10
 -21  11  -5   -7.30   13.40
 -21  11  -5   28.80   16.00
  11  10  -5    0.10   11.80
  21 -11   5    3.30    7.40
 -10  21   5    9.80   12.90
 -11 -10   5   -7.80   11.70
 -10  21   5   12.70   12.40
 -10  21   5   18.70   13.20
  14   7  -5   -7.50   18.80
 -21  14  -5  -12.40   17.80
  14   7  -5   23.10    9.90
 -21  14  -5  -18.60   13.00
  -7  21   5   32.30   13.80
  21 -14   5    5.70    8.00
   0   0  -6 9948.00  270.07
   0   0  -6 9292.57  269.87
   0   0  -6 9328.37  270.77
   0   0  -6 9594.74  270.77
   0   0   6 9999.00  270.77
   0   0   6 9134.39  270.97
   0   0   6 9417.56  270.27
   2  -1  -6 1175.78   38.20
   2  -1  -6 1206.38   36.30
  -1   2  -6 1234.18   37.10
   2  -1  -6 1215.28   38.10
  -1  -1  -6 1211.48   36.50
  -1   2  -6 1165.88   38.00
  -1   2  -6 1264.47   37.30
   2  -1  -6 1250.07   36.40
  -1  -1  -6 1163.38   38.20
  -1  -1  -6 1181.98   37.90
  -1   2  -6 1194.68   36.30
   1  -2   6 1280.47   37.50
  -2   1   6 1248.48   36.30
   1   1   6 1132.79   37.30
   1  -2   6 1268.17   36.20
  -2   1   6 1204.48   37.20
   1   1   6 1139.49   36.40
  -2   1   6 1201.58   38.30
  -2   1   6 1220.58   36.70
   1   1   6 1211.28   38.30
   1  -2   6 1255.37   37.10
   1  -2   6 1163.18   38.10
  -2   1  -6   30.80    9.50
   1  -2  -6   30.90    4.10
   1  -2  -6   33.40    6.20
   1   1  -6   27.30    6.60
   1  -2  -6    9.90   10.10
  -2   1  -6   17.10    8.70
  -2   1  -6   18.40    7.60
   1   1  -6   27.30    6.70
  -2   1  -6   45.90    7.40
   1   1  -6   34.00    8.20
   2  -1   6   42.50    8.20
  -1   2   6   51.29   10.20
  -1  -1   6   20.50    7.30
  -1   2   6   30.20    5.70
   2  -1   6   22.60    9.50
  -1   2   6   39.50    6.90
  -1  -1   6    9.40   10.30
  -1  -1   6   31.60    7.50
  -1  -1   6   37.40    8.50
   2  -1   6   31.70    8.60
   2  -1   6   35.50    7.10
   4  -2  -6  559.04   19.40
   4  -2  -6  514.95   22.60
  -2  -2  -6  531.65   17.40
  -2   4  -6  546.65   17.70
  -2  -2  -6  538.65   18.60
  -2  -2  -6  493.55   20.80
   4  -2  -6  548.55   19.70
  -2   4  -6  526.35   21.40
  -2   4  -6  509.45   19.70
  -4   2   6  500.45   19.70
   2   2   6  497.15   18.60
  -4   2   6  522.05   19.00
  -4   2   6  524.25   17.50
   2  -4   6  519.15   17.70
   2  -4   6  543.05   17.40
  -4   2   6  521.55   20.30
   2   2   6  541.65   20.70
   2  -4   6  515.65   21.10
   2  -4   6  528.75   19.60
  -3   0  -6  385.16   15.80
   0   3  -6  386.06   16.80
  -3   0  -6  397.46   16.10
   3  -3  -6  418.36   15.60
  -3   0  -6  380.66   16.60
   3  -3  -6  398.36   16.80
  -3   3   6  380.96   14.90
   0  -3   6  422.86   17.00
   3   0   6  368.86   17.50
   0  -3   6  421.96   15.30
   3   0   6  422.86   15.40
  -3   3   6  389.86   16.70
  -3   3   6  375.96   17.60
  -3   3   6  406.26   16.50
   0  -3   6  424.66   16.20
   3   0   6  410.46   15.70
   0  -3  -6   87.89    7.70
  -3   3  -6   98.59    8.30
   3   0  -6  108.89   15.40
  -3   3  -6  118.69    9.90
   0  -3  -6   84.09   10.40
  -3   3  -6  103.79   11.10
  -3   3  -6   90.09   10.70
   3   0  -6  106.29    9.60
   3   0  -6  119.39    9.00
   0  -3  -6  107.89   12.00
   3   0  -6   93.09    6.40
   0   3   6   98.79    8.20
  -3   0   6  116.09   10.10
   3  -3   6   91.89    7.80
   0   3   6  114.89   12.30
  -3   0   6   89.89    7.70
   3  -3   6  100.29   11.90
  -3   0   6  106.79    9.70
   0   3   6  109.69   11.00
  -3   0   6  111.89    9.50
   0   3   6  106.19    9.40
  -3   6  -6  479.15   19.60
  -3  -3  -6  431.96   20.80
  -3  -3  -6  464.05   18.00
  -3  -3  -6  489.05   17.20
   6  -3  -6  487.95   18.30
  -3   6  -6  472.45   21.60
  -3   6  -6  480.05   16.50
  -3  -3  -6  494.25   19.90
   6  -3  -6  466.35   20.10
   6  -3  -6  443.96   20.20
   3   3   6  492.25   20.30
  -6   3   6  481.75   19.60
   3   3   6  453.95   21.20
   3   3   6  468.35   18.90
  -6   3   6  478.65   18.70
   3  -6   6  486.35   20.90
   3   3   6  449.76   18.00
   3  -6   6  439.86   19.30
  -6   3   6  457.35   19.40
  -6   3   6  451.05   17.00
   3  -6   6  478.55   15.60
  -6   3   6  437.46   16.20
   3  -6   6  456.55   21.70
  -4  -1  -6  855.71   27.50
  -4  -1  -6  821.02   28.90
  -4  -1  -6  824.12   27.80
   5  -4  -6  795.22   27.80
  -1   5  -6  802.12   26.90
   5  -4  -6  846.72   28.60
   5  -4  -6  773.42   29.10
  -4  -1  -6  847.42   28.50
  -1   5  -6  862.51   29.60
   4   1   6  829.92   27.40
   4   1   6  777.72   27.10
  -5   4   6  832.82   27.30
  -5   4   6  794.42   27.60
  -5   4   6  833.12   28.80
   4   1   6  790.02   29.20
  -5   4   6  818.92   28.70
   1  -5   6  847.32   25.50
   1  -5   6  830.92   29.10
   1  -5   6  789.32   28.10
  -4   2  -6   83.59    9.10
   2   2  -6   90.89   10.80
   2  -4  -6   76.29    7.40
   2  -4  -6   80.19   11.70
  -4   2  -6   74.59    9.20
   2   2  -6   76.19    8.60
  -4   2  -6   78.09   11.00
  -2   4   6   67.49    9.20
  -2   4   6   72.79    7.10
  -2  -2   6   72.09    9.00
  -2  -2   6   85.49    8.50
  -2   4   6   85.09    7.80
   4  -2   6   80.79    9.00
  -2  -2   6   83.79    9.10
   4  -2   6   63.79   10.50
  -2   4   6   69.79   10.80
  -2  -2   6   91.69   10.20
  -2  -2   6   57.69   10.20
  -2   4   6   92.49   11.50
   4  -2   6   89.29    7.80
  -1  -4  -6   -0.10    6.70
   5  -1  -6    1.50    8.40
  -4   5  -6   11.20    8.60
   5  -1  -6   17.00   10.30
   5  -1  -6  -12.70   11.80
  -1  -4  -6   -5.20   10.50
  -4   5  -6    3.20   11.70
  -4   5  -6   -2.10    6.30
   5  -1  -6   15.00    7.30
  -4   5  -6   17.70   11.50
   1   4   6    8.20    7.50
  -5   1   6    8.60    8.70
   1   4   6   24.60    8.40
   4  -5   6   12.10    8.40
   1   4   6    5.20   10.80
  -5   1   6   -7.00    9.60
   4  -5   6   15.30   10.90
  -5   1   6    7.30    7.90
   4  -5   6   -0.30    6.10
   1   4   6    5.60    6.50
  -4   8  -6  228.08   16.90
   8  -4  -6  243.98   17.00
  -4  -4  -6  247.38   14.20
   8  -4  -6  259.57   21.00
  -4   8  -6  211.08   13.10
  -4   8  -6  224.98   20.40
   4   4   6  271.67   17.20
   4   4   6  235.88   17.70
  -8   4   6  253.37   17.60
  -8   4   6  237.98   16.00
  -8   4   6  264.47   15.20
  -8   4   6  240.38   12.50
   4   4   6  235.78   14.40
   4  -8   6  255.37   10.40
   4   4   6  221.88   16.20
   4  -8   6  256.87   19.60
   4   4   6  235.98   15.90
  -2   7  -6  170.98   15.90
  -5  -2  -6  180.38   15.20
   7  -5  -6  138.19   14.60
  -5  -2  -6  160.08   16.80
   7  -5  -6  185.98   14.80
  -5  -2  -6  167.68   13.40
  -5  -2  -6  164.08   15.10
   5   2   6  192.38   18.20
  -7   5   6  167.38   16.40
   2  -7   6  149.59   17.50
   5   2   6  145.09   12.80
   5   2   6  156.68   13.00
   5   2   6  176.48   16.50
  -7   5   6  144.59   11.80
   2  -7   6  152.98   15.70
   2  -7   6  154.68    8.50
   2  -7   6  139.09   12.00
  -5   1  -6  188.28   12.20
   1   4  -6  204.58   13.50
   4  -5  -6  170.48   13.70
  -5   1  -6  193.58   11.30
  -5   1  -6  196.78   13.70
   4  -5  -6  177.58   15.00
   1   4  -6  209.48   13.10
  -4   5   6  187.78   12.40
  -1  -4   6  197.18   13.80
  -1  -4   6  191.18   13.10
  -1  -4   6  199.28   13.50
   5  -1   6  169.38   10.50
  -4   5   6  196.68   10.50
   5  -1   6  194.58   11.60
  -1  -4   6  201.18   13.40
   5  -1   6  173.48   10.20
  -4   5   6  182.38   12.40
   5  -1   6  168.08   14.70
  -4   5   6  193.88   14.20
  -4   5   6  181.18   14.70
   1  -5  -6   17.60    9.20
   4   1  -6    5.20   13.80
   4   1  -6   16.20    8.00
  -5   4  -6   -3.20    7.80
   1  -5  -6   14.50    6.10
   1  -5  -6   -0.30   11.60
   4   1  -6   10.40    5.10
   4   1  -6    7.50    7.10
   4   1  -6    1.40   10.10
  -5   4  -6   -0.80    9.60
  -5   4  -6   14.00    8.00
  -1   5   6    4.50    6.10
  -4  -1   6    9.80    7.60
  -4  -1   6   11.00    8.70
   5  -4   6   23.60    7.20
  -1   5   6   -0.20    6.30
  -1   5   6    7.10   11.90
  -4  -1   6    7.10    9.40
   5  -4   6    8.70   11.30
  -4  -1   6    1.50    6.30
   5  -4   6   12.80    5.50
  -1   5   6   -1.70   11.20
   5  -4   6   18.80    7.00
  -1   5   6   20.60    8.40
  -4  -1   6   10.10    8.60
  -2  -5  -6  242.98   17.20
   7  -2  -6  222.38   18.10
  -5   7  -6  220.18   10.90
  -5   7  -6  227.38   14.60
  -2  -5  -6  231.78   13.30
   7  -2  -6  242.78   16.20
   7  -2  -6  229.38   12.70
  -2  -5  -6  256.97   13.80
  -5   7  -6  224.68   19.50
   2   5   6  233.28   16.40
   2   5   6  235.78   12.90
  -7   2   6  233.18   13.90
   2   5   6  221.68   13.40
   2   5   6  223.08   16.40
   2   5   6  235.28   15.60
   5  -7   6  217.68   10.20
  -7   2   6  220.78   12.20
   5  -7   6  212.58   14.10
  -7   2   6  248.68   16.60
  10  -5  -6  132.49   15.50
  -5  10  -6  178.68   11.50
  -5  -5  -6  179.98   17.10
  -5  10  -6  148.59   11.90
  -5  -5  -6  157.08   14.80
  10  -5  -6  176.38   10.40
   5   5   6  169.78   21.10
   5   5   6  144.69   14.50
 -10   5   6  180.08   16.30
   5   5   6  175.98   17.40
   5 -10   6  158.38    9.00
 -10   5   6  160.28   15.50
 -10   5   6  162.38   20.00
   5   5   6  191.18   17.50
   5 -10   6  162.78   11.50
   5   5   6  170.08    9.40
 -10   5   6  141.59   11.40
  -6  -3  -6   30.50   12.50
  -3   9  -6   44.00   10.60
  -6  -3  -6   29.60   15.70
   9  -6  -6   33.10   14.10
  -3   9  -6   52.69   12.10
  -3   9  -6   35.60   15.10
   9  -6  -6   36.40   12.30
  -6  -3  -6   44.20   12.40
  -9   6   6   52.09   14.90
   3  -9   6   33.10   10.40
   6   3   6   14.20   11.70
  -9   6   6   32.20   15.60
  -9   6   6   47.20   10.30
   6   3   6   34.90   18.40
  -9   6   6   45.10   10.70
   6   3   6   43.00   12.50
   6   3   6   34.40   12.60
   3  -9   6   35.40    6.10
   3  -9   6    9.30   22.90
   6  -6  -6  368.76   19.60
   0   6  -6  378.36   18.20
  -6   0  -6  386.66   19.60
  -6   0  -6  351.16   16.90
   6  -6  -6  364.86   18.70
   0   6  -6  343.87   18.30
  -6   0  -6  346.47   17.70
  -6   0  -6  379.46   18.60
   6   0   6  378.26   17.00
   6   0   6  367.76   16.20
  -6   6   6  370.36   17.60
   6   0   6  370.46   21.20
   0  -6   6  365.76   16.70
  -6   6   6  373.86   21.00
   0  -6   6  397.66   19.30
  -6   6   6  353.36   16.50
   0  -6   6  391.86   17.30
   0  -6   6  405.76   20.80
  -6   6   6  354.86   18.40
   3   3  -6   27.90    7.90
   3  -6  -6   22.50   10.00
   3   3  -6   46.30   12.10
   3   3  -6   24.10    9.20
   3   3  -6   31.90   15.10
   3  -6  -6   29.90    7.40
  -6   3  -6   24.90    8.70
  -6   3  -6   31.10   11.10
   3  -6  -6   50.49   12.70
   6  -3   6   36.40    9.30
  -3   6   6   15.40   10.30
   6  -3   6   21.90    6.40
  -3   6   6   55.79   14.10
  -3   6   6   25.30    9.70
   6  -3   6   21.10   12.20
  -3  -3   6   43.80    9.50
  -3  -3   6   10.30    8.60
  -3  -3   6   33.40   10.00
   6  -3   6   29.30    7.60
  -3  -3   6   27.40    9.80
  -3  -3   6   11.70   10.00
  -3   6   6   25.40    8.90
   6   0  -6   83.99    9.20
   0  -6  -6   70.19   13.00
   0  -6  -6   85.69   14.70
   6   0  -6   78.69   10.10
  -6   6  -6   89.59   15.50
  -6   6  -6   90.09    9.90
   6   0  -6   91.09   11.80
   6   0  -6   73.89   13.00
   0  -6  -6   67.39   10.90
   0   6   6  105.39   10.20
   0   6   6   87.69   15.30
   6  -6   6   78.29   27.70
  -6   0   6   67.99   10.20
   6  -6   6   96.79   10.50
  -6   0   6   71.29   13.00
   6  -6   6   88.59    9.00
   0   6   6  103.19    9.70
   0   6   6   91.49   11.70
  -6   0   6   87.69   10.90
  -6   0   6   67.89   12.10
  -6   9  -6   23.80   13.60
   9  -3  -6   25.00   12.60
  -3  -6  -6   35.10   15.40
  -3  -6  -6    5.30   12.40
  -6   9  -6   17.80    7.00
   9  -3  -6   16.30   10.20
   3   6   6   19.10   13.00
   3   6   6    4.60   13.60
   6  -9   6   19.60    7.30
   3   6   6    3.40   10.10
  -9   3   6   16.80    8.70
   6  -9   6    7.90    6.40
  -9   3   6    8.00   16.00
  -9   3   6   12.00   11.00
  -6  -6  -6   34.80   18.50
  12  -6  -6   33.70   16.80
  -6  -6  -6   54.29   17.00
  -6  12  -6   53.89    9.80
  -6  12  -6   43.20    8.80
  -6  12  -6   43.70   11.00
   6   6   6   35.60    8.30
 -12   6   6   36.00   16.30
   6   6   6   61.99   10.90
 -12   6   6   36.40   10.00
   6 -12   6   37.90    9.10
   6   6   6   53.09    8.30
 -12   6   6   20.60   10.60
   6 -12   6   38.10    6.30
  -4  11  -6   36.50   11.60
  -4  11  -6   27.80    8.20
  11  -7  -6   34.40    7.80
  11  -7  -6   13.50   16.50
  -4  11  -6   53.19    9.60
  -7  -4  -6   41.90   14.50
  -7  -4  -6   55.09   15.40
   4 -11   6   35.30   12.00
   4 -11   6   35.90    9.50
 -11   7   6   28.00   10.50
   7   4   6   31.00    6.40
 -11   7   6   18.80   12.90
 -11   7   6   31.10   18.70
 -11   7   6   42.30   13.60
 -11   7   6   49.90    9.20
   7   4   6   53.19   15.60
   7   4   6   41.90    7.70
   7   4   6   48.80   14.10
   4 -11   6   36.70    6.20
   7   4   6   39.20   10.40
   8  -7  -6    7.50   14.60
  -7  -1  -6   -8.80   12.30
  -7  -1  -6   -1.50   12.10
  -7  -1  -6   -8.20   14.30
  -1   8  -6    9.40   12.80
  -1   8  -6   -7.90    9.60
   8  -7  -6   -2.90   13.50
   7   1   6   16.60    9.30
  -8   7   6   28.70   18.20
   1  -8   6    6.40   11.00
  -8   7   6    1.90   11.30
  -8   7   6   -6.20   14.60
   1  -8   6   19.80   18.30
   1  -8   6   15.10    8.90
   7   1   6   47.40   22.30
   7   1   6    5.70   11.80
  -7   2  -6    4.90   11.50
  -7   2  -6    5.10   14.30
   2   5  -6    1.90    9.90
  -7   2  -6   24.50    9.00
   5  -7  -6    3.70   14.60
   2   5  -6   18.20   10.00
   5  -7  -6   -0.20   14.40
   2   5  -6   10.70   11.00
  -5   7   6    4.20    9.40
   7  -2   6   24.20   10.30
  -2  -5   6   -5.40    8.40
  -2  -5   6    3.10   15.20
  -5   7   6    0.70   11.20
   7  -2   6  -17.70   13.40
  -5   7   6   12.80   19.20
   7  -2   6   13.80    7.50
  -2  -5   6   10.40   13.30
  -5   7   6   18.80    9.70
   5   2  -6   10.20   14.20
   2  -7  -6    9.40   14.50
  -7   5  -6   14.00   13.00
  -7   5  -6    5.50    9.60
   5   2  -6    5.70    9.40
  -7   5  -6    9.30    8.60
   2  -7  -6   -9.00   10.30
   2  -7  -6    2.20    6.10
   5   2  -6    1.80    6.30
  -2   7   6    5.50   12.40
  -2   7   6   -2.60   11.00
   7  -5   6    5.80    7.60
  -5  -2   6   10.50    9.00
   7  -5   6    3.60    5.20
  -5  -2   6    2.00    9.60
  -5  -2   6    3.00   11.90
  -2   7   6   17.60    8.00
  -2   7   6    3.90   10.90
   7  -5   6   17.60    8.80
  -2   7   6   11.80    9.30
  -1  -7  -6  475.05   19.20
   8  -1  -6  477.65   17.60
   8  -1  -6  511.65   18.10
  -1  -7  -6  527.15   25.20
  -7   8  -6  512.45   21.20
  -1  -7  -6  489.55   20.20
   8  -1  -6  537.05   21.00
  -7   8  -6  483.15   26.50
   8  -1  -6  445.16   22.90
  -7   8  -6  508.65   18.00
   1   7   6  483.15   20.50
   1   7   6  531.25   23.60
  -8   1   6  506.85   24.20
   7  -8   6  478.95   21.40
  -8   1   6  462.75   19.20
   1   7   6  516.95   19.40
  -4  -7  -6    9.10   15.40
  11  -4  -6   -8.50    6.10
  -7  11  -6   -9.60    7.70
  -7  11  -6   10.90    6.50
  -4  -7  -6   12.70   18.10
  -7  11  -6    6.90    8.20
  11  -4  -6  -14.30   12.80
   4   7   6   -5.80   22.30
   4   7   6   -4.00   13.20
 -11   4   6    1.40    8.60
 -11   4   6   -6.80   12.80
   7 -11   6   -5.90    6.20
 -11   4   6   17.50    8.80
   7 -11   6   -3.70    7.50
   4   7   6    3.00    5.70
  -7  14  -6    3.20    9.00
  -7  14  -6    6.20   12.60
  -7  14  -6  -10.80    8.40
  -7  -7  -6   23.20   22.50
  14  -7  -6    1.70    7.10
 -14   7   6   -0.60    9.20
 -14   7   6   -7.10   12.20
   7 -14   6    6.60   10.30
   7 -14   6   12.00    9.30
   7   7   6    4.00    7.70
   7   7   6    1.50   12.20
   7   7   6    1.50    6.20
   7   7   6    2.90    6.50
 -14   7   6    8.10   18.80
  -8  -5  -6   41.80    8.30
  -8  -5  -6   28.10   16.70
  -5  13  -6   22.80    7.80
  13  -8  -6   26.00    7.60
  -5  13  -6   41.80   13.80
  -5  13  -6   31.00    8.50
  13  -8  -6   27.90   20.20
 -13   8   6   25.70   10.30
   8   5   6   24.30   15.70
 -13   8   6   41.10   10.60
   5 -13   6   30.90   11.00
 -13   8   6   27.60   16.00
   8   5   6   49.70   13.60
   8   5   6   36.90    7.40
 -13   8   6   27.40   10.60
  -2  10  -6    0.90    6.20
  10  -8  -6    4.10    5.90
  -8  -2  -6   -0.80   15.00
  -8  -2  -6   18.80   13.00
  -8  -2  -6   27.90   15.50
  -2  10  -6    0.80    6.20
  -2  10  -6    7.50   12.70
  10  -8  -6   16.40   16.00
 -10   8   6  -10.70   13.00
   8   2   6    1.30    6.60
 -10   8   6   -6.30   18.00
   2 -10   6  -13.40    7.80
 -10   8   6   -6.20   12.20
   8   2   6   -1.20   12.40
   2 -10   6   14.90    6.90
   8   2   6   11.40   10.20
   1   7  -6  629.84   26.20
  -8   1  -6  613.54   27.00
   1   7  -6  681.73   25.20
   1   7  -6  627.74   26.60
  -8   1  -6  656.43   27.10
   7  -8  -6  606.54   26.50
  -8   1  -6  664.03   25.50
  -7   8   6  615.94   23.30
   8  -1   6  686.33   23.90
   8  -1   6  653.13   24.50
  -7   8   6  645.64   23.60
  -1  -7   6  654.43   27.10
  -7   8   6  612.64   26.20
  -7   8   6  644.94   25.40
   4   4  -6   11.40    9.60
   4   4  -6   11.90    9.50
   4  -8  -6    0.30   10.70
  -8   4  -6    2.60    7.80
   4   4  -6   -1.30    8.80
   4   4  -6   -1.20   16.50
   4  -8  -6    0.90   15.90
  -8   4  -6    1.70   13.30
   4  -8  -6    3.00   15.10
   4  -8  -6   -1.50    8.00
   8  -4   6  -11.30    9.50
  -4  -4   6   -1.40    7.70
  -4   8   6    2.90    7.10
  -4   8   6    0.50    8.70
  -4   8   6  -11.60   13.60
  -4   8   6   -6.30   12.60
  -4  -4   6   15.80   13.70
  -4  -4   6    2.50   10.90
  -4   8   6   -3.30    8.90
   8  -4   6    2.50    6.20
   8  -4   6    3.80    7.00
  -8   7  -6   43.20   10.70
   1  -8  -6   29.80   10.60
   7   1  -6   45.40    9.80
   1  -8  -6   41.20   17.40
  -8   7  -6   54.69   17.90
   1  -8  -6   57.09   13.90
   7   1  -6   51.19    9.60
  -8   7  -6   45.20   11.40
   7   1  -6   31.00   13.40
  -1   8   6   39.70   12.50
   8  -7   6   42.20    4.50
  -7  -1   6   34.60   14.60
  -1   8   6   42.80    9.00
  -1   8   6   41.80   12.50
  -7  -1   6   25.70   11.50
   8  -7   6   47.80   10.60
  -1   8   6   38.80   12.60
   8  -7   6   64.29   10.00
  -1   8   6   25.30   12.30
  -8  10  -6   23.20   16.10
  10  -2  -6   26.40    7.70
  -8  10  -6   35.00    8.10
  -2  -8  -6   -3.40   19.00
  10  -2  -6   24.30    9.00
  -2  -8  -6   10.40   14.80
  -8  10  -6   37.90   10.80
  10  -2  -6   27.10    9.50
   8 -10   6   34.70    8.60
   2   8   6   27.00    7.90
 -10   2   6   25.60    8.10
   2   8   6    9.80   11.40
   2   8   6   38.30   16.70
 -10   2   6   16.00    9.70
   8 -10   6   22.90    4.90
   2   8   6   28.20    7.30
  -8  13  -6  -14.70    7.70
  -8  13  -6   14.30    8.00
  -5  -8  -6  -20.90   19.20
  -5  -8  -6   15.20   33.20
   8 -13   6   -5.60    6.20
   5   8   6   -6.50    6.20
 -13   5   6   -1.00    8.40
   5   8   6    4.40    6.40
   8 -13   6    4.90   10.50
 -13   5   6    4.60   14.50
   5   8   6   -2.60    9.60
 -13   5   6   16.10    8.80
  -8  16  -6  -11.50    8.80
  -8  -8  -6   13.60   14.00
  16  -8  -6   -5.30    7.70
  -8  16  -6   11.60   11.30
  -8  16  -6   -6.50   14.70
 -16   8   6    1.40   15.00
   8   8   6   19.40    8.40
   8   8   6    4.20    7.10
 -16   8   6   21.30   24.20
   8 -16   6  -16.90   11.10
   8   8   6    5.20   15.00
  -9  -6  -6  228.48   23.10
  -6  15  -6  173.28   12.30
  -6  15  -6  211.18   18.10
  -9  -6  -6  169.88   11.60
  15  -9  -6  163.08   11.50
   9   6   6  200.28   12.00
   9   6   6  178.08   10.70
 -15   9   6  208.98   14.00
   9   6   6  169.98   10.40
   9   6   6  188.78   10.90
  -3  12  -6   17.80    6.90
  12  -9  -6   19.20   19.60
  -3  12  -6   20.10   13.60
  12  -9  -6   29.40    6.90
  -9  -3  -6   20.70   14.30
  -9  -3  -6   19.20    8.70
  -3  12  -6   15.10    7.60
   9   3   6    3.40    6.10
   3 -12   6   14.50    9.10
 -12   9   6   32.60   16.00
 -12   9   6   13.50   12.30
   3 -12   6   12.90    6.10
 -12   9   6   19.80   12.20
   9   3   6   37.70   16.50
   9   3   6   13.00    4.80
 -12   9   6   26.90   10.30
   0   9  -6   15.60    6.80
  -9   0  -6    3.00   15.60
   0   9  -6   17.20   14.50
   0   9  -6    8.90   11.90
   9  -9  -6   17.20   13.90
  -9   0  -6    2.30   14.90
   9  -9  -6   15.30   18.20
  -9   0  -6   10.30   12.10
  -9   9   6   25.60   12.80
   0  -9   6   27.40    9.60
  -9   9   6   10.20   19.30
   0  -9   6   12.80    8.70
  -9   9   6   20.30   13.50
   9   0   6    0.60   11.20
   9   0   6   -1.90   12.10
  -9   9   6    0.80   13.10
   3   6  -6  180.68   14.50
  -9   3  -6  169.98   13.90
   6  -9  -6  186.48   20.90
  -9   3  -6  191.98   18.20
  -9   3  -6  181.58   20.30
   3   6  -6  203.68   16.40
  -6   9   6  164.88   12.70
  -3  -6   6  175.28   11.40
   9  -3   6  194.08   14.40
  -6   9   6  175.38   16.90
  -6   9   6  185.88   13.50
   9  -3   6  169.08   12.10
   9  -3   6  177.78   10.90
  -6   9   6  204.18   11.00
   3  -9  -6   -4.00   24.50
   6   3  -6   12.30    8.70
  -9   6  -6    9.30   17.20
   6   3  -6    7.00   10.70
   6   3  -6   19.10   16.10
  -9   6  -6    4.30    9.80
   9  -6   6   11.00    5.30
  -6  -3   6    1.80    8.80
  -3   9   6   19.30   11.10
  -3   9   6   18.70   13.00
  -3   9   6   15.70    8.00
  -6  -3   6    7.20   14.10
   9  -6   6   -0.20    7.60
  -6  -3   6   16.40   12.60
   9  -6   6   20.70   10.40
  -3   9   6    3.50   15.20
  -3   9   6    8.40    9.10
   9   0  -6   49.70   10.50
   9   0  -6   52.19    7.80
   0  -9  -6   47.80   17.50
  -9   9  -6   33.10   11.90
   0  -9  -6   51.69    9.20
  -9   9  -6   33.70    8.80
  -9   9  -6   45.50   13.00
   9   0  -6   47.80    5.50
   9  -9   6   35.30   12.60
  -9   0   6   52.39    9.60
  -9   0   6   20.30   11.80
   0   9   6   24.90   14.40
   0   9   6   47.80    8.10
   9  -9   6   54.69   10.80
   0   9   6   35.90   10.50
   0   9   6   53.79    6.80
   9  -9   6   35.30    8.30
   0   9   6   38.30   15.80
  -9  12  -6    7.80    9.10
  -9  12  -6   15.70    7.50
  -9  12  -6   21.30    8.60
  -3  -9  -6   18.60   19.20
  -3  -9  -6    9.20    9.30
  12  -3  -6   16.10    7.10
   3   9   6   21.20    6.20
 -12   3   6   21.10   10.40
 -12   3   6   17.90    9.00
   3   9   6    0.00   13.30
   9 -12   6   15.10    9.40
   9 -12   6   21.00    9.40
   3   9   6    8.60    6.20
  -6  -9  -6   41.60   13.40
  -6  -9  -6   27.10   10.70
  -9  15  -6   31.10    8.70
  -9  15  -6   24.90   10.60
  15  -6  -6   21.50    8.30
 -15   6   6   23.10   10.50
   9 -15   6   33.90   12.90
   6   9   6   30.10    7.10
 -15   6   6   11.20   11.40
   6   9   6    5.40   11.30
   9 -15   6   33.70    7.30
 -15   6   6   -5.90   17.10
  -9  -9  -6   32.60   11.70
  -9  18  -6   44.30   12.00
  -9  18  -6   19.90   18.20
  -9  -9  -6    7.90   15.50
  18  -9  -6   27.50    9.10
  -9  18  -6   30.30   10.70
   9 -18   6   28.40   14.60
 -18   9   6   18.10   18.20
   9   9   6   22.60    9.80
   9   9   6   41.80   10.90
   9   9   6   12.50    9.20
   9   9   6   21.80    8.60
  -7  17  -6   37.80   10.70
  17 -10  -6    0.10    8.10
 -10  -7  -6   32.40   27.10
  -7  17  -6   22.20    9.90
 -10  -7  -6   30.60   11.40
  -7  17  -6   11.00   10.30
  10   7   6   21.40    9.80
  10   7   6   10.00    7.40
  10   7   6   12.40    9.90
   7 -17   6   -4.50   10.50
 -17  10   6   15.30   20.20
 -10  -4  -6   31.30   15.00
  14 -10  -6   19.10    7.10
  -4  14  -6   29.10   10.00
  -4  14  -6   27.80   10.00
  -4  14  -6   18.00    8.30
   4 -14   6   21.00    5.20
 -14  10   6   18.60   10.30
 -14  10   6   11.00   11.10
   4 -14   6   22.70    7.80
   4 -14   6   15.10   11.10
  10   4   6   23.50    7.60
  10   4   6   32.60    7.50
 -14  10   6    7.20   12.00
 -14  10   6   -7.90   20.10
  10   4   6   32.80    8.00
 -10  -1  -6   57.19    9.50
 -10  -1  -6   63.09   10.00
  -1  11  -6   69.09    8.00
 -10  -1  -6   50.99   13.90
  11 -10  -6   64.49    9.30
  -1  11  -6   53.99    8.90
  -1  11  -6   51.19    7.60
 -11  10   6   42.80   13.30
   1 -11   6   51.19   10.90
  10   1   6   48.80    7.00
 -11  10   6   40.50   14.80
 -11  10   6   68.19   17.30
  10   1   6   38.80    7.20
  10   1   6   84.09   15.50
 -11  10   6   64.49    9.90
   1 -11   6   45.40   11.70
   2   8  -6   47.00   15.10
   8 -10  -6   39.50    7.40
 -10   2  -6   64.29    7.60
   2   8  -6   51.29    6.90
 -10   2  -6   68.79   17.10
   8 -10  -6   39.10   16.70
 -10   2  -6   67.89   15.40
  10  -2   6   47.40    8.70
  10  -2   6   54.29   11.00
  -8  10   6   60.89   10.70
  -2  -8   6   42.20    8.50
  -8  10   6   57.89   15.60
  -2  -8   6   52.09    8.10
  10  -2   6   67.59    7.50
  10  -2   6   67.49    7.00
  -8  10   6   65.29   11.00
  -8  10   6   51.19   17.40
   5   5  -6   77.59   14.30
   5 -10  -6   72.79   10.00
 -10   5  -6   55.09    7.60
 -10   5  -6   68.59    9.80
   5   5  -6   48.90   18.40
 -10   5  -6   71.19   15.40
   5   5  -6   60.39   12.20
  10  -5   6   55.39    6.20
  10  -5   6   58.79    8.10
  -5  10   6   72.09   14.40
  -5  10   6   61.99   11.60
  -5  -5   6   54.79    9.40
  -5  10   6   69.59    8.60
  10  -5   6   51.79    8.00
   2 -10  -6   -4.60   16.10
   8   2  -6   -1.10    6.20
   8   2  -6    8.90   11.10
   8   2  -6    1.60    8.20
   8   2  -6   19.40   16.40
   8   2  -6    0.90    6.00
   2 -10  -6   -7.00    8.60
 -10   8  -6    9.50    7.90
 -10   8  -6   11.40   11.50
  -2  10   6   -1.50    6.90
  -2  10   6   -7.50    9.10
  -2  10   6   -4.00   15.20
  10  -8   6    2.30    9.90
  -2  10   6    9.30    9.70
  -8  -2   6   -7.80    7.00
  -8  -2   6  -15.50   14.30
  10  -8   6    6.70    4.40
  -2  10   6    1.40    5.10
  10  -8   6   -0.20   11.40
 -10  11  -6   28.50   11.20
  11  -1  -6   10.00    9.90
  11  -1  -6    5.60    7.40
  -1 -10  -6   12.50   20.30
  -1 -10  -6   -5.40   10.50
  11  -1  -6    5.50    8.10
 -10  11  -6    6.20   16.10
 -10  11  -6   21.10   10.10
   1  10   6   14.60   12.50
   1  10   6   16.50    6.60
 -11   1   6   17.40   12.50
   1  10   6   13.40    6.80
  10 -11   6   28.70   11.20
 -10  14  -6   75.39    9.80
 -10  14  -6   64.39   12.10
  -4 -10  -6   49.99   12.20
 -10  14  -6   70.49    9.30
  -4 -10  -6   67.39   10.80
   4  10   6   83.39   10.60
  10 -14   6   81.09    7.40
 -14   4   6   87.49   11.20
   4  10   6   79.99    9.60
   4  10   6   69.39    8.90
   4  10   6   87.99    8.00
 -10  17  -6   25.90   10.30
  -7 -10  -6  -20.80   12.50
 -10  17  -6    9.80   10.40
 -17   7   6   -7.70   13.40
 -17   7   6   -4.60   10.80
   7  10   6    1.50    7.90
   7  10   6    0.50    9.80
   7  10   6    7.00    8.80
   7  10   6    2.60   14.40
  10 -17   6   11.00    8.50
 -10  20  -6   -3.70   13.60
 -10  20  -6   23.40   12.50
 -10 -10  -6   21.10   13.80
  10  10   6   17.70    9.40
 -20  10   6   37.10   15.40
  10  10   6   45.90   12.60
  10  10   6   21.90   11.20
  10  10   6   21.40   11.60
  -8  19  -6   -5.80   12.50
  -8  19  -6    5.50   10.50
  11   8   6   -1.90   10.40
 -19  11   6  -27.20   22.60
 -19  11   6    7.70   14.10
  11   8   6   -6.90    8.80
  -5  16  -6  -12.00   10.00
 -11  -5  -6  -23.70   17.40
  -5  16  -6   -3.50    8.00
  16 -11  -6    7.80    8.10
 -11  -5  -6   -8.70    7.80
 -16  11   6   16.80   26.10
 -16  11   6   10.80   10.70
  11   5   6    2.60    6.50
  11   5   6   -1.20    8.90
   5 -16   6    0.30   11.30
 -16  11   6   -6.20   10.10
 -16  11   6  -11.60   13.30
  11   5   6   10.40    9.40
  13 -11  -6   -3.90    7.50
  -2  13  -6   -8.00    7.10
 -11  -2  -6    3.40    7.30
  13 -11  -6   -1.30    9.30
 -11  -2  -6   12.40   14.40
  -2  13  -6    8.00    8.20
  11   2   6   11.50   19.00
   2 -13   6   -4.20    7.30
 -13  11   6   -9.60   13.40
 -13  11   6    8.90   10.50
  11   2   6   12.10    6.70
 -13  11   6   10.60   21.70
 -13  11   6   -1.60   16.10
   2 -13   6    7.50    7.50
 -13  11   6  -21.60   12.40
  11   2   6   12.30    6.60
   2 -13   6   -2.20    9.80
   2 -13   6   16.60    7.80
 -11   1  -6   15.30    7.80
 -11   1  -6    8.00    8.80
  10 -11  -6   30.80    9.50
   1  10  -6   30.10    7.70
   1  10  -6   28.10    8.10
  10 -11  -6   17.80    9.40
   1  10  -6   26.50    7.50
 -11   1  -6   14.50   13.20
  11  -1   6   30.10    5.50
 -10  11   6   26.40   14.90
  -1 -10   6   12.90    6.80
 -10  11   6   11.50   16.50
  11  -1   6   48.00   14.30
 -10  11   6   30.60   13.60
  -1 -10   6   35.50    9.30
 -10  11   6   12.30   10.80
  11  -1   6   23.40   11.30
  11  -1   6   22.90    7.00
 -11   4  -6   -5.50   11.10
   4   7  -6    7.40   13.70
   4   7  -6   -5.50    4.70
 -11   4  -6  -13.30    8.50
   7 -11  -6    3.90    8.70
   7 -11  -6  -30.70   18.10
   4   7  -6    2.20    7.20
  -4  -7   6    0.90    6.50
  -7  11   6    5.70   11.90
  -7  11   6   11.60    8.20
  11  -4   6   -2.50    5.70
  -7  11   6  -17.70   11.10
  11  -4   6   -1.40    6.60
  -4  -7   6   10.00    7.70
  11  -4   6   -0.30    4.60
  -7  11   6  -14.60    8.60
  11  -4   6   -5.10    8.90
   7   4  -6   -1.10   10.30
   7   4  -6   -1.10   13.00
 -11   7  -6  -10.80   10.70
   7   4  -6   14.70    6.40
   4 -11  -6    7.70    7.30
   4 -11  -6    5.30    8.60
   7   4  -6   13.50   19.30
 -11   7  -6   -7.90    7.20
  -7  -4   6   -5.20    6.50
  -4  11   6    8.80    9.00
  11  -7   6    3.00    8.00
  11  -7   6    3.50    6.60
  -4  11   6   -4.10   20.70
  -4  11   6   13.60    8.60
  -4  11   6    9.70   12.00
  11  -7   6   -3.60    4.30
  11  -7   6   -1.90   11.60
   1 -11  -6   25.70   21.30
 -11  10  -6   24.50   12.60
 -11  10  -6    8.80    9.30
  10   1  -6   21.40    9.20
   1 -11  -6   33.10    8.80
   1 -11  -6   41.30    9.30
  10   1  -6   33.40   12.20
  -1  11   6   28.20   10.90
  -1  11   6   25.00    5.50
  11 -10   6   44.70   12.40
  11 -10   6   35.00   12.00
  -1  11   6   38.80   10.30
 -10  -1   6   22.60    8.10
 -10  -1   6   23.10   15.40
  11 -10   6   16.20    5.40
  -1  11   6   28.90    7.00
  -2 -11  -6    8.10   10.90
 -11  13  -6   21.90   10.40
 -11  13  -6    5.20   10.30
  13  -2  -6   -9.30   10.00
  13  -2  -6   11.40    8.00
 -11  13  -6    9.30   10.10
  13  -2  -6    7.90    7.00
   2  11   6    0.70   12.70
 -13   2   6   21.70   11.90
   2  11   6   22.70    6.90
   2  11   6   12.90    7.50
  11 -13   6   -1.70   13.00
 -13   2   6   25.00    8.70
   2  11   6    6.20    6.40
  11 -13   6    8.40    6.30
 -11  16  -6   22.50   10.20
  -5 -11  -6   -6.20   13.10
  16  -5  -6   -3.40    8.10
  -5 -11  -6  -20.80   10.30
 -11  16  -6    1.20   10.50
  11 -16   6    2.70    6.90
 -16   5   6   -9.30    9.20
   5  11   6    9.70    8.20
   5  11   6    2.90   11.30
  -8 -11  -6  -15.40   15.20
 -11  19  -6   -5.50   11.50
  19  -8  -6    5.50    9.70
 -11  19  -6    3.20   12.60
  -8 -11  -6   25.60   13.00
   8  11   6   10.80   11.00
   8  11   6    6.80   18.70
   8  11   6    7.20    9.10
 -19   8   6   32.70   12.80
  11 -19   6   22.40    8.40
  -9  21  -6    3.90   16.80
  -9  21  -6  -19.40   12.90
 -12  -9  -6    3.10   15.80
  12   9   6   14.80   12.00
  -6  18  -6   -0.80    9.60
  18 -12  -6    4.70    8.50
 -12  -6  -6  -12.30   20.90
  -6  18  -6  -20.90    9.60
  12   6   6    5.20    9.50
  12   6   6   15.60    7.90
  12   6   6   -3.10    9.00
  12   6   6  -10.50   11.10
  -3  15  -6   30.50    9.30
 -12  -3  -6   20.90   15.40
  -3  15  -6   26.00    8.10
  -3  15  -6   13.40    8.90
 -12  -3  -6   24.30    8.40
 -15  12   6   13.90   15.10
   3 -15   6   21.40    5.80
 -15  12   6    8.20   13.20
  12   3   6   18.40    7.90
  12   3   6   27.10    7.40
 -15  12   6   27.50   10.70
 -15  12   6   18.40   18.60
 -15  12   6   12.50   15.70
   3 -15   6   17.50    6.70
   3 -15   6    6.70   11.50
   0  12  -6    6.70    7.90
  12 -12  -6   15.40    9.70
 -12   0  -6  -10.90   13.40
  12 -12  -6    8.80    8.40
   0  12  -6   -2.10    7.30
 -12   0  -6    1.90   10.50
 -12  12   6    3.30   12.00
  12   0   6   -7.20   15.60
   0 -12   6   -0.90    5.80
  12   0   6    0.00    5.90
 -12  12   6   -5.40   14.60
 -12  12   6    5.90   19.30
   0 -12   6   -2.30   10.90
  12   0   6   10.90    6.20
 -12  12   6   19.00    9.20
   0 -12   6   -4.50    9.20
   9 -12  -6    1.60   17.50
   9 -12  -6   35.20    9.70
   3   9  -6   38.70    6.60
 -12   3  -6   30.90    9.80
   3   9  -6   30.30    7.10
 -12   3  -6   37.70    8.60
  12  -3   6   23.50   11.90
  -9  12   6   35.20   11.20
  12  -3   6   39.20    6.60
  12  -3   6   41.10    6.20
  -9  12   6   29.40    9.40
  12  -3   6   44.20    8.30
  -9  12   6   51.89   13.10
  -3  -9   6   46.20    7.80
   6   6  -6  -14.30   18.10
   6   6  -6    9.50    7.60
   6 -12  -6   -8.70    8.70
   6 -12  -6   37.40   20.30
 -12   6  -6   12.40    9.90
   6   6  -6   -6.00    5.10
 -12   6  -6    9.00   10.40
   6   6  -6   -3.60   20.90
   6   6  -6   -6.20   13.00
 -12   6  -6    4.50   10.20
  12  -6   6    2.60    7.60
  -6  12   6    1.40    8.80
  -6  12   6   -5.60    7.30
  -6  -6   6    4.90    9.10
  -6  12   6   -1.10    9.80
  12  -6   6   -3.50    6.40
  12  -6   6   -6.50    4.00
  12  -6   6    4.40    9.00
  -6  12   6  -11.00   13.30
  -6  -6   6    2.40    5.80
   9   3  -6   26.60    8.10
   3 -12  -6   24.90   10.40
   9   3  -6    2.90    7.70
 -12   9  -6   12.70   11.90
 -12   9  -6   30.00    8.80
   9   3  -6   24.20   11.20
   3 -12  -6   19.30    7.30
   9   3  -6   18.50   10.90
   9   3  -6   18.90    5.90
   9   3  -6   15.30   14.10
  -3  12   6   26.40    8.30
  -9  -3   6   15.80    6.70
  -3  12   6   11.10    9.90
  12  -9   6   26.40   12.10
  -3  12   6    9.00    6.30
  12  -9   6    7.70   10.40
 -12  12  -6   17.20    9.80
   0 -12  -6   22.30   10.50
   0 -12  -6   15.10   22.70
  12   0  -6   16.50    6.90
 -12  12  -6    5.10   16.90
  12   0  -6   11.40   11.60
  12   0  -6    7.60    8.40
  12 -12   6   23.70    5.80
   0  12   6    8.90   12.00
 -12   0   6   21.40    8.50
 -12   0   6   36.60   14.40
  12 -12   6   33.60   15.10
   0  12   6   27.00    6.60
   0  12   6   13.20    7.00
  15  -3  -6   12.80    8.60
 -12  15  -6   21.70   12.40
 -12  15  -6    7.30   11.10
  -3 -12  -6   18.10   11.70
  -3 -12  -6    5.70   12.60
   3  12   6   20.50    8.00
  12 -15   6   24.00    6.60
   3  12   6   15.00    8.40
  18  -6  -6   14.10    9.60
  -6 -12  -6   -6.00   11.60
 -12  18  -6   10.60   11.50
 -12  18  -6   20.50   12.80
   6  12   6   -0.80   16.10
  12 -18   6    3.20    8.70
 -18   6   6   23.50   12.50
   6  12   6   -0.60    9.00
   6  12   6  -13.70   10.10
   6  12   6  -13.30    9.80
 -12  21  -6    6.60   14.20
  21  -9  -6   -4.90   11.20
   9  12   6   -7.90    9.00
 -13  -7  -6   -9.80   12.80
  20 -13  -6    3.30   10.90
  -7  20  -6  -15.40   12.10
  -7  20  -6  -12.60   10.30
 -20  13   6   -3.10   18.40
 -20  13   6   -6.70   15.80
  13   7   6   -1.00   11.60
  13   7   6   19.20    9.00
  17 -13  -6   11.10    9.50
  -4  17  -6   14.10   10.00
  -4  17  -6    1.50    8.80
  -4  17  -6   14.00   10.20
 -13  -4  -6   -1.00   19.30
  13   4   6   -3.30   11.80
  13   4   6    4.80    8.00
 -17  13   6   -1.80   21.10
   4 -17   6    6.30   12.70
 -17  13   6    9.60   13.10
 -17  13   6    8.20   11.00
 -17  13   6    3.60   16.70
  13   4   6   17.70    7.60
  13   4   6  -11.10   10.40
 -13  -1  -6   20.00   13.70
  -1  14  -6   11.50    8.60
 -13  -1  -6   26.10    9.50
  14 -13  -6   40.20    8.90
  -1  14  -6   34.40    9.70
 -13  -1  -6   30.90   10.90
  -1  14  -6   30.10    9.50
   1 -14   6   31.40    8.40
 -14  13   6   12.10   14.70
 -14  13   6    5.60   15.60
 -14  13   6   29.30   12.20
   1 -14   6    8.00   11.40
  13   1   6   21.80    7.10
  13   1   6   33.80    7.90
   1 -14   6   16.10   14.20
  13   1   6   48.20   19.60
  11 -13  -6   19.70    9.80
   2  11  -6   17.60    7.10
 -13   2  -6    5.50    9.50
 -13   2  -6   13.10    7.70
 -13   2  -6    5.60   14.50
   2  11  -6   11.80    7.20
  11 -13  -6   -1.30    7.80
  13  -2   6   21.00    9.20
  -2 -11   6   14.50    6.60
  13  -2   6   15.80    6.20
 -11  13   6    9.60    7.80
  -2 -11   6   34.20    9.60
  13  -2   6   12.70   14.40
 -11  13   6    1.00   12.30
  13  -2   6   21.20    6.70
 -11  13   6    7.80   12.10
 -13   5  -6   13.60   13.80
 -13   5  -6   -2.20    7.90
   5   8  -6  -27.30   22.90
   5   8  -6    4.00   16.50
 -13   5  -6   20.20    9.90
   8 -13  -6    2.10   21.00
   5   8  -6    8.40    8.20
   8 -13  -6   24.50    9.40
   5   8  -6   -7.20    5.90
  -8  13   6   11.90   14.10
  -8  13   6    4.30    8.60
  -5  -8   6    1.40    8.20
  13  -5   6    0.40    5.50
  -5  -8   6    6.10    7.50
  -8  13   6   -8.70    7.30
  13  -5   6    9.20    6.70
  13  -5   6    6.50   10.40
  -8  13   6    0.60    9.30
   8   5  -6   -8.00    6.40
   8   5  -6   20.30   14.40
   8   5  -6    2.30   23.90
 -13   8  -6    6.00    9.70
 -13   8  -6  -20.70   10.00
   8   5  -6   17.70   13.50
   8   5  -6   -0.30    6.60
  -5  13   6   13.90    9.20
  -5  13   6   -9.90    8.60
  -5  13   6  -10.40    6.80
  13  -8   6   13.70    8.50
  -8  -5   6    2.00    7.90
  13  -8   6   -5.60    6.80
  13  -8   6   -2.90    5.00
  13  -8   6    9.00    8.10
 -13  11  -6   17.30   13.10
   2 -13  -6    0.40   21.30
  11   2  -6   26.80    6.40
  11   2  -6   23.10   14.60
  11   2  -6   21.40   10.30
  11   2  -6   28.10    7.90
   2 -13  -6   16.10    8.40
   2 -13  -6   18.60    9.60
  -2  13   6   34.90   10.70
  13 -11   6   22.50   17.00
  13 -11   6   13.90   12.50
  13 -11   6   21.50    5.60
  -2  13   6   26.60    7.20
 -13  14  -6  -15.00   10.70
 -13  14  -6    5.60   15.70
  14  -1  -6   -0.80    6.90
 -13  14  -6   12.60    9.40
  14  -1  -6   -5.60    8.90
  14  -1  -6  -18.00   11.80
   1  13   6    9.00   13.20
   1  13   6   -9.70    7.70
   1  13   6   -2.80    7.80
  13 -14   6   -7.30    5.80
 -14   1   6   10.20   16.00
  -4 -13  -6    7.00   13.10
 -13  17  -6    9.10   10.60
  17  -4  -6    8.90   10.00
 -13  17  -6   -1.30   11.60
   4  13   6    1.20   10.10
  13 -17   6   13.20    7.60
   4  13   6   20.30    8.10
 -17   4   6    1.10    9.80
   4  13   6   10.40    8.60
 -13  20  -6   -6.10   12.40
 -13  20  -6  -31.60   17.40
  -7 -13  -6   -1.10   13.70
 -20   7   6   21.90   14.20
   7  13   6   -3.00   11.80
  13 -20   6   -7.70    8.80
  -5  19  -6   19.40   10.30
  -5  19  -6   -7.10   11.00
  19 -14  -6   17.60   11.20
 -14  -5  -6   -2.60    9.00
  -5  19  -6    6.60   11.70
 -19  14   6   40.40   16.30
 -19  14   6   16.90   14.60
  16 -14  -6    9.80    9.30
 -14  -2  -6   13.70   14.30
  -2  16  -6   28.50   10.70
  -2  16  -6   19.40    8.30
  -2  16  -6   15.40   10.10
 -14  -2  -6   10.50    8.80
  14   2   6    4.50   10.00
  14   2   6    1.80    8.60
 -16  14   6   18.30   16.20
   2 -16   6   23.90    7.80
  14   2   6    3.40    7.60
 -16  14   6   19.70   14.10
  14   2   6   10.00    7.40
 -16  14   6   -2.00   12.50
 -16  14   6   13.00   14.70
   1  13  -6   33.10    9.80
  13 -14  -6   26.40    9.10
 -14   1  -6   43.20   11.10
   1  13  -6   29.90    8.90
   1  13  -6   31.90    8.30
 -14   1  -6   34.60   10.00
 -14   1  -6   16.00   14.20
 -13  14   6   14.20   17.40
  -1 -13   6   48.50   12.60
 -13  14   6   25.80   13.70
  14  -1   6   26.90    7.20
 -13  14   6   21.70   13.70
  14  -1   6   27.80    6.80
  14  -1   6   52.79   16.30
 -13  14   6   24.90    8.80
   4  10  -6    5.20    7.50
   4  10  -6   -2.60    7.10
  10 -14  -6    6.20    8.70
   4  10  -6   -1.10    8.40
 -14   4  -6   12.80    9.30
 -14   4  -6   -5.00    9.70
  14  -4   6    3.10   12.40
  14  -4   6   13.00    5.90
 -10  14   6   -8.70   14.80
  -4 -10   6   10.60    7.60
 -10  14   6    7.70   10.30
 -10  14   6  -13.90    8.50
  -4 -10   6   -9.60    8.70
  14  -4   6    6.80   13.40
 -10  14   6  -11.80    8.20
 -14   7  -6   42.30    9.90
   7   7  -6   28.50   18.70
   7   7  -6   30.20   16.20
   7 -14  -6   20.10    8.40
   7   7  -6   25.60    6.50
 -14   7  -6   34.80   11.00
 -14   7  -6   36.30   12.00
   7   7  -6   20.80    8.10
   7   7  -6   -4.10   25.60
  14  -7   6    8.60   10.40
  -7  14   6   47.60    8.90
  -7  14   6   31.00    8.60
  -7  -7   6   37.00    7.90
  -7  14   6   32.30    7.80
  -7  14   6   21.60   11.20
  14  -7   6   32.20    8.10
  -7  14   6   40.80   11.90
  10   4  -6  107.89    7.90
   4 -14  -6   87.39    9.00
  10   4  -6   78.49   14.30
 -14  10  -6   73.19   13.20
  10   4  -6   95.09   10.50
  10   4  -6   77.29   13.20
 -14  10  -6   79.29   10.80
  -4  14   6   86.09   10.10
  -4  14   6  109.99    9.70
  14 -10   6  106.19    7.60
  -4  14   6  100.49   10.60
  14 -10   6   96.29   11.50
 -10  -4   6   88.59    9.50
  -4  14   6  104.69    8.60
 -14  13  -6   -3.00   10.40
   1 -14  -6   12.60   12.50
  13   1  -6  -13.90    9.10
   1 -14  -6   13.60   10.80
 -14  13  -6  -15.60   15.80
  13   1  -6   -2.40    7.30
  13   1  -6    5.70   13.50
  14 -13   6   17.40   18.40
  14 -13   6   11.40    6.50
 -13  -1   6    8.00    9.50
  -1  14   6   -2.60   11.50
  -1  14   6    1.70    7.50
  -1  14   6  -10.30    8.00
 -14  16  -6   25.60   13.00
  -2 -14  -6   44.00   13.90
 -14  16  -6   52.09   10.80
  16  -2  -6   42.40    8.30
  -2 -14  -6   41.80   13.90
  16  -2  -6   29.60   10.60
   2  14   6   48.00    9.30
  14 -16   6   43.90    7.80
   2  14   6   31.30    8.80
   2  14   6   55.29   11.00
 -14  19  -6   -5.30   14.50
  19  -5  -6   -1.00   10.00
  -5 -14  -6   13.40   14.00
 -14  19  -6   26.60   12.70
  -5 -14  -6   28.30   18.60
  14 -19   6   13.60    8.90
 -19   5   6   32.30   11.20
   5  14   6    5.20    8.70
  18 -15  -6  -11.60    9.60
  -3  18  -6   -9.70    9.30
  -3  18  -6   15.80   11.00
   3 -18   6    2.80   14.80
  15   3   6   -8.00   13.50
  15   3   6  -10.10    8.00
 -18  15   6  -19.10   16.00
 -18  15   6  -21.90   12.80
  15   3   6   -8.90    8.40
  15   3   6   16.90   10.80
 -15   0  -6   35.50   10.40
  15 -15  -6   17.80   10.60
   0  15  -6   29.00    9.40
 -15   0  -6   45.30   14.10
   0  15  -6   37.70    9.20
   0 -15   6   20.20   15.20
   0 -15   6   50.49   13.30
 -15  15   6   42.90   13.60
  15   0   6   26.80    7.70
  15   0   6   42.60    7.40
 -15  15   6   37.10   14.90
 -15  15   6   29.70   11.70
  15   0   6   26.90    6.90
 -15  15   6   23.30   15.00
  15   0   6   52.49   19.20
 -15   3  -6    7.20   14.80
   3  12  -6   16.70    8.20
 -15   3  -6   15.00    9.90
   3  12  -6   12.70    7.50
  15  -3   6    5.10    6.00
 -12  15   6   10.80   15.90
 -12  15   6    3.40   12.30
  -3 -12   6    4.90   10.30
  -3 -12   6   18.20    5.60
  15  -3   6   14.00    7.30
 -12  15   6   -5.70    9.30
  15  -3   6    3.00    6.80
  15  -3   6   21.50   12.70
 -12  15   6    9.00   14.20
 -12  15   6   17.30    9.50
   6   9  -6    8.20    6.10
   9 -15  -6    3.00   23.90
 -15   6  -6   -1.90   18.10
 -15   6  -6   11.00    9.60
   6   9  -6   -2.10    8.60
 -15   6  -6    9.60    9.60
   9 -15  -6   -3.30   11.60
  -9  15   6   -5.40    7.80
  -9  15   6   -6.90    8.90
  15  -6   6   11.40    7.30
  -6  -9   6   -8.20    8.90
  15  -6   6  -13.80   12.50
  -9  15   6    5.00    9.40
  -9  15   6   -9.90    7.70
  15  -6   6  -22.20   10.30
  -6  -9   6    7.60    8.40
 -15   9  -6   14.80   10.20
   9   6  -6    9.70   16.30
   6 -15  -6    8.60    8.30
   9   6  -6    8.00    6.50
   9   6  -6   28.00   12.90
   9   6  -6   -5.50   14.40
   9   6  -6  -13.90   16.80
   9   6  -6   -5.60    7.60
 -15   9  -6   30.90   11.50
  -6  15   6    3.90    8.50
  15  -9   6   10.40    5.80
  -9  -6   6   17.40    9.00
  15  -9   6   13.40    6.20
  -6  15   6   23.70    8.30
  -6  15   6   23.60   10.10
  -6  15   6    9.70    9.60
  15  -9   6   25.40    8.60
  -6  15   6   12.60    9.10
 -15  12  -6   -7.20    9.90
 -15  12  -6   25.70   14.20
  12   3  -6    2.10    7.90
   3 -15  -6    5.20    6.70
  12   3  -6    5.90   12.60
  -3  15   6    5.20    8.10
  -3  15   6   24.10   10.50
  15 -12   6    8.50    9.10
 -12  -3   6   11.80    7.90
  15   0  -6   -6.70    9.60
 -15  15  -6    3.40   10.70
 -15  15  -6   -5.60   11.90
  15   0  -6   14.90    7.70
  15   0  -6   11.50   13.70
   0 -15  -6  -15.30   13.90
 -15   0   6  -10.00    9.20
  15 -15   6    2.10    7.00
   0  15   6   18.10    9.30
   0  15   6    4.60   18.50
   0  15   6    1.70    9.00
 -15  18  -6   17.50   11.80
  -3 -15  -6  -23.50   15.50
  -3 -15  -6  -15.90   15.70
  18  -3  -6    3.30   11.20
 -15  18  -6   -4.90   12.80
   3  15   6   -4.00    8.30
   3  15   6   22.60   10.60
  15 -18   6  -10.90    8.40
 -16  -4  -6   -0.80   10.80
  -4  20  -6   -3.20   12.60
  20 -16  -6   15.80   16.80
  -4  20  -6   18.40   13.00
  16   4   6   -0.10   15.20
   4 -20   6  -11.70   22.50
 -20  16   6   24.90   15.60
 -20  16   6   -5.00   17.80
  -1  17  -6   18.50   10.60
  -1  17  -6   18.90    9.60
  -1  17  -6    4.70   10.00
 -16  -1  -6   14.20    9.90
  17 -16  -6    0.20   10.70
   1 -17   6   33.10   13.10
 -17  16   6   40.20   16.90
 -17  16   6   35.60   13.50
  16   1   6   30.90    9.30
  16   1   6    5.00   26.20
 -17  16   6   -5.60   14.20
  16   1   6   21.30    7.80
 -16   2  -6   56.49   12.70
  14 -16  -6   65.19   11.10
 -16   2  -6   55.89   15.50
 -16   2  -6   63.49   11.10
   2  14  -6   63.49   11.80
   2  14  -6   43.80    9.10
   2  14  -6   69.69   10.80
 -14  16   6   39.20   11.40
  16  -2   6   44.30    7.60
 -14  16   6   66.09   16.40
 -14  16   6   35.90   12.10
  16  -2   6   74.59    9.00
  16  -2   6   80.69   15.80
 -14  16   6   52.89   16.60
  16  -2   6   62.89    8.30
 -16   5  -6    7.40    9.50
   5  11  -6   14.30    8.90
  11 -16  -6    3.60   11.80
   5  11  -6   -3.50    7.50
   5  11  -6    1.90    8.50
 -16   5  -6   11.60   11.40
 -11  16   6    3.20    8.60
 -11  16   6    1.30    9.40
 -11  16   6   28.00   20.40
 -11  16   6    7.90   10.20
  16  -5   6   -6.30    5.70
 -16   8  -6    1.10   15.30
   8   8  -6    0.50    8.00
   8   8  -6  -27.00   17.10
   8   8  -6   -3.90   31.90
   8 -16  -6    5.20   11.00
   8   8  -6    4.90    7.80
 -16   8  -6    6.00   10.80
 -16   8  -6  -12.20    9.30
  16  -8   6    4.60   10.10
  -8  -8   6   -1.90    8.10
  16  -8   6   12.20    7.90
  -8  16   6   14.60    9.70
  -8  16   6    1.60   10.20
  16  -8   6   -1.30    5.50
  11   5  -6    6.30    7.40
  11   5  -6   26.80   15.50
 -16  11  -6    1.70   11.10
  11   5  -6   12.10    8.40
   5 -16  -6   19.70    9.40
  -5  16   6    8.40    8.50
  -5  16   6   -0.30    9.10
  16 -11   6    2.70    9.00
  16 -11   6    1.10    5.80
  -5  16   6    6.30   10.30
  -5  16   6   11.30    8.30
 -11  -5   6    5.50    9.20
  14   2  -6   26.40   18.00
  14   2  -6   27.90   11.40
  14   2  -6   18.70    8.20
 -16  14  -6   34.10   18.40
   2 -16  -6   41.10   13.70
   2 -16  -6   23.40   13.20
 -16  14  -6   32.30   11.40
 -14  -2   6   11.50    8.10
  -2  16   6   16.10    7.90
  -2  16   6   16.00   15.00
  -2  16   6   -0.50    9.10
  17  -1  -6    3.10   11.80
  17  -1  -6    6.70    9.10
 -16  17  -6   23.60   10.30
  -1 -16  -6   19.50   14.50
   1  16   6   -8.00    9.20
  16 -17   6   10.80    7.60
   1  16   6    8.40    9.20
 -16  20  -6   -2.90   16.70
  20  -4  -6   14.50   13.60
  -4 -16  -6   12.10   18.10
   4  16   6   21.00   11.60
 -20   4   6   12.20   14.20
  -2  19  -6   20.50   12.80
  -2  19  -6   -3.70   11.00
  19 -17  -6   13.40   12.50
  -2  19  -6   12.00   13.50
 -17  -2  -6   17.10   10.70
 -19  17   6   -4.80   19.10
  17   2   6   15.20    9.80
 -19  17   6  -12.80   15.90
  16 -17  -6   11.90   11.50
   1  16  -6   14.90   10.80
 -17   1  -6   12.80   11.80
 -17   1  -6  -14.40   14.20
   1  16  -6   -4.90   10.40
   1  16  -6    8.10   10.10
 -16  17   6   25.80   10.70
  17  -1   6   13.60    9.00
  17  -1   6    2.70    7.70
 -16  17   6   36.80   15.60
 -16  17   6   19.00   14.50
   4  13  -6   21.60    8.60
  13 -17  -6   -3.30   11.90
 -17   4  -6   39.40   12.70
   4  13  -6   20.20    8.90
 -17   4  -6   11.80   16.40
  17  -4   6    9.40    7.20
 -13  17   6    7.10   10.20
 -13  17   6   39.10   19.10
  17  -4   6   22.10    8.50
 -13  17   6    2.50   13.20
  -4 -13   6   28.70   11.00
   7  10  -6   13.10    9.20
   7  10  -6   15.40    8.50
 -17   7  -6   -4.70   10.60
   7  10  -6    2.50    7.70
  10 -17  -6   30.10   15.70
 -10  17   6   20.80   11.10
 -10  17   6    3.40    9.80
  -7 -10   6   -7.30    9.10
  17  -7   6   26.40    8.50
  17  -7   6    9.20   12.70
 -10  17   6    6.80    9.30
 -17  10  -6    9.00   11.40
 -17  10  -6    8.10   11.70
   7 -17  -6   12.10   11.10
  10   7  -6   19.20   16.80
  17 -10   6    1.80    6.10
  -7  17   6  -13.70    9.90
  -7  17   6    7.40   10.10
   4 -17  -6   23.60   11.40
  13   4  -6   13.00   14.90
 -17  13  -6   -8.20   15.50
  13   4  -6   10.40    7.80
  13   4  -6   -6.30   15.50
 -17  13  -6    1.60   12.30
  -4  17   6   18.30   10.40
  17 -13   6   11.80    6.30
  -4  17   6   16.60   11.20
  -4  17   6    6.20    8.90
 -17  16  -6    4.60   10.50
  16   1  -6    5.70   13.40
 -17  16  -6  -10.40   13.90
  -1  17   6   21.00   10.80
  17 -16   6   21.50    7.80
  -1  17   6    8.20    9.00
  -2 -17  -6   10.10   18.50
 -17  19  -6  -12.30   18.50
 -17  19  -6    1.90   11.40
  19  -2  -6  -11.40   13.60
  19  -2  -6  -17.00    9.40
  17 -19   6    4.70   10.80
 -19   2   6   19.00   13.20
  18 -18  -6   15.10   13.40
 -18   0  -6    5.90   10.40
   0  18  -6    0.80   11.10
   0  18  -6    8.00   11.10
   0  18  -6    4.30   13.50
 -18  18   6  -11.60   16.50
  18   0   6   -6.10   11.50
 -18  18   6   35.60   17.60
   3  15  -6   12.50   10.80
 -18   3  -6   34.90   15.40
 -18   3  -6   26.70   11.60
  15 -18  -6   38.30   12.70
   3  15  -6   36.40   11.00
   3  15  -6   21.10   10.40
 -15  18   6   32.90   24.40
  -3 -15   6   39.30   14.40
 -15  18   6   22.60   13.90
  12 -18  -6  -10.30   13.90
   6  12  -6   -6.90   10.00
   6  12  -6   10.90   10.10
 -18   6  -6  -10.20   12.20
   6  12  -6    1.30    6.80
 -18   6  -6   12.10   12.10
  18  -6   6    2.10    8.50
 -12  18   6    1.90   11.10
  -6 -12   6   -9.80    9.80
  18  -6   6   -7.20    8.10
 -12  18   6    4.20   11.30
 -12  18   6    2.60   11.30
   9   9  -6   17.80    9.40
   9   9  -6   17.00   18.80
   9   9  -6   13.90   10.40
   9 -18  -6   12.50   13.00
 -18   9  -6   22.90   12.30
  18  -9   6   12.90    6.00
  -9  18   6   15.10    9.50
  -9  18   6   21.20   11.00
  -9  -9   6   27.20   10.10
  18  -9   6    6.20    9.30
  -9  18   6   22.00   11.30
  18  -9   6   16.00    9.60
 -18  12  -6   19.10   13.30
  12   6  -6  -12.20   19.80
 -18  12  -6    9.80   13.00
   6 -18  -6   19.70   11.90
  12   6  -6   24.10    8.00
  12   6  -6  -11.40   15.80
  12   6  -6   23.00    9.20
  18 -12   6   23.30    6.70
 -12  -6   6    7.90   10.80
  -6  18   6   23.70   13.60
  -6  18   6   11.40    8.70
  -6  18   6   18.40   11.50
 -18  15  -6  -16.20   22.40
   3 -18  -6   22.00   15.80
 -18  15  -6   12.20   11.70
  15   3  -6    8.10   15.80
  15   3  -6  -13.90   10.50
  18 -15   6   -0.70    7.00
 -15  -3   6    1.70    9.50
  -3  18   6   11.20    8.70
  -3  18   6   -9.50   10.10
 -18  18  -6  -10.10   10.10
  18   0  -6    5.90   16.50
 -18  18  -6   19.10   18.20
  18   0  -6    2.20   10.40
   0 -18  -6  -25.60   15.80
  18 -18   6   -4.20    9.60
   0  18   6    1.10   11.40
   2  17  -6   19.40   11.90
 -19   2  -6   -2.00   11.20
 -19   2  -6   -7.20   15.10
   2  17  -6  -10.00   11.80
 -17  19   6    6.00   16.20
 -17  19   6    0.00   18.40
  19  -2   6   -9.70    9.50
  19  -2   6   -6.80    9.10
 -17  19   6   -2.90   11.30
 -19   5  -6    1.70   13.30
   5  14  -6    9.20   11.50
  14 -19  -6   14.90   13.40
   5  14  -6    5.00   10.80
 -19   5  -6    4.10   12.00
 -14  19   6    6.60   12.10
  19  -5   6   -2.40    7.40
  -5 -14   6   -5.10   11.20
  19  -5   6   11.80    9.30
 -14  19   6   15.90   11.80
   8  11  -6   19.20   10.40
 -19   8  -6   -5.20   11.30
   8  11  -6   -2.40    9.70
 -19   8  -6   34.10   14.30
  11 -19  -6   25.70   14.50
 -11  19   6   19.40   11.90
 -11  19   6    8.70   11.70
 -11  19   6   -8.90   10.00
  19  -8   6    9.20    7.30
  19  -8   6    9.80   12.90
  19  -8   6    8.50    8.30
  11   8  -6   -1.00   19.30
 -19  11  -6    7.80   12.20
  11   8  -6    4.80   11.00
 -19  11  -6   21.30   15.00
  -8  19   6   24.30   12.60
  -8  19   6   12.70   12.30
 -11  -8   6    8.70   10.50
  -8  19   6   28.40   10.80
  19 -11   6   14.90    7.60
 -19  14  -6    3.60   13.30
 -19  14  -6   -5.70   15.10
  14   5  -6  -12.90   10.50
  -5  19   6   13.00   14.10
  -5  19   6   -3.70   10.20
  -5  19   6    3.50   12.20
 -14  -5   6   20.70   10.80
 -19  17  -6    9.40   15.10
  17   2  -6  -13.60    8.50
  17   2  -6    0.40   18.10
 -17  -2   6    1.40   10.90
  -2  19   6   -3.10   10.70
  -2  19   6  -16.80   13.40
  19 -17   6   -6.60    9.20
 -20   4  -6   -1.60   12.50
   4  16  -6    4.30   11.80
 -16  20   6   16.80   15.30
  20  -4   6    2.40    9.20
  -4 -16   6   59.79   18.20
  20  -4   6   24.60    9.10
 -20   7  -6   10.50   11.50
 -20   7  -6   14.10   14.50
 -13  20   6   29.00   13.80
 -13  20   6   23.00   12.60
  -7 -13   6   -6.50   10.20
 -13  20   6    3.20   17.80
  10  10  -6   -5.20   21.80
  10  10  -6    0.00   11.30
  10  10  -6   -7.10   10.30
 -20  10  -6    2.60   14.60
 -10  20   6   -5.70   13.20
 -10 -10   6  -13.70   10.30
 -10  20   6    2.90   12.60
  20 -10   6  -10.70    6.50
 -10  20   6   -6.00   11.70
  13   7  -6   11.60   14.30
 -20  13  -6   33.20   17.70
  13   7  -6   18.90   19.50
 -13  -7   6    2.40   22.90
  -7  20   6   35.70   13.70
  -7  20   6   17.80   11.00
  20 -13   6   11.00    7.60
 -20  16  -6   -2.40   17.50
  16   4  -6   17.70   22.00
 -20  16  -6   15.10   18.00
  16   4  -6   22.70   11.40
  -4  20   6   15.70   14.40
 -21   9  -6    4.10   13.10
   9  12  -6   26.80   12.10
 -21   9  -6    6.30   15.80
  -9 -12   6   33.10   12.30
 -12  21   6   27.50   12.80
  21  -9   6   17.80    9.00
 -21  12  -6   -0.40   12.50
 -21  12  -6  -17.10   15.30
  -9  21   6    5.30   13.30
  21 -12   6    0.80    7.90
 -12  -9   6    1.50   10.50
   1  -1  -7  314.77   13.80
  -1   0  -7  320.57   15.80
   1   0   7  324.07   17.10
  -2  -1  -7   33.40   10.70
  -2  -1  -7   29.20   10.60
  -1   3  -7   19.00    9.20
  -1   3  -7   35.50   10.10
   3  -2  -7   41.50    7.70
  -1   3  -7   40.50    9.50
  -2  -1  -7   23.30    7.50
   3  -2  -7   31.50   11.10
  -2  -1  -7   24.40    9.10
   3  -2  -7   20.20   14.90
  -3   2   7   30.10    7.40
  -3   2   7   41.80   11.00
   1  -3   7   46.30    6.90
  -3   2   7   36.30    9.60
  -3   2   7   26.40    8.20
   1  -3   7   32.50   10.10
   2   1   7   36.00    7.30
  -3   2   7   16.10   10.00
  -3   2   7   25.10    8.20
   1  -3   7   48.30   11.20
   0  -2  -7  591.04   19.50
   2   0  -7  561.94   19.40
  -2   2  -7  540.15   20.40
   2   0  -7  592.54   20.40
   0  -2  -7  590.84   22.50
   0  -2  -7  583.44   21.40
  -2   2  -7  558.74   20.70
  -2   2  -7  594.84   22.00
  -2   2  -7  594.24   19.60
   0   2   7  610.54   22.00
   0   2   7  599.24   19.50
   0   2   7  556.34   22.40
   2  -2   7  590.84   19.20
  -2   0   7  578.04   20.40
   2  -2   7  568.34   20.40
  -2   0   7  587.44   22.30
  -2   0   7  608.14   20.20
   0   2   7  548.35   21.80
  -3  -2  -7  143.99   11.50
   5  -3  -7  173.28   13.40
  -3  -2  -7  127.49   14.10
  -3  -2  -7  154.28   10.40
  -2   5  -7  141.69   14.70
   5  -3  -7  143.29   17.60
  -3  -2  -7  165.68   15.20
  -3  -2  -7  133.19   11.30
  -5   3   7  168.08   14.80
   3   2   7  138.39   11.20
   2  -5   7  170.08   14.30
   2  -5   7  132.49   14.20
  -5   3   7  135.19   12.20
  -5   3   7  141.09   12.60
  -5   3   7  133.89   10.50
   3   2   7  159.48   11.70
   2  -5   7  159.68   10.00
  -5   3   7  156.78   11.50
   3   2   7  123.19   14.30
   2  -5   7  157.78    8.50
   2  -5   7  128.49   12.80
  -3   1  -7  144.49   12.90
  -3   1  -7  119.99    9.70
   2  -3  -7  134.79   12.40
   1   2  -7  148.79   10.90
   1   2  -7  132.99   12.00
   1   2  -7  123.09   10.00
   2  -3  -7  117.19    9.80
  -1  -2   7  155.28   11.70
  -1  -2   7  123.69   13.80
  -1  -2   7  137.89    9.70
  -1  -2   7  140.09   11.10
   3  -1   7  143.59   13.10
  -1  -2   7  151.08   10.90
  -2   3   7  143.89    8.40
   3  -1   7  136.39   10.30
  -1  -2   7  119.29    9.40
  -2   3   7  136.49    7.20
  -2   3   7  153.18   14.10
  -2   3   7  145.09   12.00
  -2   3   7  161.98   13.20
   4  -1  -7   23.50    8.90
   4  -1  -7   30.00   14.90
  -3   4  -7   24.40   10.60
   4  -1  -7   14.60    5.30
  -3   4  -7    9.80    9.10
  -1  -3  -7    1.40   10.20
  -3   4  -7    5.80   11.60
  -3   4  -7   16.30    6.70
  -1  -3  -7   13.90   11.70
  -1  -3  -7    9.80    7.80
   4  -1  -7   15.90    8.00
   4  -1  -7    3.40    9.80
   1   3   7   31.00   11.70
   3  -4   7   15.60   11.80
  -4   1   7   25.90    9.00
  -4   1   7   13.80    6.30
  -4   1   7    8.40    8.50
   3  -4   7   12.10    5.90
   1   3   7   16.60    7.50
   3  -4   7   16.10    8.70
   1   3   7    7.50    9.90
   1   3   7   17.70    9.10
   7  -4  -7   66.49   15.00
  -4  -3  -7   38.80    9.80
   7  -4  -7   20.70   14.80
  -3   7  -7   41.20   14.50
   7  -4  -7   38.70   11.60
  -4  -3  -7   46.60   13.10
  -3   7  -7   56.99   10.60
  -4  -3  -7   16.30   12.60
  -3   7  -7   25.90   12.60
  -7   4   7   39.20   12.90
   4   3   7   22.00   10.60
   3  -7   7   34.40    6.80
  -7   4   7   40.20   12.80
   3  -7   7   41.30    8.30
   4   3   7   67.69   14.50
  -7   4   7   45.80    8.40
   3  -7   7   39.00   16.60
   4   3   7   32.50   13.50
  -7   4   7   30.30   10.30
   4   3   7   44.40   11.20
   0   4  -7  192.78   13.10
   4  -4  -7  174.98   18.10
  -4   0  -7  165.98   13.30
  -4   0  -7  160.08   13.60
  -4   0  -7  182.08   12.70
   0   4  -7  169.88   13.20
   0   4  -7  153.98   12.50
   4  -4  -7  176.28   13.20
  -4   0  -7  185.68   12.20
  -4   0  -7  158.88   12.30
   0  -4   7  177.28   10.40
  -4   4   7  185.68   12.80
  -4   4   7  161.68   11.40
   4   0   7  184.78   15.10
   4   0   7  162.88   11.50
   0  -4   7  184.08   13.30
  -4   4   7  182.18   15.10
  -4   4   7  192.68   13.40
   4   0   7  196.58   12.10
  -4   4   7  184.38   11.60
   0  -4   7  155.28   13.90
   0  -4   7  204.78   14.50
   1  -4  -7    8.30    6.80
   3   1  -7   11.00    8.20
  -4   3  -7   31.00   10.40
   1  -4  -7   15.20   11.20
  -4   3  -7   11.60    9.10
   1  -4  -7   -1.40    9.40
  -4   3  -7   17.90    7.50
   3   1  -7   10.90    5.70
  -1   4   7   23.70    6.80
  -1   4   7    8.90    8.50
   4  -3   7    5.40    7.50
   4  -3   7   23.60   11.00
  -3  -1   7   18.70    7.00
  -3  -1   7   14.80    9.10
   4  -3   7   10.10    7.80
  -3  -1   7   13.90    8.60
  -1   4   7   32.80   12.30
   4  -3   7    9.90    7.10
  -1   4   7   20.50   10.80
  -4   6  -7  100.99    8.70
  -2  -4  -7   88.19   10.50
   6  -2  -7  105.39   14.60
   6  -2  -7   86.29   15.90
   6  -2  -7   84.69   11.10
  -4   6  -7  103.59   12.70
  -2  -4  -7  104.29    9.60
  -2  -4  -7   64.99   12.50
  -4   6  -7  107.89   18.30
  -4   6  -7   76.79   13.70
  -2  -4  -7   90.19   13.70
  -6   2   7   81.09   12.00
   4  -6   7   70.29   16.90
   2   4   7   68.09    9.90
   2   4   7   91.19   11.90
   2   4   7  100.19   14.90
   4  -6   7   74.09   12.20
   4  -6   7   89.79    8.10
  -6   2   7   93.39   10.30
   4  -6   7   93.19    8.10
  -6   2   7   66.59   12.50
   2   4   7   82.29   17.70
  -5  -4  -7  148.09   16.20
   9  -5  -7  104.79    7.60
  -4   9  -7  103.19   14.90
  -5  -4  -7  132.79   13.60
   9  -5  -7  127.49   14.80
  -4   9  -7   96.09   11.80
   5   4   7  130.09   16.50
   4  -9   7  126.59    8.20
  -9   5   7  125.89   15.90
  -9   5   7  126.99   10.80
  -9   5   7  116.19   15.90
   5   4   7  149.59   17.60
  -9   5   7  128.09   18.60
   4  -9   7  101.89   10.60
   4  -9   7  118.19    8.10
   5   4   7  118.99   17.60
   5   4   7  118.09   14.40
  -9   5   7  117.19   11.20
  -1   6  -7  466.45   19.70
  -5  -1  -7  486.95   20.00
   6  -5  -7  483.55   22.90
  -5  -1  -7  502.25   21.60
  -1   6  -7  481.75   21.60
   6  -5  -7  532.55   21.60
  -1   6  -7  512.25   23.10
  -1   6  -7  532.15   24.20
  -5  -1  -7  479.35   21.00
  -5  -1  -7  514.95   22.30
  -6   5   7  467.25   22.50
   5   1   7  528.35   26.20
   5   1   7  454.15   19.90
   1  -6   7  540.25   22.90
   1  -6   7  519.95   17.60
   1  -6   7  521.65   23.80
  -6   5   7  511.95   21.40
   5   1   7  509.65   19.80
   1  -6   7  470.15   18.80
  -6   5   7  505.75   21.80
   2   3  -7  312.27   15.40
   2   3  -7  299.77   15.20
   3  -5  -7  322.67   17.90
   3  -5  -7  300.97   13.90
   5  -2   7  337.67   14.30
  -3   5   7  311.27   19.30
   5  -2   7  342.97   19.10
   5  -2   7  328.67   13.50
   5  -2   7  320.87   14.10
  -2  -3   7  288.07   15.90
  -2  -3   7  292.67   15.00
  -2  -3   7  328.47   16.00
  -2  -3   7  278.47   16.70
  -3   5   7  301.37   15.40
  -3   5   7  292.97   13.50
  -3   5   7  311.07   12.80
  -3   5   7  309.07   16.40
  -2  -3   7  333.27   15.00
   0  -5  -7   63.99    8.40
  -5   5  -7   45.90   13.60
   5   0  -7   74.19   16.40
  -5   5  -7   77.89    8.50
  -5   5  -7   95.19   10.70
   5   0  -7   68.49   10.50
  -5   5  -7   71.39   13.30
   5   0  -7   83.99   12.60
   0  -5  -7   87.49   12.90
   0  -5  -7   60.09   13.90
  -5   0   7   86.39   10.80
   0   5   7   58.89    8.70
   0   5   7   81.39    7.30
   5  -5   7   70.39    9.90
  -5   0   7   54.59   10.10
   5  -5   7   77.89    8.90
   0   5   7   79.89   11.30
  -5   0   7   68.59   11.50
   0   5   7   48.50   13.10
   5  -5   7   81.59   16.50
  -5   0   7   79.49   12.20
  -3  -5  -7   42.80   11.30
  -5   8  -7   34.10   17.90
  -5   8  -7   45.40   13.50
  -3  -5  -7   26.10   14.20
  -5   8  -7   40.60    8.40
   8  -3  -7   41.60   11.00
   8  -3  -7   37.40   14.70
   3   5   7   44.20   13.10
   3   5   7   41.00   11.70
   5  -8   7   33.00    7.30
  -8   3   7   17.10   12.60
   3   5   7   31.70   14.70
  -8   3   7   23.90    9.50
   5  -8   7   44.70    7.60
   3   5   7   31.50   12.40
  11  -6  -7   72.59   16.30
  11  -6  -7  102.69    9.00
  -6  -5  -7  105.39   16.00
  -6  -5  -7   80.59   15.00
  -5  11  -7   95.29   12.70
  -5  11  -7   79.49    9.20
  -5  11  -7  112.79   11.60
 -11   6   7  111.69   18.30
 -11   6   7   91.39   11.60
   6   5   7   95.59    8.80
   6   5   7   81.09    8.50
   5 -11   7  108.89    8.70
   6   5   7   97.59    8.20
 -11   6   7   81.09   10.50
   5 -11   7  101.39   11.00
   8  -6  -7   49.20   15.80
  -2   8  -7   63.19   10.90
  -2   8  -7   82.29   16.60
   8  -6  -7   63.29   13.80
  -6  -2  -7   84.59   14.80
  -6  -2  -7   86.39   16.40
  -6  -2  -7   60.49   11.90
  -2   8  -7   59.99   13.70
  -8   6   7   67.49   11.40
   6   2   7   69.09   11.80
   6   2   7   93.89   20.10
  -8   6   7   73.29   18.00
   2  -8   7   57.79    7.40
  -8   6   7   62.29   14.80
   2  -8   7   63.09   16.90
   2  -8   7   66.29   12.30
   6   2   7   63.69   11.90
   5  -6  -7   66.59   15.90
   1   5  -7   84.39   12.80
  -6   1  -7  106.79   14.10
   1   5  -7  100.39   14.90
   1   5  -7  104.59   12.60
  -6   1  -7   98.99   11.40
   5  -6  -7  105.79   15.10
  -6   1  -7   74.59   13.70
   1   5  -7  110.29   11.00
   6  -1   7  101.79   11.30
  -5   6   7   88.99   11.50
   6  -1   7  103.39   17.00
   6  -1   7  119.29   11.50
  -5   6   7  113.99   10.30
  -1  -5   7   78.09   11.40
   6  -1   7  119.89   10.20
  -5   6   7   97.49   12.80
  -5   6   7   94.39   16.60
  -1  -5   7   74.59   12.50
  -1  -5   7  113.29   14.80
  -1  -5   7  100.89   13.60
  -5   6   7   84.89   13.60
   2  -6  -7   16.90    6.90
  -6   4  -7   13.10    9.40
   4   2  -7   43.90   13.60
   2  -6  -7   25.10   11.70
  -6   4  -7    2.10    9.80
   2  -6  -7   21.00   13.10
  -6   4  -7   15.30   13.10
   4   2  -7   14.80    8.50
   4   2  -7   17.40    7.20
   4   2  -7   31.10   10.80
   6  -4   7   22.50    8.70
   6  -4   7   41.30   15.00
  -4  -2   7   13.80   10.60
   6  -4   7   17.60    8.20
  -2   6   7   23.20    9.40
  -2   6   7   12.60   12.80
  -4  -2   7   17.20    9.00
  -4  -2   7   19.50   12.00
  -2   6   7   29.90   18.10
  -2   6   7   20.20    7.30
  -4  -2   7   27.20    9.50
  -4  -2   7   38.40   10.30
   6  -4   7   17.20    6.80
  -1  -6  -7   39.20   10.50
  -6   7  -7   60.09   12.10
   7  -1  -7   54.29   10.30
  -6   7  -7   67.29   17.20
  -1  -6  -7   77.89   15.50
   7  -1  -7   71.39    9.80
  -6   7  -7   67.99    8.60
   6  -7   7   55.69    8.60
  -7   1   7   56.49   10.40
   1   6   7   46.60   10.50
   1   6   7   32.10   14.10
  -7   1   7   52.39   13.00
   6  -7   7   44.50    6.40
   1   6   7   50.59   12.80
   6  -7   7   54.19   10.70
   1   6   7   42.20   10.10
  -6  10  -7   26.50    9.20
  10  -4  -7   17.80   12.00
  -4  -6  -7   -6.90   17.00
  10  -4  -7   11.10    8.10
  -4  -6  -7   16.20   14.80
   4   6   7    7.50    5.80
 -10   4   7   11.70   13.10
 -10   4   7   -7.30    9.70
   4   6   7    1.90   17.20
   4   6   7    7.50    6.00
   6 -10   7   19.40    7.60
   4   6   7   21.80   13.30
   6 -10   7   19.50    8.20
  -6  13  -7   57.19    8.70
  -6  13  -7   75.09   13.00
  13  -7  -7   68.69   18.60
  13  -7  -7   52.69    8.40
  -7  -6  -7   56.69   20.80
  -6  13  -7   79.09   10.40
   7   6   7   87.39    9.30
   7   6   7   86.09   14.10
   6 -13   7   69.69   12.60
   7   6   7   63.89    8.00
 -13   7   7   75.09   10.60
   6 -13   7   65.19    7.50
 -13   7   7   59.09   22.50
  -3  10  -7   35.10   12.50
  -7  -3  -7   33.10   13.30
  10  -7  -7   13.20   15.20
  -3  10  -7   41.30    8.50
  10  -7  -7   21.40    7.40
  -7  -3  -7   37.20   13.80
  -3  10  -7   33.40    7.90
 -10   7   7   32.10   18.40
   7   3   7   38.90   14.70
 -10   7   7   17.30   16.10
   3 -10   7   47.00    7.00
 -10   7   7   19.80   11.70
   7   3   7   43.20    7.30
 -10   7   7   41.50   11.80
   3 -10   7   36.40   10.10
   7   3   7   27.30    4.80
  -7   0  -7  231.08   17.90
  -7   0  -7  277.87   19.40
  -7   0  -7  238.38   17.10
  -7   0  -7  245.18   16.70
   0   7  -7  204.48   17.00
   0   7  -7  203.28   17.50
   0   7  -7  248.88   15.60
   7  -7  -7  249.68   16.70
   7  -7  -7  239.48   18.40
   0  -7   7  230.28   19.10
   7   0   7  237.38   14.90
   7   0   7  272.67   16.10
   0  -7   7  215.28   14.40
  -7   7   7  222.98   18.70
   4  -7  -7   24.10   10.00
   3   4  -7   18.00   11.00
  -7   3  -7   24.40   12.90
   4  -7  -7   34.30   13.90
  -7   3  -7   35.70    9.90
   3   4  -7   28.90   10.10
   3   4  -7   41.70   11.50
   4  -7  -7   34.40   16.60
   7  -3   7   47.30    7.80
  -4   7   7   53.09   10.30
  -3  -4   7   51.09   14.50
  -3  -4   7   35.30   11.60
  -4   7   7   53.29    8.30
   7  -3   7   25.30    8.60
  -3  -4   7   46.20   10.00
  -4   7   7   40.40   11.80
   7  -3   7   20.30    9.30
  -7   6  -7  -18.50   12.80
  -7   6  -7   -5.70   11.20
   1  -7  -7    9.70    8.00
  -7   6  -7  -16.00   10.30
   6   1  -7   14.50   15.80
   6   1  -7    7.70    8.90
   6   1  -7    0.40   11.20
   1  -7  -7  -12.30   15.80
   7  -6   7    1.60    8.80
   7  -6   7   -7.30    9.50
  -6  -1   7    7.80   12.00
  -1   7   7    1.10   10.20
  -1   7   7   15.80    9.50
  -1   7   7    8.50   14.30
  -1   7   7   -7.90   14.40
  -6  -1   7   13.70   11.10
  -1   7   7    1.30    8.60
   7  -6   7    1.40    5.40
  -7   9  -7    4.80    7.60
  -7   9  -7   24.20    8.80
   9  -2  -7    2.60    9.40
  -7   9  -7    4.00   14.60
  -2  -7  -7   24.80   14.30
   9  -2  -7   15.00    6.50
  -2  -7  -7   12.20   18.40
   2   7   7   27.80    6.20
   7  -9   7   14.80    6.90
  -9   2   7   34.60   13.50
  -9   2   7   19.70   10.60
   2   7   7   21.70   11.60
   2   7   7   12.90    5.80
   7  -9   7   15.30    9.20
   2   7   7   17.90   13.60
  -5  -7  -7   49.50   18.70
  -7  12  -7   33.10    8.70
  -5  -7  -7   42.30   20.30
  -7  12  -7   28.80    8.20
  12  -5  -7   28.30   15.70
   7 -12   7   41.10    8.20
 -12   5   7   21.20   15.20
 -12   5   7   29.20    9.10
   5   7   7   42.50    7.50
   7 -12   7   36.40    8.40
   5   7   7   44.10    8.20
   5   7   7   21.50    5.80
 -12   5   7   27.60   10.20
  -8  -7  -7   59.49   10.30
  -7  15  -7   58.39   10.10
  -7  15  -7   57.39   15.80
  15  -8  -7   32.10    9.30
  -7  15  -7   62.89   11.60
   8   7   7   39.10    8.40
 -15   8   7   51.99   10.90
   8   7   7   31.90    8.30
   8   7   7   44.10   20.00
   8   7   7   40.10    8.20
 -15   8   7   16.60   14.20
   7 -15   7   47.50   11.40
  12  -8  -7   15.90   19.90
  -4  12  -7   20.30    9.10
  -4  12  -7   17.90   14.20
  -8  -4  -7   47.00   16.60
  12  -8  -7   21.50    8.00
 -12   8   7   15.60   14.20
   8   4   7   39.90    6.80
 -12   8   7   22.40   13.00
   4 -12   7   24.60    6.70
 -12   8   7   39.30   12.00
   8   4   7   27.70    6.90
   8   4   7   36.20    6.50
   8   4   7   27.00   12.00
  -1   9  -7   16.70    6.80
  -1   9  -7   18.40   13.00
  -1   9  -7    8.10   13.80
   9  -8  -7   21.60    6.40
  -8  -1  -7    8.10   15.10
  -8  -1  -7   38.20   14.60
   9  -8  -7   25.90   18.80
  -9   8   7   -4.20   12.30
   1  -9   7   32.00    9.70
   8   1   7    7.60   11.60
  -9   8   7   -0.50   16.40
  -9   8   7   21.80   12.80
   1  -9   7    7.20    9.80
   1  -9   7   -7.10   13.70
   8   1   7   18.90    6.40
   2   6  -7   14.60   12.50
  -8   2  -7   37.50   11.10
   2   6  -7   19.10   12.70
   6  -8  -7   36.80   18.90
   6  -8  -7   10.50   15.90
  -8   2  -7   23.50   15.60
  -8   2  -7   18.20   14.50
   2   6  -7   29.20   12.20
  -6   8   7   14.30   13.00
   8  -2   7   12.10    8.20
  -2  -6   7   41.50   14.60
  -2  -6   7   34.40    9.50
   8  -2   7   45.90   12.20
  -6   8   7   30.60    9.50
   8  -2   7   22.30   12.60
  -6   8   7   27.40   12.40
  -6   8   7   43.20   11.50
   5   3  -7  -10.80   10.10
   5   3  -7    3.40    8.50
  -8   5  -7  -11.80   14.30
   5   3  -7   -4.50   11.10
  -8   5  -7    4.90   10.50
   3  -8  -7    5.40   17.20
   3  -8  -7   -0.90    6.70
  -5  -3   7    6.50    9.60
   8  -5   7   17.60    9.00
   8  -5   7   -9.30    8.40
  -3   8   7   -4.20   15.00
   8  -5   7    2.80    6.10
  -3   8   7   -6.80   11.70
  -3   8   7    6.50    8.00
  -3   8   7    1.60   11.90
  -3   8   7    6.00   10.80
  -5  -3   7   13.50   14.90
  -5  -3   7   -9.60   15.10
   8   0  -7  177.68   11.60
  -8   8  -7  210.18   15.20
   8   0  -7  183.18   16.50
  -8   8  -7  216.58   14.70
   0  -8  -7  215.58   20.20
   8   0  -7  201.08   13.20
   0  -8  -7  172.58   16.70
   0   8   7  211.98   14.30
   0   8   7  177.28   12.90
   8  -8   7  187.68    8.40
   8  -8   7  198.68    9.00
   0   8   7  197.18   14.80
  -3  -8  -7  -19.10   16.60
  -3  -8  -7    7.70    7.40
  -8  11  -7    0.70    8.90
  11  -3  -7    0.40    7.60
  11  -3  -7    0.70   11.50
  -8  11  -7   22.70   10.30
   3   8   7   -4.30   12.90
   3   8   7    8.60    5.70
   3   8   7    9.30   19.10
   8 -11   7   10.30    6.10
 -11   3   7   -3.40   10.20
   3   8   7   13.30    6.30
 -11   3   7   -5.10    8.60
   8 -11   7    4.30    9.20
  -8  14  -7    0.70    8.50
  -6  -8  -7   11.70    9.40
  14  -6  -7  -25.50   18.50
  -8  14  -7   -9.40   10.00
  -6  -8  -7   16.50   12.70
  14  -6  -7   -4.20    8.20
   6   8   7   -7.50   11.80
   6   8   7   12.70    7.70
   6   8   7    8.40    6.50
   6   8   7    2.80    7.20
   8 -14   7    5.80    7.90
 -14   6   7    8.80   17.70
 -14   6   7    8.60    8.90
 -14   6   7    0.50    8.90
   8 -14   7    2.60   12.00
  -8  17  -7   19.00   10.20
  -9  -8  -7   75.39   16.50
  -8  17  -7   37.90   11.80
  -9  -8  -7   47.90   11.60
  -8  17  -7   48.40   18.30
  17  -9  -7   42.90   10.20
 -17   9   7   50.39   12.10
   8 -17   7   26.90   12.90
   9   8   7   50.79    8.90
   9   8   7   25.60    8.20
 -17   9   7   36.00   16.90
   9   8   7   30.50   10.80
  14  -9  -7   -5.80    8.00
  -5  14  -7   -0.60    9.50
  -5  14  -7   -4.10    8.90
  14  -9  -7   10.30   22.80
  -9  -5  -7   22.70   19.30
 -14   9   7   -0.10    9.70
   9   5   7   -5.40    6.40
   9   5   7    3.10    7.90
 -14   9   7    4.60   17.80
 -14   9   7   -2.00   12.00
 -14   9   7   12.70   11.50
   5 -14   7  -16.70   10.30
   9   5   7  -12.50    8.30
  -9  -2  -7    6.70   14.60
  -2  11  -7   12.20    8.10
  -9  -2  -7    8.20    6.80
  -9  -2  -7    0.20    8.90
  11  -9  -7   -1.60   17.80
   9   2   7    9.70    5.20
   9   2   7    1.30    6.50
 -11   9   7   -1.80   13.40
   9   2   7    0.30   15.60
   9   2   7  -10.50    6.10
   2 -11   7    2.70    8.30
   2 -11   7    4.80   14.10
 -11   9   7   -5.70   14.10
  -9   1  -7   66.79   14.30
  -9   1  -7   54.59   17.40
  -9   1  -7   87.59   16.60
   8  -9  -7   68.99   19.50
   1   8  -7   50.49   15.50
   9  -1   7   69.19   11.20
  -8   9   7   83.69   15.80
  -8   9   7   73.59   12.10
  -8   9   7   80.69   16.30
  -1  -8   7   73.39    9.40
   9  -1   7   69.99    8.10
  -8   9   7   83.99   19.00
  -8   9   7   84.09   12.40
   4   5  -7   33.00   11.60
  -9   4  -7   48.30   10.00
   4   5  -7   37.60   12.70
   5  -9  -7   26.20   18.60
   5  -9  -7   39.10    7.60
   4   5  -7   32.40   20.30
  -9   4  -7   63.29   16.60
   4   5  -7   54.09    5.20
  -9   4  -7   42.80   20.90
  -4  -5   7   31.80    9.90
   9  -4   7   33.00    7.90
  -5   9   7   15.50   15.00
   9  -4   7   48.70   12.20
  -5   9   7   32.50   11.20
  -5   9   7   46.50   11.60
   9  -4   7   45.40    8.50
  -5   9   7   49.80   16.30
  -4  -5   7   51.49    6.00
  -9   7  -7   46.50    5.70
   7   2  -7   37.70   19.90
  -9   7  -7   53.59   11.70
   2  -9  -7   54.39    8.60
   7   2  -7   64.59   12.00
   7   2  -7   47.20    7.40
  -7  -2   7   39.60   15.30
   9  -7   7   34.30   10.20
   9  -7   7   50.19    5.60
  -2   9   7   40.10   12.20
   9  -7   7   63.99   12.10
  -2   9   7   38.20   13.60
  -2   9   7   55.89   13.50
  -2   9   7   56.39    9.80
  -7  -2   7   56.69    6.90
  -2   9   7   49.80    8.00
  10  -1  -7    0.80    8.70
  10  -1  -7    6.20    9.90
  10  -1  -7    0.60    8.00
  -9  10  -7    4.00    9.60
  -9  10  -7  -24.00   15.30
  10  -1  -7   -8.20    6.20
  -1  -9  -7   10.90    9.00
  -1  -9  -7   -7.90   17.20
   1   9   7  -19.70   16.20
   1   9   7   -6.60    5.70
   1   9   7  -10.50   12.10
   9 -10   7    9.20   10.40
   1   9   7   -4.80    6.70
  13  -4  -7    8.60    7.50
  13  -4  -7   -3.10   14.30
  -4  -9  -7   16.60   20.70
  -9  13  -7    7.50    9.80
  -9  13  -7   19.90   11.00
  -4  -9  -7   29.20   11.70
  -9  13  -7   20.80    8.10
 -13   4   7    4.80   10.80
   9 -13   7    9.80    5.80
   4   9   7   25.10    8.50
   4   9   7    1.10    6.70
   4   9   7   20.40    6.00
   9 -13   7    6.60    4.90
   9 -13   7   24.40    8.60
 -13   4   7   16.60    9.00
  -7  -9  -7   -4.00   11.10
  -9  16  -7    0.20    9.60
  -7  -9  -7    1.70   14.60
   7   9   7   -0.50    7.20
   9 -16   7    1.10   13.70
   7   9   7    2.30   14.80
 -16   7   7  -13.40    9.90
   7   9   7   14.50    8.30
  -9  19  -7   27.60   11.70
  19 -10  -7   12.00    9.70
  -9  19  -7   36.00   11.60
 -10  -9  -7   -1.40   12.80
 -10  -9  -7    5.90   14.20
  -9  19  -7   15.10   12.60
  10   9   7   26.90   12.20
 -19  10   7   24.40   14.40
  10   9   7   23.30    8.50
  10   9   7   21.90   11.10
  16 -10  -7    4.60    8.30
  -6  16  -7    5.20    9.90
 -10  -6  -7   -5.70   22.70
  -6  16  -7   -8.50    9.10
 -10  -6  -7   -6.40    8.10
  -6  16  -7  -12.80   10.20
  10   6   7    3.40    7.10
 -16  10   7    0.50   18.50
   6 -16   7    5.10    9.70
  10   6   7   10.90    9.20
 -16  10   7  -16.30   12.30
  10   6   7    8.00    7.40
 -16  10   7    7.00   12.30
  13 -10  -7  -13.70    7.20
  -3  13  -7   10.10    7.60
  13 -10  -7    3.50    9.50
  -3  13  -7    2.10    8.30
 -10  -3  -7    0.80   15.60
 -10  -3  -7   -8.40    7.50
 -13  10   7   26.30   17.40
 -13  10   7    1.90   13.20
   3 -13   7   -0.40    7.00
   3 -13   7  -15.50   14.70
  10   3   7    1.50    6.70
  10   3   7   12.10    7.30
   3 -13   7   -7.00    9.60
 -13  10   7  -13.50    9.30
 -10   0  -7   37.90   14.80
 -10   0  -7   31.40    8.90
   0  10  -7   42.00    8.00
 -10   0  -7   37.80   10.00
   0  10  -7   55.59    9.90
  10 -10  -7   16.90   11.00
   0  10  -7   36.90    8.60
  10 -10  -7   44.00    8.80
   0 -10   7   16.70   12.90
 -10  10   7   43.70   21.50
  10   0   7   44.70    5.60
 -10  10   7   24.30   14.50
 -10  10   7   43.00   13.60
 -10  10   7   25.90   15.60
  10   0   7   21.40   14.80
  10   0   7   30.40    6.10
   0 -10   7   47.90   10.00
 -10  10   7   26.90   16.00
   3   7  -7    1.70    6.00
   3   7  -7   13.70   12.80
 -10   3  -7   -6.20   11.50
   7 -10  -7   -2.70    8.50
 -10   3  -7    0.00    7.00
 -10   3  -7    5.40    6.00
   7 -10  -7   -1.10   19.00
   3   7  -7   -8.70    5.90
  -3  -7   7   10.20    9.10
  -7  10   7    4.10   10.90
  10  -3   7   18.10    8.20
  -7  10   7   -8.50    9.20
  -3  -7   7   10.00    7.50
  -7  10   7  -11.70   16.00
  10  -3   7   15.20    9.20
  10  -3   7   -4.10    5.00
 -10   6  -7   32.10   10.90
   6   4  -7   25.30   13.30
   4 -10  -7   40.40    8.50
   6   4  -7   39.70   21.30
   6   4  -7   31.20    6.30
 -10   6  -7   37.10    6.90
   6   4  -7   32.20   10.90
  10  -6   7   33.30   12.80
  -4  10   7   20.10   16.00
  -4  10   7   34.30    7.20
  -4  10   7   22.10    9.50
  -4  10   7   18.60   10.90
  10  -6   7   26.20    6.40
  10  -6   7   34.60    8.30
  -4  10   7   41.30   13.80
   9   1  -7    3.70   10.70
   1 -10  -7   -7.90    9.00
   1 -10  -7   23.70    9.00
   1 -10  -7  -15.60   17.20
   9   1  -7   10.40    8.60
 -10   9  -7    0.00   12.60
   9   1  -7    9.80    9.00
  10  -9   7    5.40    5.10
  -9  -1   7   10.70   15.30
  10  -9   7   25.80   12.50
  -1  10   7   11.00    6.90
  -1  10   7   -2.90    6.60
  -1  10   7   17.40   11.30
  -1  10   7   13.40   14.40
  10  -9   7   13.60   12.00
  -1  10   7   11.80   15.10
  -9  -1   7    5.40    7.70
  12  -2  -7   -2.40    7.80
  12  -2  -7   11.40   11.00
 -10  12  -7   13.80   10.10
  -2 -10  -7   -9.40   21.30
 -10  12  -7   11.60    9.70
 -10  12  -7   15.20    8.90
   2  10   7   -2.70   13.20
 -12   2   7   23.20    8.70
   2  10   7    1.20    6.80
  10 -12   7   23.60    6.50
  10 -12   7   11.60   10.30
   2  10   7   10.80    6.40
 -12   2   7   14.50   12.80
  -5 -10  -7   10.00   13.10
 -10  15  -7   -1.40    8.80
  15  -5  -7    4.60    8.40
  10 -15   7    5.60    6.20
   5  10   7   15.20    7.50
  10 -15   7   -3.10    5.70
   5  10   7   -4.80    7.60
 -15   5   7   19.20   10.70
   5  10   7   -2.30   11.20
   5  10   7  -10.10    6.60
 -10  18  -7   -5.70   12.30
  -8 -10  -7    9.00   15.20
 -10  18  -7   -3.80   12.10
   8  10   7    5.10   10.50
 -18   8   7   21.60   12.10
   8  10   7   12.10   18.20
  10 -18   7   13.40    7.30
   8  10   7   11.80    9.40
   8  10   7   17.10   10.60
 -11 -10  -7    1.10   15.00
 -10  21  -7   23.40   14.30
  11  10   7   38.60   10.30
  11  10   7   27.00   12.30
  -7  18  -7  -11.20   11.50
  -7  18  -7   -8.50   10.30
 -11  -7  -7  -10.40   12.10
  18 -11  -7    6.90    9.80
  -7  18  -7   -1.90    9.80
 -18  11   7  -16.60   22.80
  11   7   7    2.20   11.10
  11   7   7   12.40    9.90
 -18  11   7  -26.50   12.90
 -11  -4  -7   13.70    7.30
  -4  15  -7   11.50    8.30
  15 -11  -7   31.90   11.50
  -4  15  -7   20.70    9.70
 -11  -4  -7   27.00   17.00
  11   4   7   24.30    8.30
   4 -15   7    8.40   12.00
  11   4   7   26.40    7.70
   4 -15   7   18.90    5.60
 -15  11   7   11.20   12.70
 -15  11   7   16.70   11.20
   4 -15   7   27.30    8.10
   4 -15   7    1.10   11.60
  11   4   7    6.80    9.50
 -15  11   7   40.30   23.60
 -15  11   7   13.20   15.00
  11   4   7   18.40    7.60
  12 -11  -7    8.30    9.00
  12 -11  -7   15.90    9.70
  -1  12  -7   30.20    9.10
 -11  -1  -7   29.60    9.20
 -11  -1  -7   -3.40   14.80
  -1  12  -7   16.80    7.60
 -11  -1  -7    6.60    8.30
  -1  12  -7    7.90    6.90
 -12  11   7    7.50   16.20
  11   1   7   11.90    5.20
 -12  11   7   22.70   14.50
   1 -12   7   15.50    9.10
  11   1   7   14.20    7.40
   1 -12   7   26.50    8.30
  11   1   7   11.20    6.20
 -12  11   7   17.40   11.70
   1 -12   7   11.40   10.90
   1 -12   7   29.00   11.20
 -12  11   7    1.10   19.30
   2   9  -7   41.00    6.80
 -11   2  -7   48.40   14.90
 -11   2  -7   53.59   10.50
 -11   2  -7   43.10    9.20
   9 -11  -7   16.20   10.30
   2   9  -7   34.60    7.70
  -9  11   7   33.20   10.80
  11  -2   7   17.90    9.70
  -2  -9   7   37.50    8.50
  -9  11   7   27.30   12.40
  11  -2   7   33.80    7.30
  -9  11   7   40.20   16.20
  11  -2   7   42.70    6.20
  11  -2   7   29.40   11.60
 -11   5  -7    8.80    8.10
   5   6  -7   -7.80    5.80
   5   6  -7    8.70   12.90
   6 -11  -7  -13.50    7.40
   5   6  -7    1.50    6.50
 -11   5  -7   11.70   10.90
   6 -11  -7  -19.20   19.90
   5   6  -7   -3.80   21.50
 -11   5  -7   -2.00   10.10
  -6  11   7  -10.40   12.80
  11  -5   7    5.60    7.20
  -6  11   7   -9.40   12.20
  -5  -6   7   -4.80    7.20
  -5  -6   7   -8.70    9.30
  -6  11   7   13.20    8.50
  -6  11   7   -9.50    7.30
  11  -5   7   -3.30    8.00
  11  -5   7   -7.10    6.50
  -6  11   7   39.60   22.20
   8   3  -7    3.00    7.00
   8   3  -7   25.40   14.10
 -11   8  -7   20.40   12.70
   8   3  -7   18.70    6.10
 -11   8  -7    2.00    8.30
   8   3  -7   11.10   19.10
   8   3  -7   19.00    9.90
   3 -11  -7   10.00    7.50
  -3  11   7   17.60    9.90
  -3  11   7    8.50    7.00
  11  -8   7   10.40   13.30
  -8  -3   7   19.50    6.80
  -3  11   7    0.00   10.40
  -3  11   7   20.90   17.90
  11  -8   7   15.50   10.20
  11  -8   7   20.20    5.00
 -11  11  -7  -14.20   16.30
   0 -11  -7   12.60   21.60
   0 -11  -7   29.70   10.30
  11   0  -7   -1.70   11.60
 -11  11  -7   -1.00    9.90
  11 -11   7   13.50    5.20
 -11   0   7   10.60   15.20
   0  11   7    8.00    6.90
   0  11   7   -5.00   15.30
   0  11   7    7.10   12.40
  14  -3  -7   22.40    8.20
 -11  14  -7    6.00   10.90
 -11  14  -7   19.60   10.60
  -3 -11  -7    3.60   10.70
 -11  14  -7   -4.10    9.80
  -3 -11  -7   15.90   11.30
 -14   3   7   20.80    8.80
   3  11   7    8.40    6.70
   3  11   7   13.20    8.80
  11 -14   7   -3.40   13.60
 -14   3   7    4.50   12.10
   3  11   7    2.50    6.60
   3  11   7   14.60    9.10
  17  -6  -7   -7.60    8.70
 -11  17  -7   24.40   10.20
   6  11   7   13.90   14.20
   6  11   7    2.80    9.00
   6  11   7   17.00    8.20
   6  11   7    6.60    7.20
  11 -17   7   -6.40    7.70
 -11  20  -7   23.50   14.20
  -9 -11  -7    4.10   16.20
  -9 -11  -7  -20.00   14.40
   9  11   7   -6.80   11.10
 -20   9   7   -3.90   13.50
   9  11   7  -10.60   12.20
  -8  20  -7   -1.80   11.10
 -12  -8  -7    1.50   14.70
  -8  20  -7  -22.90   10.60
 -20  12   7   20.80   15.10
  12   8   7   13.10   10.50
  12   8   7   -2.20   13.20
  -5  17  -7   -5.70   10.10
  -5  17  -7   -0.50    9.90
 -12  -5  -7    3.00    9.20
  -5  17  -7    0.40    8.50
 -12  -5  -7   22.90   20.20
  17 -12  -7   -4.10    8.20
  12   5   7   -1.00    7.20
 -17  12   7  -15.60   27.70
 -17  12   7  -13.40   15.40
   5 -17   7   -2.40   12.30
  12   5   7    3.60    9.10
 -17  12   7   -7.90   12.20
  12   5   7   20.40   10.80
  14 -12  -7   17.00    9.40
  14 -12  -7   18.40    9.50
  -2  14  -7   28.20    8.60
 -12  -2  -7   29.00    8.30
 -12  -2  -7   19.50   15.50
  -2  14  -7   23.60    8.70
  -2  14  -7   27.00    9.10
 -14  12   7   -8.50   18.40
 -14  12   7   13.90   14.50
  12   2   7   26.30    7.20
 -14  12   7   25.20   11.30
   2 -14   7   35.40   11.40
   2 -14   7   11.90    8.80
  12   2   7   27.30    7.00
   2 -14   7   21.00    8.00
  12   2   7   18.80    7.60
 -12   1  -7   12.40   14.20
 -12   1  -7    0.20    8.80
  11 -12  -7   15.50    8.60
  11 -12  -7  -11.10    9.00
   1  11  -7    1.30    7.90
   1  11  -7    1.50    7.10
  12  -1   7    8.90    6.60
 -11  12   7  -13.00   15.20
  -1 -11   7    9.40    7.50
  12  -1   7   11.40    6.40
 -11  12   7   -2.70    8.40
 -11  12   7    6.50   13.30
 -11  12   7    1.70   12.70
 -11  12   7   36.10   15.70
  -1 -11   7   25.40    9.10
  12  -1   7   13.40   15.30
 -12   4  -7   -6.60    8.20
   4   8  -7   -3.10    5.60
   8 -12  -7   -2.90    8.60
   8 -12  -7   14.20   22.80
   4   8  -7    1.00   16.30
 -12   4  -7  -11.70    9.30
 -12   4  -7    4.10   15.10
  -8  12   7   -0.50    7.80
  12  -4   7   11.40    8.00
  -8  12   7    2.80   13.80
  -4  -8   7  -11.60    5.70
  -4  -8   7    0.60    8.40
  12  -4   7  -12.50   10.30
  12  -4   7   -4.90    4.20
  -8  12   7   -4.00   10.30
  -8  12   7    3.90    9.20
   5 -12  -7    5.60   10.20
   7   5  -7   -0.60   12.60
   7   5  -7   13.90   25.30
   5 -12  -7   -7.10    7.60
 -12   7  -7   10.60    9.20
  -5  12   7    6.30    9.60
  12  -7   7    5.60    8.40
  -5  12   7    4.40    6.50
  -7  -5   7    9.30    7.90
  -5  12   7   -2.60    7.00
  12  -7   7    7.50    7.80
  -5  12   7    4.50   10.40
  -5  12   7    6.20   26.60
  10   2  -7   21.60    8.50
  10   2  -7   30.40   14.50
 -12  10  -7   36.30    8.90
 -12  10  -7   23.90   13.90
   2 -12  -7    2.50    9.00
  10   2  -7   15.90    6.40
   2 -12  -7   24.00   21.50
  -2  12   7   17.80   10.40
  -2  12   7   12.90   11.20
  12 -10   7    6.60   14.20
  -2  12   7   20.00    7.20
  12 -10   7   16.40   13.60
 -12  13  -7   -6.30   14.20
  13  -1  -7  -18.40   12.40
  13  -1  -7    5.20    8.60
 -12  13  -7   11.70    9.90
  13  -1  -7   17.00    7.10
  -1 -12  -7   28.10   10.80
 -12  13  -7   -8.10   10.40
  -1 -12  -7   10.70   28.60
  12 -13   7    3.90   15.60
  12 -13   7   15.50    5.90
   1  12   7    4.60    7.00
   1  12   7   23.30   15.60
   1  12   7    9.10    7.10
   1  12   7   -0.30   13.70
  -4 -12  -7  -15.90   11.30
 -12  16  -7    3.50   12.90
  16  -4  -7  -17.20    8.60
 -12  16  -7   -9.60   10.00
   4  12   7  -16.80   10.50
   4  12   7   -1.70    6.90
   4  12   7   -9.30    8.00
 -16   4   7   19.00    9.80
  12 -16   7  -13.10    6.90
 -12  19  -7    1.10   13.30
 -12  19  -7   12.00   11.90
  -7 -12  -7    5.30   12.60
  -7 -12  -7   -3.50   16.10
  12 -19   7    7.90    8.80
   7  12   7   25.50    9.40
 -19   7   7   19.50   13.10
   7  12   7   -5.10   11.10
   7  12   7   22.60   11.80
  -6  19  -7   12.60   11.60
  19 -13  -7    4.70    9.60
  -6  19  -7   -9.00   11.70
 -13  -6  -7   11.80    9.30
  13   6   7   16.90    9.00
 -19  13   7   17.70   14.00
  13   6   7    0.70    9.80
  13   6   7    9.70   10.80
 -13  -3  -7   12.50   16.60
  -3  16  -7  -12.20    9.30
  -3  16  -7   -2.30    9.10
  -3  16  -7   16.30    9.00
 -16  13   7    5.20   11.30
  13   3   7    6.20   11.60
   3 -16   7    6.20    7.00
  13   3   7    6.10    6.80
  13   3   7    1.30    7.30
 -16  13   7    7.10   14.70
 -16  13   7    0.10   20.50
   3 -16   7  -22.80   12.90
 -16  13   7   12.00   15.00
  13   3   7   -0.30    7.70
   0  13  -7    7.00    8.80
  13 -13  -7    5.80    8.70
   0  13  -7   11.20    8.00
  13 -13  -7   -7.30   10.10
 -13   0  -7   11.90    8.80
 -13   0  -7   -1.10   15.70
   0  13  -7   22.40    8.60
 -13  13   7   31.80   16.80
  13   0   7    9.30   18.30
   0 -13   7   11.30    6.10
 -13  13   7   22.90   10.90
 -13  13   7   -6.30   10.50
   0 -13   7   13.30   14.00
   0 -13   7   -9.90   12.40
  13   0   7    8.30    6.50
   0 -13   7   27.50   13.90
 -13  13   7   16.20   14.40
  13   0   7    4.60    6.40
   3  10  -7   -6.10    6.80
 -13   3  -7   -9.20    9.10
  10 -13  -7   -5.90   10.80
   3  10  -7  -14.20    6.40
   3  10  -7   11.90    9.00
 -13   3  -7   -5.00    9.20
  10 -13  -7   -4.50    9.30
 -10  13   7    7.90    9.00
 -10  13   7    4.80    8.90
  13  -3   7   -6.70    5.50
  -3 -10   7  -11.90    7.40
  13  -3   7  -14.80    8.60
  -3 -10   7   10.50    9.50
  13  -3   7   13.90   15.10
 -10  13   7   10.00   11.80
  13  -3   7  -10.60   11.80
 -10  13   7   -2.80   14.90
 -13   6  -7   16.30    8.30
   6   7  -7    0.90    5.90
   6   7  -7   11.40   27.40
   6   7  -7    9.80   15.10
   6   7  -7   49.70   30.30
   6   7  -7   -3.10    7.40
 -13   6  -7   25.20   12.80
   7 -13  -7   34.40   22.30
 -13   6  -7   21.20    8.90
  13  -6   7    7.50    8.20
  13  -6   7   16.30   10.10
  13  -6   7   13.00    6.30
  -7  13   7   11.20    9.80
  13  -6   7    7.40    4.90
  -7  13   7   18.60    7.00
  -6  -7   7    0.40    6.90
  -7  13   7    6.70   10.10
  -7  13   7    7.50    6.50
   9   4  -7   94.39    7.50
   4 -13  -7   80.89    9.40
   9   4  -7  100.29   13.00
 -13   9  -7   74.89   13.40
   4 -13  -7   82.39   11.40
  -9  -4   7  106.29    9.50
  -4  13   7   77.09    9.40
  -4  13   7  102.49   11.50
  13  -9   7   86.89   11.10
  13  -9   7  101.59    7.20
  -4  13   7   97.79    9.50
  -4  13   7   91.59   10.90
 -13  12  -7   -7.40   16.80
 -13  12  -7    0.30   10.80
  12   1  -7   22.60   13.60
   1 -13  -7   11.50   21.70
  12   1  -7    2.30    9.70
  12   1  -7   -9.00    6.50
 -12  -1   7   -1.40    8.20
  -1  13   7  -13.80    9.30
  -1  13   7   -7.70   12.80
  -1  13   7    4.30    6.70
  13 -12   7    0.00    5.80
  13 -12   7  -23.50   17.40
  -2 -13  -7    2.10   13.50
  -2 -13  -7   -9.30   11.90
 -13  15  -7  -10.60   10.60
  13 -15   7    8.40    6.20
   2  13   7    1.20    8.40
   2  13   7   -9.00    7.70
  -5 -13  -7    0.90   13.70
 -13  18  -7  -13.90   12.70
  18  -5  -7  -13.10    9.70
 -18   5   7    7.20   11.70
  13 -18   7   -5.20    8.00
   5  13   7    1.60   10.40
   5  13   7    5.20    9.40
   5  13   7   -3.90    9.00
  -8 -13  -7   29.80   15.70
  -4  18  -7    7.70   11.20
  18 -14  -7    8.20   10.00
  -4  18  -7    2.10   11.10
  -4  18  -7   -8.10   10.30
  14   4   7    3.90   11.50
  14   4   7   -9.30    8.30
   4 -18   7   19.00   14.00
 -18  14   7   39.70   16.50
 -18  14   7   -4.80   13.10
 -18  14   7  -11.20   20.40
  14   4   7    9.30   12.40
  14   4   7   17.20    9.60
  -1  15  -7   11.60   10.10
  -1  15  -7    4.80    8.80
  15 -14  -7   24.20   10.10
 -14  -1  -7   14.90    8.40
 -14  -1  -7   35.90   15.90
   1 -15   7   34.20   11.60
  14   1   7   30.70   25.70
  14   1   7   28.10    8.00
   1 -15   7   18.00   11.20
  14   1   7   18.70    8.20
 -15  14   7   -6.70   16.70
 -15  14   7   16.00   13.50
 -15  14   7   17.30   12.90
 -15  14   7    9.50   18.80
  14   1   7   26.10    7.30
 -15  14   7   35.00   13.00
   2  12  -7   -1.20    8.50
 -14   2  -7  -10.10    9.80
   2  12  -7    8.30    7.50
 -14   2  -7   -0.80    9.40
  12 -14  -7    5.30    9.90
 -14   2  -7   -8.80   14.70
   2  12  -7    7.30    7.00
  14  -2   7   11.40    6.80
  -2 -12   7   -6.00   11.40
 -12  14   7   20.10   10.10
 -12  14   7   -8.80   14.50
  14  -2   7    6.90    6.10
  -2 -12   7    6.70    6.50
 -12  14   7   -3.00    9.10
  14  -2   7  -19.90   16.20
  14  -2   7    7.10    9.70
  14  -2   7   -2.50    7.20
 -12  14   7   -1.10   15.60
 -12  14   7   -4.40   13.80
   5   9  -7    3.80    7.10
   5   9  -7   -8.30    8.20
 -14   5  -7   -5.40    7.60
   9 -14  -7    0.80    9.40
   5   9  -7   -7.60    6.80
 -14   5  -7   10.00    9.00
  -9  14   7   -1.40   10.10
  -9  14   7  -14.50    6.80
  14  -5   7   -0.10   11.70
  14  -5   7    7.30    6.20
  14  -5   7   -6.40    7.60
  -9  14   7    7.10    9.90
  -5  -9   7   -1.50    9.40
  -9  14   7    8.80    7.90
  14  -5   7   13.10    6.10
   8   6  -7    7.10   16.70
   8   6  -7    0.20    7.50
   6 -14  -7   -5.80   10.00
   8   6  -7    1.80   13.90
 -14   8  -7    0.10    9.90
 -14   8  -7    8.10    9.20
  14  -8   7  -16.90    9.10
  -6  14   7   -2.60    7.80
  -8  -6   7   -1.50    7.20
  14  -8   7   -2.80    5.40
  14  -8   7  -13.50    6.90
  -6  14   7   12.10   11.50
  -6  14   7    9.80    9.60
  14  -8   7    2.30    9.10
  -6  14   7    3.10    7.40
  11   3  -7   20.10    6.80
  11   3  -7   21.20    8.40
  11   3  -7   26.50   10.70
   3 -14  -7   11.40    8.60
 -14  11  -7    7.20    8.90
  11   3  -7    8.90   10.60
 -14  11  -7   -8.30   13.90
  11   3  -7   17.70   11.30
  -3  14   7    6.30    7.00
  14 -11   7   20.60    9.80
  -3  14   7   17.00    6.90
  14 -11   7   20.60    5.60
  -3  14   7    4.90   11.30
  -3  14   7   28.90    8.80
  14 -11   7   18.10   13.40
 -11  -3   7   28.20    8.70
  14   0  -7  -12.60   11.00
  14   0  -7   10.10    7.60
 -14  14  -7   11.20    9.80
   0 -14  -7   -9.60   13.90
   0 -14  -7    4.70   12.10
  14   0  -7   -4.70   13.40
   0  14   7   15.10    8.20
   0  14   7   -7.30   14.10
 -14   0   7   14.10    9.30
  14 -14   7   -9.50   19.40
  14 -14   7    6.80    6.10
  17  -3  -7   12.30    9.80
  -3 -14  -7  -14.10   13.50
 -14  17  -7   -3.90   12.70
  -3 -14  -7   -3.80   13.60
  14 -17   7   23.10    7.60
   3  14   7    5.10    8.10
   3  14   7   -8.50    7.70
 -17   3   7   10.20    9.50
 -14  20  -7   13.50   16.40
  -6 -14  -7   10.50   14.80
  -6 -14  -7   41.00   19.00
   6  14   7    6.10   12.20
   6  14   7   22.10   12.30
   6  14   7   26.70    9.90
  14 -20   7    8.20   10.20
 -15  -5  -7    5.20    9.30
  -5  20  -7    6.40   11.60
 -20  15   7   12.00   17.40
  15   5   7   10.00   11.40
 -20  15   7   23.40   17.60
  15   5   7    9.80   12.70
 -15  -2  -7  -14.20    8.90
  -2  17  -7   -9.90    9.40
 -17  15   7   20.00   15.40
  15   2   7   -4.10    9.80
   2 -17   7    5.40   15.00
  15   2   7  -15.80   12.90
 -17  15   7   22.40   13.00
 -17  15   7  -14.50   19.40
  15   2   7    1.90    7.00
 -17  15   7   -0.80   18.10
  15   2   7   -1.10    7.80
  14 -15  -7   23.20   11.90
   1  14  -7   20.10    8.80
   1  14  -7   48.30   10.30
   1  14  -7   33.10    9.90
 -15   1  -7   43.90   16.60
 -15   1  -7   44.90   13.00
  15  -1   7   26.20    6.70
 -14  15   7   19.30   10.70
 -14  15   7   36.00   30.00
 -14  15   7   35.60   17.90
  15  -1   7   49.50   18.30
  -1 -14   7   21.70   19.00
  15  -1   7   26.50    8.00
  15  -1   7   36.60    7.30
 -14  15   7   49.10   14.40
  11 -15  -7    3.70    9.80
  11 -15  -7   -5.80   11.70
 -15   4  -7   12.60   10.10
  15  -4   7   -0.30    5.70
 -11  15   7    7.60    9.90
  15  -4   7    6.30    5.60
 -11  15   7    1.00    9.90
  -4 -11   7   -0.40    6.60
  15  -4   7  -14.30   13.90
 -11  15   7   -1.70   11.90
  -4 -11   7   -3.10   10.10
   8 -15  -7   12.30   11.30
 -15   7  -7   35.50   15.10
 -15   7  -7   35.60   11.00
   7   8  -7    5.00   32.70
 -15   7  -7   17.20    9.50
   7   8  -7   25.00    8.00
   7   8  -7   28.60    7.20
  -7  -8   7   26.90    8.40
  15  -7   7   35.80    6.10
  -8  15   7   32.10    9.70
  15  -7   7   12.10   11.90
  -8  15   7   24.30   10.90
  15  -7   7   15.80    8.10
  10   5  -7   44.50    8.90
  10   5  -7   16.20    9.40
  10   5  -7   26.60   11.30
 -15  10  -7   19.40   13.10
  10   5  -7   28.50   14.10
  10   5  -7   30.30   15.20
 -15  10  -7   24.80   10.70
  15 -10   7   18.30    9.90
  -5  15   7   47.80    9.90
  -5  15   7   41.90   10.90
  -5  15   7   23.70    8.40
  15 -10   7   37.10    5.60
  15 -10   7   38.90    8.00
  -5  15   7   34.70   10.30
   2 -15  -7    2.30   10.20
 -15  13  -7    5.60   10.40
  13   2  -7   -8.00   11.70
   2 -15  -7    4.00   13.70
  13   2  -7   10.00   15.70
 -15  13  -7    7.70   17.20
  15 -13   7   12.00    9.90
 -13  -2   7   -3.80    7.50
  -2  15   7   14.20   12.80
  15 -13   7    8.80    6.30
  -2  15   7   20.00    8.70
  -2  15   7    8.70    8.90
  16  -1  -7    5.40   12.00
  -1 -15  -7  -13.30   11.20
  16  -1  -7   16.00    7.90
  -1 -15  -7  -22.00   14.40
 -15  16  -7  -12.90    9.90
  16  -1  -7   -1.20   17.20
 -15  16  -7   -9.10   13.80
   1  15   7   22.10   11.30
   1  15   7   -7.50    8.40
  15 -16   7   15.50    7.30
 -15  19  -7   20.20   12.40
  19  -4  -7   20.10   11.60
 -15  19  -7   20.60   15.30
  -4 -15  -7   25.70   16.80
   4  15   7   31.00   11.90
  -3  19  -7    2.40   11.70
 -16  -3  -7   -9.80    9.50
  19 -16  -7  -17.30   11.50
  -3  19  -7   -3.60   10.60
  16   3   7   -9.20   12.90
  16   3   7   17.60   12.70
 -19  16   7   28.70   17.10
 -19  16   7   30.10   15.60
  16   3   7    7.30   13.30
  16   3   7   -1.00    9.20
   0  16  -7    2.80    9.70
   0  16  -7   -9.50    9.70
 -16   0  -7    4.00   13.00
 -16   0  -7   10.00    9.50
  16 -16  -7   -8.20   11.30
   0  16  -7    5.60   10.60
 -16  16   7   12.50   12.30
 -16  16   7   -5.00   18.10
  16   0   7    8.90   22.40
  16   0   7    8.50    7.30
   0 -16   7   10.90   14.20
   0 -16   7  -13.90   14.70
  16   0   7   16.60    8.40
  16   0   7    8.30    7.20
 -16  16   7    7.20   13.90
 -16  16   7    9.90   11.70
 -16  16   7  -10.20   13.60
 -16   3  -7    7.10   17.10
  13 -16  -7   -1.70   10.50
   3  13  -7   19.30    9.10
 -16   3  -7   17.10   10.60
  13 -16  -7    1.90   10.80
   3  13  -7    4.60    8.00
 -16   3  -7   21.70   11.20
   3  13  -7   22.00    8.70
 -13  16   7   10.60   10.90
 -13  16   7   18.30   19.10
 -13  16   7   19.10   14.30
  16  -3   7   18.40    6.60
  16  -3   7   12.30   14.90
 -13  16   7    1.50   10.40
  16  -3   7   19.90    7.60
  -3 -13   7   26.80   12.00
  16  -3   7    5.00    7.20
 -16   6  -7    5.50   11.40
 -16   6  -7   21.80    9.60
   6  10  -7   18.60    8.60
   6  10  -7   17.90    9.10
  10 -16  -7   10.80   11.80
   6  10  -7    3.10    7.80
  -6 -10   7   -0.60    8.50
 -10  16   7    7.60   10.40
 -10  16   7   -8.80    9.10
 -10  16   7   19.40   10.60
  16  -6   7   11.20    7.60
 -10  16   7    9.90   10.30
  16  -6   7   13.20   15.30
  16  -6   7   -7.50   11.40
  16  -6   7   -0.50    6.10
   9   7  -7   -0.40    7.90
   9   7  -7    4.80    6.90
   9   7  -7   -6.80   17.30
   9   7  -7   -3.80   17.30
 -16   9  -7    0.40   10.50
 -16   9  -7   18.30   11.10
  -7  16   7   -3.00    9.00
  -7  16   7    5.20    9.50
  -9  -7   7  -11.80    7.50
  -7  16   7    6.80   15.10
  16  -9   7   -6.00    7.60
  -7  16   7    4.20    9.20
  16  -9   7   -9.10    5.10
  12   4  -7   25.20   13.80
 -16  12  -7    0.00   15.20
 -16  12  -7   17.90   11.20
  12   4  -7   15.40   13.10
  12   4  -7   13.20    9.00
  16 -12   7   -1.70    6.00
  -4  16   7    1.60    8.80
  -4  16   7    8.50   11.30
  -4  16   7    5.90    9.30
 -12  -4   7   12.00    8.50
   1 -16  -7   -4.20   13.60
  15   1  -7   -5.00   13.30
  15   1  -7   21.10   17.90
 -16  15  -7   -1.50   10.50
  -1  16   7  -11.90   18.40
  -1  16   7    2.80    8.90
 -15  -1   7   21.90   10.70
 -16  18  -7    5.30   10.60
  -2 -16  -7   21.50   16.60
  -2 -16  -7    6.10   14.10
  18  -2  -7  -19.90   13.30
 -16  18  -7  -23.20   14.90
   2  16   7   17.10   11.40
   2  16   7    0.50    8.70
   2  16   7   -2.10   10.10
  16 -18   7  -12.40    8.80
  18 -17  -7    7.20   12.40
  -1  18  -7    4.50   10.60
  -1  18  -7    4.30   11.00
 -17  -1  -7   15.80   11.40
   1 -18   7   -4.80   14.90
  17   1   7   -0.30    7.70
 -18  17   7  -20.60   15.50
 -18  17   7   20.10   12.30
 -18  17   7   -2.50   17.50
  17   1   7   13.20   11.20
  17   1   7   27.60   13.50
 -17   2  -7   16.40   14.20
 -15  17   7   -3.20   10.80
 -15  17   7    5.80   19.40
 -15  17   7  -13.10   18.20
  17  -2   7   14.30    7.80
 -15  17   7    2.90   13.00
   5  12  -7   12.50    9.40
  12 -17  -7   23.20   13.00
 -17   5  -7    2.70   19.30
  12 -17  -7    0.40   11.20
   5  12  -7  -11.50    8.80
   5  12  -7    2.90    8.50
 -17   5  -7   -9.90   11.20
 -12  17   7    6.20   11.90
 -12  17   7   14.10   11.10
 -12  17   7   -6.20    9.90
  17  -5   7    6.90    8.60
 -12  17   7   23.00   10.70
  17  -5   7   -4.80    6.00
  17  -5   7   23.20    7.90
   9 -17  -7   -6.10   12.00
   8   9  -7  -15.20   38.20
 -17   8  -7   -3.10   11.00
 -17   8  -7    5.20    9.80
   8   9  -7   20.00    9.70
   8   9  -7   -7.60    8.90
  17  -8   7    0.10   11.40
  -9  17   7   -8.30   11.10
  -8  -9   7    4.40    9.40
  17  -8   7    7.20    8.40
  -9  17   7    4.40   10.10
  17  -8   7    3.40    6.30
  17  -8   7    3.70   11.30
  -9  17   7    2.00    8.60
  11   6  -7   51.79   17.50
  11   6  -7   32.10    7.80
 -17  11  -7   54.89   13.10
 -11  -6   7   44.10   10.90
  17 -11   7   46.30    6.20
  -6  17   7   65.99   11.10
  -6  17   7   26.70   12.70
  -6  17   7   47.40    9.50
  -6  17   7   59.59    9.40
   3 -17  -7  -11.90   12.00
  14   3  -7   28.90   14.00
  14   3  -7  -13.60    8.40
 -17  14  -7  -19.60   11.90
  14   3  -7  -14.90   10.40
 -17  14  -7  -10.40   20.20
  -3  17   7   -0.30    9.20
  -3  17   7   -7.60   15.30
  17 -14   7    6.80    7.50
  -3  17   7    0.30    9.80
 -17  17  -7  -14.20   10.10
  17   0  -7  -20.90   13.60
 -17  17  -7  -24.80   16.40
   0 -17  -7  -13.70   16.80
  17   0  -7  -11.60    8.50
 -17   0   7    0.80   10.10
   0  17   7  -17.80   10.80
   0  17   7  -15.10    8.80
  17 -17   7   -8.70    8.80
   1  17  -7   -9.70   10.50
 -18   1  -7   18.80   10.90
   1  17  -7    9.00   12.90
   1  17  -7    2.70   14.50
 -17  18   7    8.20   16.00
 -17  18   7   -2.40   11.30
 -17  18   7  -13.50   16.00
  18  -1   7   -9.10    9.10
  18  -1   7    8.50   10.00
   4  14  -7   16.40   10.30
   4  14  -7   -2.30    9.90
 -18   4  -7   -3.70   11.20
   4  14  -7   -5.20    9.80
 -14  18   7   -5.50   11.60
  -4 -14   7  -16.70   11.80
  18  -4   7   -4.80    7.10
 -14  18   7    7.90   11.60
   7  11  -7    3.70    8.70
   7  11  -7   -1.10    9.60
 -18   7  -7    1.90   14.20
  11 -18  -7   12.30   10.70
 -18   7  -7   -4.60   11.50
   7  11  -7   12.30    8.90
 -11  18   7   24.70   11.50
  18  -7   7   -6.50   15.50
  -7 -11   7   -7.40    9.70
  18  -7   7   19.80    8.80
 -11  18   7    9.30    9.90
 -11  18   7   10.90   11.00
  18  -7   7   13.40    6.30
  10   8  -7    2.20    9.80
  10   8  -7   12.80   19.40
  10   8  -7   22.90   10.90
  10   8  -7   -3.60    7.90
 -18  10  -7   -6.40   12.50
 -18  10  -7   10.20   11.80
   8 -18  -7  -11.40   12.20
  18 -10   7   13.60    6.70
  18 -10   7   16.00    9.90
  -8  18   7    8.80   11.30
  -8  18   7   11.70    9.90
  13   5  -7   27.10    8.40
   5 -18  -7    8.90   11.20
 -18  13  -7    0.90   13.80
  -5  18   7   20.10   11.10
  18 -13   7   17.20    7.40
  -5  18   7   10.60    9.30
  18 -13   7   31.30   10.10
 -13  -5   7   24.00   11.80
 -18  16  -7   -3.30   13.70
  16   2  -7  -15.20    9.80
  16   2  -7  -15.30   16.60
  18 -16   7   -1.00    8.20
  -2  18   7   21.60   18.00
  -2  18   7   -9.10   12.00
 -16  -2   7    2.80   10.60
  -1 -18  -7   11.40   19.10
   3  16  -7   14.70   19.60
   3  16  -7   16.00   11.30
   3  16  -7   13.80   10.90
 -19   3  -7   -9.70   14.70
  19  -3   7   -0.50    8.80
  -3 -16   7   33.80   28.10
 -16  19   7   -8.10   19.60
 -16  19   7   -7.70   12.40
  19  -3   7   13.20    9.60
 -19   6  -7    1.50   14.30
  13 -19  -7   16.80   14.10
   6  13  -7   23.70   10.90
 -13  19   7   32.10   12.00
  -6 -13   7    8.00   11.80
  19  -6   7   12.60    7.00
  19  -6   7   25.50    8.50
 -19   9  -7   21.50   11.50
   9  10  -7   29.20   10.10
 -19   9  -7    5.30   12.90
   9  10  -7    6.30    8.60
  19  -9   7   19.10    6.40
 -10  19   7   13.00   10.90
  19  -9   7   14.00    9.50
 -10  19   7   -7.30   11.20
  12   7  -7  -29.60   19.00
 -19  12  -7   25.50   13.10
  12   7  -7    2.70   10.40
   7 -19  -7   11.70   11.70
 -19  12  -7   12.20   13.90
 -12  -7   7    6.70   10.50
  -7  19   7   13.80   10.60
  19 -12   7    2.30    6.50
  -7  19   7   -9.60   11.30
   4 -19  -7    0.30   13.80
  15   4  -7   -6.00   18.30
  15   4  -7    3.70    9.00
 -19  15  -7   25.90   17.00
  -4  19   7   -3.30   11.90
   1 -19  -7  -17.30   17.80
  15 -20  -7   22.80   16.50
   5  15  -7    2.70   11.80
 -20   5  -7    5.30   15.60
  -5 -15   7    1.70   14.60
 -15  20   7   -7.60   14.70
  20  -5   7    5.40    8.80
  20  -5   7   -1.40    9.40
  20  -5   7   -5.60    7.50
 -20   8  -7   -7.70   15.00
 -20   8  -7   15.00   12.20
   8  12  -7   -0.10   11.20
   8  12  -7    4.60   10.40
  20  -8   7   15.40   10.20
  -8 -12   7   19.50   15.40
 -12  20   7   13.10   12.20
 -12  20   7   22.80   11.70
  11   9  -7   13.00   21.10
 -20  11  -7  -26.30   14.10
  11   9  -7   -9.80   10.30
 -20  11  -7   24.90   13.20
 -11  -9   7   29.70   14.50
  -9  20   7  -10.50   12.50
  -9  20   7    9.10   13.00
  -9  20   7  -13.70   10.80
  14   6  -7    7.60   11.90
 -20  14  -7  -16.90   15.70
 -20  14  -7  -16.40   12.80
  14   6  -7  -11.30   19.40
  -6  20   7  -15.60   14.10
 -14  -6   7   33.70   13.60
  -6  20   7   11.80   11.20
 -21  10  -7   26.70   17.60
  10  11  -7   -0.40    9.60
  10  11  -7    9.70   10.90
 -11  21   7  -27.10   13.00
 -11  21   7   12.60   15.20
  21 -10   7   -4.70    7.40
 -13  -8   7  -10.30   11.60
   0  -1  -8  375.46   14.20
  -1   1  -8  364.46   15.90
   0  -1  -8  332.37   12.70
   1   0  -8  344.77   16.00
  -1   1  -8  338.57   14.30
   1   0  -8  349.87   15.60
   1   0  -8  330.57   15.00
   0  -1  -8  360.56   17.60
  -1   1  -8  329.27   15.70
  -1   0   8  338.37   14.20
   1  -1   8  353.36   15.60
  -1   0   8  374.56   15.70
   1  -1   8  348.87   17.60
   0   1   8  337.77   13.50
   0   2  -8  232.38   12.90
   0   2  -8  223.28   13.40
   2  -2  -8  240.98   10.20
   0   2  -8  231.58   12.20
  -2   0  -8  243.38   14.40
   2  -2  -8  235.38   12.40
   2  -2  -8  250.87   14.90
   2   0   8  209.48   16.00
  -2   2   8  231.98   16.60
   0  -2   8  208.88   13.00
   0  -2   8  222.98   10.60
   0  -2   8  231.48   13.70
  -2   2   8  207.28   13.20
  -2   2   8  228.28   10.70
  -2   2   8  224.58   10.90
   2   0   8  219.58   13.80
  -2   2   8  223.98   14.80
  -2   3  -8  131.19    9.40
  -1  -2  -8  122.79   12.70
   3  -1  -8  120.49    8.80
   3  -1  -8  123.59   13.50
  -1  -2  -8  121.59   14.40
   3  -1  -8  145.99   10.50
  -2   3  -8  128.69   11.40
  -3   1   8  129.19   10.60
   2  -3   8  152.98   13.80
   1   2   8  113.89   12.50
   1   2   8  122.49    8.70
  -3   1   8  131.59   10.60
   2  -3   8  102.99   12.50
  -3   1   8  122.69   13.60
  -3   1   8  122.39   11.00
   4  -3  -8   55.49   17.40
  -3  -1  -8   58.49   10.40
  -1   4  -8   58.59   11.10
  -1   4  -8   34.90   10.50
   4  -3  -8   55.99   11.40
  -3  -1  -8   59.39   11.80
  -3  -1  -8   41.70    9.00
  -1   4  -8   76.99   13.30
  -1   4  -8   57.29   12.50
  -3  -1  -8   64.79   13.00
   4  -3  -8   49.40    9.60
   1  -4   8   55.59    7.80
   1  -4   8   41.80   12.30
   3   1   8   56.19    9.90
   1  -4   8   42.10   10.00
  -4   3   8   35.80   11.90
  -4   3   8   54.09   10.70
  -4   3   8   56.79   13.50
  -4   3   8   44.90    9.20
   1  -4   8   43.10    8.40
   3   1   8   40.80   13.40
   3   1   8   49.10    9.40
  -4   3   8   66.39   10.90
   1  -3  -8    2.70    7.30
  -3   2  -8  -13.50   10.00
   2   1  -8   -2.80    8.20
  -3   2  -8    3.20    8.80
   1  -3  -8    0.60    9.90
  -3   2  -8    9.60   10.00
  -3   2  -8   14.10    7.90
   2   1  -8    1.10    7.10
   1  -3  -8    2.60   11.60
   2   1  -8   -3.30    9.30
   3  -2   8    1.70    6.90
  -1   3   8   14.30   10.80
  -2  -1   8   12.20   10.60
   3  -2   8   -8.30    8.60
  -2  -1   8  -10.10   11.80
  -2  -1   8   -2.00    8.30
   3  -2   8   -1.00    9.30
  -1   3   8   15.80   12.40
  -1   3   8   -1.10    7.20
  -2  -1   8    6.00    9.20
   3  -2   8  -17.70   10.10
  -2  -1   8    4.50    9.20
  -1   3   8    7.40    9.90
   5  -2  -8   26.70   10.40
  -2  -3  -8   27.00    6.50
  -2  -3  -8    5.70    9.10
   5  -2  -8   29.60   11.80
  -2  -3  -8    9.00   12.80
  -3   5  -8   29.10   13.80
   5  -2  -8   16.40   17.00
  -3   5  -8   18.20    8.00
  -3   5  -8   23.30   10.20
  -2  -3  -8   -3.50   13.00
  -3   5  -8   20.80   14.90
  -2  -3  -8   19.40   12.50
   2   3   8   14.40   15.40
   2   3   8   18.20    9.70
  -5   2   8   23.70   10.00
  -5   2   8   22.60    7.30
   3  -5   8    7.50   13.40
  -5   2   8   16.30   11.70
   3  -5   8   26.60    8.10
   2   3   8    7.00   13.90
   3  -5   8   23.10   10.50
   3  -5   8   18.60    6.40
  -5   2   8   28.80   11.00
   2   3   8   19.50    9.10
  -5   2   8   14.80   14.30
   3  -5   8    5.80   13.70
  -4  -2  -8  139.49   16.70
  -2   6  -8  169.98   14.70
  -2   6  -8  154.58   13.10
  -4  -2  -8  131.59   17.10
   6  -4  -8  143.09   14.10
   6  -4  -8  164.88   15.70
  -4  -2  -8  132.99   11.90
  -4  -2  -8  147.79   15.70
   6  -4  -8  134.09   19.40
  -2   6  -8  117.49   15.60
  -6   4   8  152.48   13.80
   4   2   8  146.99   12.70
  -6   4   8  162.98   12.50
   2  -6   8  145.29   17.70
   2  -6   8  132.09   17.00
  -6   4   8  151.48   16.30
  -6   4   8  123.19   15.40
   2  -6   8  129.89    9.20
   4   2   8  164.38   13.10
  -6   4   8  133.09   12.50
  -4   1  -8   53.49   11.10
   1   3  -8   75.79   10.90
   3  -4  -8   68.79   12.50
  -4   1  -8   79.79   11.40
   3  -4  -8   80.99   11.70
   1   3  -8   68.39   10.30
   1   3  -8   97.19   12.40
  -1  -3   8   74.99   12.50
  -3   4   8   76.19   12.30
  -1  -3   8   87.39   11.40
  -3   4   8   66.69   14.10
  -3   4   8   72.39    9.00
  -3   4   8   86.19   13.90
   4  -1   8   62.99   12.40
  -3   4   8   62.39   13.00
   4  -1   8   70.79    8.90
  -3   4   8   56.89    7.90
  -1  -3   8   67.59   10.70
  -1  -3   8   42.20   14.00
  -1  -3   8   84.59   10.50
   4  -1   8   77.99   10.00
   4  -1   8   55.39   10.40
   4   0  -8   18.00    6.00
   4   0  -8   28.50   17.90
   4   0  -8   12.20   10.70
   0  -4  -8   19.40    8.30
   4   0  -8    8.70    9.30
   0  -4  -8   29.60   10.80
   0  -4  -8   19.30   12.00
   4   0  -8   23.60   10.70
  -4   4  -8    9.50   11.40
  -4   4  -8   10.20   11.30
  -4   4  -8   23.90    9.50
  -4   4  -8   24.70    8.10
   4  -4   8    7.40   12.80
   0   4   8    5.60   14.20
   0   4   8   22.70    9.90
   0   4   8   15.60   12.70
  -4   0   8   25.20   10.10
  -4   0   8   24.40    8.40
   0   4   8   22.60    8.60
  -4   0   8    6.90    9.40
   4  -4   8   14.80    9.50
   4  -4   8   15.40    7.80
  -4   0   8    0.20   10.60
  -4   0   8   29.50   11.30
  -4   7  -8  -13.00   12.40
  -4   7  -8   -3.40    8.50
  -3  -4  -8    5.30   14.00
   7  -3  -8   -0.80   10.30
   7  -3  -8   19.00   15.30
  -3  -4  -8   -2.80    9.10
  -4   7  -8   17.10   16.10
   7  -3  -8   -7.00   17.00
  -7   3   8   18.10   13.40
   3   4   8   14.40   12.90
   3   4   8  -12.90   15.40
  -7   3   8   -1.70   11.90
   3   4   8   -5.00   10.40
  -7   3   8    1.50    6.40
  -7   3   8   22.70   10.30
   4  -7   8   -2.20    7.30
   4  -7   8   -4.50    7.70
   3   4   8   11.40    9.90
  -5  -3  -8   85.69   14.60
  -3   8  -8   89.59   16.10
   8  -5  -8   79.09   20.30
  -5  -3  -8   81.49   12.10
  -5  -3  -8   58.79   15.70
  -3   8  -8   68.39   17.60
   8  -5  -8   89.79   14.00
   8  -5  -8   68.69   17.70
   3  -8   8   89.29    8.30
   5   3   8   60.49   13.00
   5   3   8  113.79   14.60
  -8   5   8   80.69   12.30
  -8   5   8   87.69   15.30
   5   3   8   86.49   18.30
  -8   5   8   86.69   17.10
   3  -8   8   90.59   11.40
   3  -8   8   72.99   15.80
  -8   5   8   79.89   10.30
  -5   0  -8  211.08   16.00
   5  -5  -8  197.28   21.00
   5  -5  -8  220.58   14.90
  -5   0  -8  193.48   15.00
   0   5  -8  188.18   14.70
  -5   0  -8  180.58   15.70
   0   5  -8  212.78   16.30
   0   5  -8  204.18   16.90
   0  -5   8  215.98   12.60
  -5   5   8  203.68   19.70
  -5   5   8  211.48   13.90
   5   0   8  173.78   12.30
  -5   5   8  178.88   12.40
   0  -5   8  169.58   12.70
  -5   5   8  173.68   15.20
   5   0   8  174.58   13.20
   0  -5   8  217.18   17.20
   0  -5   8  202.18   15.90
   3   2  -8   36.50    7.70
  -5   3  -8   44.80   12.00
  -5   3  -8   56.89   10.40
   3   2  -8   53.19   10.00
   3   2  -8   42.40   11.80
   2  -5  -8   62.39   13.30
  -5   3  -8   58.79   10.40
  -2   5   8   62.99   11.70
  -3  -2   8   56.89   11.80
  -2   5   8   50.89   16.40
  -2   5   8   69.59    9.00
  -2   5   8   43.80   13.90
   5  -3   8   56.89    9.70
  -3  -2   8   50.89   10.90
   5  -3   8   55.59    8.40
  -3  -2   8   38.40   10.50
  -2   5   8   47.10   14.60
  -3  -2   8   51.19   11.00
   5  -3   8   49.00   15.80
   5  -3   8   42.60   10.00
   6  -1  -8   11.30    8.90
  -5   6  -8  -16.00    8.80
  -1  -5  -8   -7.10    7.50
  -5   6  -8    2.50   11.00
   6  -1  -8  -24.80   13.70
   6  -1  -8   -7.20   18.60
  -1  -5  -8   12.80   14.40
  -5   6  -8  -25.90   26.80
   6  -1  -8   -1.10   11.10
  -1  -5  -8   -5.20    9.20
  -5   6  -8   14.70   15.20
   1   5   8   -8.40   10.30
   5  -6   8    3.40    7.60
   1   5   8    3.70    8.60
  -6   1   8    7.40   12.00
   5  -6   8   -2.70   11.80
  -6   1   8  -18.60   10.30
   1   5   8   17.40    9.20
  -5   9  -8    7.30   10.20
   9  -4  -8   15.70    7.80
  -4  -5  -8    1.30   16.00
   9  -4  -8    9.40   12.60
  -4  -5  -8   -4.00   11.60
  -9   4   8  -14.20   10.40
   4   5   8   -1.30    5.10
  -9   4   8  -16.90   14.40
   4   5   8   28.30   15.70
   4   5   8    4.70   12.30
   5  -9   8   15.70    8.50
  -9   4   8    4.30   16.20
  10  -6  -8   63.69    9.20
  -6  -4  -8   92.89   14.10
  -4  10  -8   93.09    9.90
  -6  -4  -8   75.39   16.80
  10  -6  -8   72.69   15.30
  -4  10  -8   74.69   10.80
 -10   6   8   69.69   20.20
   4 -10   8   69.79    8.00
   6   4   8  105.49   22.60
   4 -10   8   81.19   11.80
   6   4   8   95.39   24.90
 -10   6   8   78.69   11.50
   4 -10   8  101.09   10.70
 -10   6   8   73.69   20.20
   6   4   8   61.19    8.80
 -10   6   8   76.59   11.70
  -6  -1  -8   44.10   13.70
  -1   7  -8   25.90   13.60
  -1   7  -8   37.60   12.50
  -1   7  -8   33.30   13.50
   7  -6  -8   48.70   14.30
   7  -6  -8   17.20   18.40
  -6  -1  -8   27.30   15.50
  -7   6   8    9.50   13.90
   1  -7   8   53.49   18.70
  -7   6   8   36.60   12.50
  -7   6   8   13.00   30.00
   6   1   8   22.80   10.00
   1  -7   8   26.00   12.50
   1  -7   8   36.20    8.70
   6   1   8   43.60   12.20
   4  -6  -8   41.60   11.70
  -6   2  -8   57.49   12.00
   2   4  -8   63.09   11.70
   2   4  -8   44.00   14.30
   4  -6  -8   52.89   14.10
   2   4  -8   79.09   11.90
   2   4  -8   57.69   12.10
  -6   2  -8   54.29   14.10
  -4   6   8   45.60   13.00
   6  -2   8   76.09   11.20
   6  -2   8   67.79    9.30
   6  -2   8   68.99   10.90
  -4   6   8   42.60   10.20
  -4   6   8   55.29    8.90
  -2  -4   8   32.30   12.00
  -4   6   8   69.39   12.20
  -2  -4   8   57.19   13.00
  -2  -4   8   37.30   13.00
  -6   5  -8    1.30   10.40
  -6   5  -8    4.30   12.50
   1  -6  -8  -13.90   14.10
   5   1  -8   11.20   13.60
  -6   5  -8   17.50   10.60
   5   1  -8    4.40    5.20
   5   1  -8    3.00    9.20
   1  -6  -8    5.90    8.00
   6  -5   8   10.40    9.30
  -1   6   8   19.20   15.70
   6  -5   8    6.60    7.00
  -1   6   8    9.70    6.30
  -5  -1   8    5.60   11.90
  -5  -1   8  -10.50   11.30
   6  -5   8   13.90    9.00
  -5  -1   8    2.20   12.10
  -5  -1   8   14.00    7.40
  -1   6   8   -5.20   11.10
  -1   6   8    2.80    9.00
  -2  -6  -8   -5.20   15.60
  -2  -6  -8   -4.20   11.40
  -6   8  -8    5.00    6.60
   8  -2  -8  -10.10   10.20
  -6   8  -8  -12.50    8.70
   8  -2  -8    2.20   10.40
  -6   8  -8    2.00   13.80
   6  -8   8    8.80    8.70
  -8   2   8    3.90   14.80
   2   6   8    9.00   12.90
   6  -8   8    0.50    6.30
  -8   2   8  -19.70   10.90
   2   6   8    9.40   10.70
  -6  11  -8   23.70   10.20
  -6  11  -8   35.10   13.30
  11  -5  -8   29.50   15.20
  -5  -6  -8   32.50   19.00
  -5  -6  -8   18.40   16.00
  -6  11  -8   35.10    8.80
  11  -5  -8   48.80    8.70
 -11   5   8   33.40   10.30
   5   6   8   17.60    6.30
 -11   5   8   17.60   16.80
   5   6   8   27.10    7.80
   6 -11   8   33.40    9.00
   5   6   8   40.70    8.50
   6 -11   8   36.60    9.50
  -5  12  -8   73.79   10.30
  -7  -5  -8   53.49   19.00
  -5  12  -8   65.29    8.50
  12  -7  -8   67.29    9.40
  -7  -5  -8   32.00   16.50
  12  -7  -8   56.89   17.40
  -5  12  -8   87.99   15.30
   7   5   8   54.29    7.20
   7   5   8   77.29    9.90
 -12   7   8   61.69   14.10
   5 -12   8   62.89    9.20
 -12   7   8   47.60   13.10
  -7  -2  -8   12.70   14.50
   9  -7  -8   -7.50   15.10
  -2   9  -8    7.30    8.10
  -2   9  -8   -2.40   11.60
   9  -7  -8   23.10    7.90
  -7  -2  -8   14.00   12.80
  -2   9  -8    4.40    6.80
  -9   7   8    2.90   16.10
  -9   7   8    4.70   12.10
   2  -9   8   14.30    8.00
   7   2   8    9.20    6.10
   2  -9   8   -8.20    8.30
   6  -7  -8   -8.30   17.00
   1   6  -8   -7.70   14.00
  -7   1  -8    0.90   11.80
   1   6  -8  -16.80   12.50
   1   6  -8   -8.60   11.00
  -7   1  -8    6.80   14.60
   6  -7  -8    9.70   14.90
  -1  -6   8    7.50   13.60
  -6   7   8    1.30    9.50
  -6   7   8   11.10   13.00
  -1  -6   8  -11.00   12.20
  -6   7   8   25.90   13.70
  -1  -6   8    1.90   16.10
   7  -1   8    1.20    8.60
  -1  -6   8   -8.50   16.00
   7  -1   8   -5.60   10.40
  -7   4  -8   31.70   11.10
   4   3  -8   31.00   12.30
  -7   4  -8   27.10   14.80
   4   3  -8   16.30   10.60
   4   3  -8   15.60   19.60
   3  -7  -8   35.10    8.60
   3  -7  -8   26.30   14.30
   4   3  -8    9.00   10.00
  -4  -3   8   29.60   11.10
   7  -4   8   15.70    9.70
   7  -4   8   23.10    9.60
  -3   7   8    8.90   10.50
  -3   7   8   46.40   11.00
  -4  -3   8   25.00   11.40
   7  -4   8   23.00    7.60
  -4  -3   8   21.70   12.30
  -3   7   8   14.00   13.40
  -3   7   8   23.60    7.70
  -7   7  -8  118.29   13.00
   7   0  -8  100.29   10.90
   0  -7  -8  104.09   19.00
   0  -7  -8   83.99   11.30
  -7   7  -8  107.29   11.40
   7  -7   8   94.39   16.00
   0   7   8  104.39   11.60
   7  -7   8   89.89    9.30
   0   7   8  113.69   12.70
  -7   0   8   93.19   16.00
  -7   0   8   91.39   13.70
  10  -3  -8    1.30    7.40
  10  -3  -8   -2.90   11.40
  -3  -7  -8    8.70   25.10
  -3  -7  -8   12.80   15.30
   3   7   8  -19.10   11.90
   3   7   8   26.90   16.20
   3   7   8    3.20    7.10
   7 -10   8   19.20    9.50
   7 -10   8   15.10    7.10
   3   7   8    1.10    6.00
  -7  13  -8   34.00    8.30
  -6  -7  -8   -0.40   19.60
  -7  13  -8   21.60   10.60
  13  -6  -8   37.50    8.90
  13  -6  -8   21.10   18.40
   6   7   8   28.40    6.20
   6   7   8   43.10    7.90
 -13   6   8   49.70    9.80
   7 -13   8   24.70   10.60
 -13   6   8   16.80   11.70
   7 -13   8   41.00    9.10
 -13   6   8   -2.20   19.90
   6   7   8   34.70    8.50
  14  -8  -8   16.80    9.00
  -8  -6  -8   24.10   23.00
  -6  14  -8   10.70    8.60
  -6  14  -8   34.10   11.70
  -6  14  -8   14.90   16.60
  14  -8  -8   31.40   20.30
  -8  -6  -8   12.80    8.40
   8   6   8   25.30    7.50
 -14   8   8   12.40   10.10
 -14   8   8   13.90   14.30
 -14   8   8    4.60   12.40
   8   6   8   25.40    8.50
 -14   8   8   30.30   13.20
  -8  -3  -8   39.50   15.90
  -3  11  -8   39.70   14.10
  11  -8  -8   17.10   18.90
  -3  11  -8   40.40    8.00
  11  -8  -8   25.50    8.10
  -8  -3  -8   25.30    7.60
  -8  -3  -8   22.50   15.90
 -11   8   8   24.80   13.30
   3 -11   8   12.10    7.70
   8   3   8   17.90   21.60
 -11   8   8   31.70    8.50
   3 -11   8   34.60    8.50
   8   3   8   12.70    6.70
   8   3   8   22.20    6.00
 -11   8   8   19.40   14.00
  -8   0  -8   -8.40   14.40
   8  -8  -8    8.20   15.80
   0   8  -8    9.10   12.00
  -8   0  -8   19.70   14.90
   0   8  -8   21.70   16.10
   8  -8  -8    0.80   14.70
  -8   0  -8    9.40    6.20
   0   8  -8    6.00    6.00
  -8   8   8   13.90   15.00
   0  -8   8   16.00    9.70
   8   0   8    4.30    5.60
   0  -8   8    2.40   11.70
  -8   8   8    0.50   16.10
  -8   8   8  -11.00   12.30
   8   0   8    9.90   12.10
   5  -8  -8   20.10   19.10
   3   5  -8   22.50   11.30
   5  -8  -8   56.79   17.00
  -8   3  -8   10.60   10.90
   3   5  -8   33.10   14.20
   3   5  -8   21.80   11.70
  -8   3  -8   25.40   14.60
  -8   3  -8   22.20   18.10
   8  -3   8   16.20    9.50
   8  -3   8   34.30    8.30
  -5   8   8   41.90    9.60
  -5   8   8   19.10   13.10
   8  -3   8   26.30   11.80
  -3  -5   8   40.20   14.30
  -5   8   8   26.00   11.00
   6   2  -8    4.80   10.40
  -8   6  -8   -6.20   11.40
   2  -8  -8    0.50    8.10
   6   2  -8   -2.60   20.40
   6   2  -8   -5.20    7.00
   8  -6   8    8.60    6.20
  -2   8   8   11.00    9.70
  -6  -2   8   -1.10   15.90
  -2   8   8   12.20   12.30
  -2   8   8   11.60   10.80
  -6  -2   8    5.70   13.80
   8  -6   8    7.40   10.50
   8  -6   8   -0.50    9.50
  -2   8   8   17.90   15.30
  -8   9  -8   22.50   10.70
   9  -1  -8    8.00   10.30
   9  -1  -8   24.20    8.20
   9  -1  -8   -5.60   11.30
  -1  -8  -8   11.90    7.40
  -8   9  -8   12.10    9.70
  -1  -8  -8   11.90   14.50
  -8   9  -8   18.50   14.30
   1   8   8   17.60    6.50
   1   8   8   -6.30   12.70
  -9   1   8   14.20    8.30
   8  -9   8   28.20   10.70
  -9   1   8    0.20   12.50
   1   8   8   15.30   13.50
   1   8   8   17.00    7.40
  -8  12  -8   -6.50    8.30
  12  -4  -8    8.30    7.40
  -8  12  -8   -7.70   10.80
  12  -4  -8    6.00   14.30
  -8  12  -8   12.80   10.10
  -4  -8  -8   26.60   10.10
  -4  -8  -8   -7.60   19.10
 -12   4   8    5.20   11.90
   4   8   8    3.50    5.60
   8 -12   8   -6.60   10.00
   4   8   8    7.60    7.40
 -12   4   8   16.00    8.50
   8 -12   8   -4.20    7.00
   4   8   8    9.60    7.60
  -8  15  -8  -19.90   10.90
  -7  -8  -8   15.50   11.60
  -8  15  -8  -14.60    8.30
  -7  -8  -8    1.80   12.20
  15  -7  -8  -16.00   20.70
   8 -15   8    5.80    9.50
   7   8   8    2.70    8.50
 -15   7   8    7.70   11.30
   7   8   8   -5.20    7.50
   8 -15   8    6.10   12.00
   7   8   8    2.90   14.60
 -15   7   8   -5.40   10.90
 -15   7   8   25.00   23.50
  -9  -7  -8   43.70   11.20
  -7  16  -8   37.10    9.70
   9   7   8   18.00    9.50
 -16   9   8   19.30   15.80
 -16   9   8   44.40   12.70
   9   7   8   25.60    9.60
   7 -16   8   38.00   12.50
   9   7   8   18.00    7.30
   9   7   8   20.00    6.60
  -4  13  -8   16.20    7.80
  -4  13  -8   -3.30    9.20
  -9  -4  -8   20.80    8.90
  -9  -4  -8    8.50   18.30
  13  -9  -8    9.30    8.40
  13  -9  -8  -12.40   20.30
  -4  13  -8   19.30    7.50
   9   4   8    3.50    7.20
   4 -13   8   19.80    7.40
   9   4   8   -7.90    6.00
 -13   9   8    2.60   14.00
   9   4   8    4.20    6.80
   4 -13   8   23.00   10.00
 -13   9   8    3.10   16.30
 -13   9   8    8.60   14.40
  -9  -1  -8  -16.00   15.00
  -9  -1  -8   -3.20   15.60
  -1  10  -8    7.70    5.60
  -9  -1  -8  -11.20    7.80
   9   1   8    1.60    5.70
 -10   9   8  -13.80   14.70
   1 -10   8    3.70   14.20
 -10   9   8   -8.20   13.90
   1 -10   8   -5.60   10.10
 -10   9   8  -12.30   18.40
 -10   9   8    8.60   19.70
   1 -10   8   -0.90    9.00
  -9   2  -8    2.20   13.40
  -9   2  -8    4.80   16.50
   2   7  -8   10.90   13.20
   7  -9  -8   14.00    7.40
   7  -9  -8   -3.10   20.20
   2   7  -8   11.40    6.40
  -7   9   8   13.70   16.30
   9  -2   8   11.10   10.50
   9  -2   8    4.30    9.40
  -2  -7   8   21.50   11.00
  -7   9   8   15.40   10.20
  -7   9   8   11.40   13.20
   9  -2   8    7.60    6.00
  -7   9   8   -4.60   17.30
   4  -9  -8   -6.40    8.10
   5   4  -8    3.30   12.50
   5   4  -8    3.30   22.50
   5   4  -8   11.20    4.90
   5   4  -8   -4.50   10.10
  -9   5  -8    5.50    5.80
  -4   9   8   10.40    5.80
   9  -5   8   12.70    9.30
  -4   9   8    3.70    8.60
  -4   9   8  -19.90   14.20
  -4   9   8   -2.20   12.90
   9  -5   8   17.60    7.20
  -5  -4   8    1.60    5.70
  -4   9   8   -6.60   12.40
   9  -5   8   10.30   11.50
  -9   8  -8   11.30   13.40
   1  -9  -8   30.50   13.50
   8   1  -8   -7.80    8.30
   8   1  -8    9.60    5.90
   1  -9  -8   11.90   10.10
   8   1  -8    9.90   11.40
  -9   8  -8   12.30    8.80
   8   1  -8   15.40   11.70
  -8  -1   8    0.60    7.30
  -1   9   8   -4.00    6.90
  -1   9   8    9.70   10.50
  -8  -1   8   12.90   15.60
   9  -8   8   -0.20    5.60
  -1   9   8    5.80    6.10
   9  -8   8   15.60   10.80
  -1   9   8   -2.90   16.20
  -1   9   8   31.00   13.30
  11  -2  -8  -11.50   10.90
  -2  -9  -8   -6.80   10.00
  -2  -9  -8   12.70   19.00
  -9  11  -8    6.20    7.80
  11  -2  -8   22.10   11.70
  -9  11  -8   11.80    9.30
  -9  11  -8   -1.00   10.50
  11  -2  -8   11.90    8.50
   9 -11   8    0.60   11.60
   2   9   8   -4.10   12.10
   9 -11   8    4.70    5.70
   2   9   8   -4.10   18.20
 -11   2   8    8.40   12.60
   2   9   8   10.20    5.50
   2   9   8   18.90    7.00
  14  -5  -8    9.60    8.20
  -5  -9  -8  -18.90   13.30
  -9  14  -8   18.40    9.20
  -9  14  -8    8.10   10.90
  14  -5  -8    6.90   16.30
   5   9   8    1.40    7.40
   9 -14   8    1.60    8.40
   5   9   8    2.30    6.90
 -14   5   8   -2.90   11.60
  17  -8  -8   38.00    9.80
  -9  17  -8   26.80   11.20
  -9  17  -8   21.70   12.10
   8   9   8   27.70    9.00
   8   9   8   32.10    9.60
   8   9   8   45.50    9.10
 -17   8   8   56.49   13.30
   9 -17   8   49.10    8.20
  -8  18  -8    4.20   11.90
  18 -10  -8    8.30    9.60
  -8  18  -8   27.40   12.50
 -10  -8  -8   38.80   13.50
  -8  18  -8   20.50   11.40
 -10  -8  -8   14.20   15.20
  10   8   8   12.30    8.10
  10   8   8   31.00    9.20
   8 -18   8    0.50   13.30
  10   8   8   25.10    9.20
 -10  -5  -8   34.60    7.80
  15 -10  -8   23.20    9.10
  -5  15  -8   36.90   10.30
  -5  15  -8   45.10   10.60
  15 -10  -8   53.29   12.40
 -10  -5  -8   50.49   21.80
   5 -15   8   30.20   11.80
 -15  10   8   20.90   13.10
   5 -15   8   44.30    8.00
 -15  10   8   34.30   12.80
 -15  10   8   36.90   20.00
  10   5   8   29.80    8.60
  10   5   8   31.60    7.60
  10   5   8   31.60    7.30
  10   5   8   41.60    9.50
 -15  10   8   15.50   15.90
 -10  -2  -8    1.20    8.60
 -10  -2  -8   19.50   16.30
  -2  12  -8    1.20    8.60
  -2  12  -8   12.90    8.10
  -2  12  -8    5.80    6.80
  12 -10  -8    4.30    8.40
   2 -12   8   -7.90    7.90
  10   2   8   -3.90    6.10
 -12  10   8   -8.90   16.40
 -12  10   8    8.60   15.30
 -12  10   8   -3.60   11.10
   2 -12   8   -1.40    8.40
  10   2   8    1.60    6.80
   2 -12   8   -4.00   14.80
  10   2   8  -14.20   24.00
   9 -10  -8   -5.70    9.20
 -10   1  -8   11.50    7.80
   1   9  -8   -8.80    6.90
   9 -10  -8  -14.50   10.10
 -10   1  -8   11.40   15.10
 -10   1  -8  -12.80    6.80
   1   9  -8   13.00    6.80
  10  -1   8    3.60   11.10
  -1  -9   8   11.90   10.40
  -9  10   8   -9.50   17.10
  -9  10   8    6.00   17.70
  10  -1   8  -19.60   12.50
  10  -1   8    1.20    5.70
  -1  -9   8  -10.80   15.00
  -9  10   8   -0.70   13.90
  -9  10   8    3.80   12.20
  -9  10   8  -11.00   18.60
 -10   4  -8   -4.30   11.60
   4   6  -8    2.60    6.30
   6 -10  -8    2.10    9.00
 -10   4  -8   12.10    8.60
 -10   4  -8  -14.70    7.90
   6 -10  -8   -1.30   21.20
  -6  10   8   -8.30    6.10
  -4  -6   8    2.90   11.10
  -6  10   8   -0.40    9.80
  -6  10   8   -8.10   18.50
  -6  10   8    4.90   13.60
  10  -4   8    2.90    8.70
  -4  -6   8    5.20    7.00
  10  -4   8   20.50    9.50
  10  -4   8   -1.20    5.40
   7   3  -8   18.40   14.00
 -10   7  -8   13.90   12.20
   7   3  -8    2.00    9.00
 -10   7  -8   11.80    8.40
   3 -10  -8   19.20    8.50
   7   3  -8    7.90   23.80
  10  -7   8    4.80   11.10
  -7  -3   8   20.50    8.10
  -3  10   8   12.30   10.20
  10  -7   8  -17.40   12.50
  -3  10   8    5.10    8.40
  -3  10   8   -2.10    5.50
  -3  10   8   15.30   14.50
  10  -7   8    5.00    6.20
  -3  10   8    0.00   13.10
  10   0  -8    1.30    9.30
  10   0  -8   16.10    8.00
  10   0  -8    2.70   11.30
 -10  10  -8   -3.00   15.40
   0 -10  -8    5.30   17.60
  10   0  -8    1.80    5.80
   0  10   8   28.00   17.00
   0  10   8    5.20    6.30
   0  10   8    8.20   12.70
 -10   0   8    3.20    8.40
   0  10   8   11.80   18.10
  10 -10   8  -19.00   11.30
 -10   0   8   38.10   16.00
   0  10   8   12.80    6.20
 -10  13  -8    0.20   11.30
 -10  13  -8    3.20    8.70
  13  -3  -8   -1.10   13.10
  -3 -10  -8   -2.10   23.90
  13  -3  -8    3.70    7.70
 -10  13  -8  -10.10   10.70
 -13   3   8    7.00    7.90
   3  10   8    8.70    7.10
 -13   3   8   10.30   13.20
   3  10   8   -3.80    7.60
  10 -13   8    6.60    6.30
  10 -13   8   17.00    9.90
  16  -6  -8    8.90    8.60
  -6 -10  -8  -12.40   11.60
 -10  16  -8   -6.70   11.00
  -6 -10  -8  -12.20   13.00
 -10  16  -8   -9.20   11.40
   6  10   8  -10.10   14.30
 -16   6   8   -3.50    9.90
   6  10   8   -4.60    7.70
   6  10   8    8.00    8.20
   6  10   8   -6.70    7.70
  10 -16   8   -4.60    7.10
 -10  19  -8   -9.20   13.70
 -10  19  -8   -2.40   11.30
  -9 -10  -8   14.40   13.40
  19  -9  -8   13.00   10.50
  -9 -10  -8   45.30   16.60
  10 -19   8   17.50    7.90
   9  10   8   36.50   11.20
   9  10   8   21.30   11.60
 -19   9   8   29.40   14.40
  -9  20  -8   20.80   13.50
  -9  20  -8   14.10   16.90
 -11  -9  -8   13.90   14.20
  20 -11  -8    0.30   13.30
  11   9   8    3.80   11.20
  11   9   8  -14.90   13.10
  11   9   8    4.90   10.70
 -20  11   8   11.60   15.10
  17 -11  -8    6.00    9.30
 -11  -6  -8   -0.90    8.50
  -6  17  -8   -5.00    9.80
  -6  17  -8    5.50   10.20
 -17  11   8    2.20   12.60
  11   6   8   -3.30    9.80
  11   6   8   -8.80    8.20
  11   6   8   -4.60   10.40
 -17  11   8    4.80   21.70
   6 -17   8    2.90   10.30
  -3  14  -8   10.30    9.70
  14 -11  -8   31.50    9.40
 -11  -3  -8   12.10   17.90
 -11  -3  -8   16.30    8.00
  -3  14  -8    0.70    7.60
  -3  14  -8    1.80    8.40
   3 -14   8    2.80    8.50
   3 -14   8   20.60   11.70
 -14  11   8   19.30   11.30
   3 -14   8   15.20   14.10
   3 -14   8   13.10    7.30
  11   3   8   28.90    7.50
  11   3   8   20.50    9.70
 -14  11   8   17.60   14.90
 -14  11   8   16.60   20.90
  11   3   8    3.80    7.00
 -11   0  -8   34.90    9.20
   0  11  -8   21.60    9.50
  11 -11  -8   27.70    8.90
  11 -11  -8   37.20   11.10
   0  11  -8   26.30    7.50
 -11   0  -8   17.10   17.50
   0 -11   8    2.50   13.20
   0 -11   8   27.90   10.20
 -11  11   8   22.10   17.30
  11   0   8   32.60    6.60
 -11  11   8   34.90   10.20
 -11  11   8   31.60   15.60
  11   0   8   23.20   17.50
  11   0   8   22.90    7.30
 -11  11   8   16.40   18.10
 -11  11   8   17.90   18.10
   0 -11   8   25.30   11.00
 -11   3  -8    2.70    8.50
   8 -11  -8   31.90   20.50
   3   8  -8   15.70   16.40
 -11   3  -8   10.10    8.60
  11  -3   8   10.10    5.10
  11  -3   8   -5.40    9.30
  -8  11   8   11.40    9.10
  11  -3   8    3.00    5.50
  -8  11   8    3.10   13.80
  -8  11   8   -1.40   10.40
  11  -3   8    5.80   10.60
  -3  -8   8   22.40   10.00
  -3  -8   8   -2.80    6.70
   6   5  -8   27.10    6.90
   6   5  -8   18.90   26.20
 -11   6  -8   24.50    8.80
   6   5  -8   46.40   12.60
   5 -11  -8   13.20   11.20
   5 -11  -8   42.10   11.00
  -5  11   8   30.10   13.80
  11  -6   8    9.80    8.80
  11  -6   8   41.90    7.10
  11  -6   8   12.10    8.00
  -5  11   8   44.30   10.40
  -5  11   8   16.70   18.90
  -5  11   8   32.00    8.20
  -5  11   8   31.10    6.00
  -6  -5   8   25.10    7.00
   9   2  -8   13.60   11.40
   2 -11  -8  -10.90    9.60
   2 -11  -8    0.30    8.80
 -11   9  -8    3.60   14.10
   9   2  -8    9.20   14.20
   9   2  -8   -7.30   11.30
   9   2  -8   -7.30    6.00
 -11   9  -8   -5.90    6.50
  11  -9   8   -0.50   12.90
  -2  11   8   23.40   11.00
  -2  11   8    1.10    6.40
  -2  11   8    3.00   14.00
  -2  11   8    6.50   17.90
  11  -9   8    1.30    4.70
 -11  12  -8    3.80   20.70
 -11  12  -8   21.80    9.30
  -1 -11  -8   37.20   23.80
  12  -1  -8   14.00    8.90
  12  -1  -8   15.40   12.50
 -12   1   8    9.90    8.60
   1  11   8   17.70   20.10
 -12   1   8   -2.10   15.70
   1  11   8   -1.10   14.20
  11 -12   8   20.50   12.40
   1  11   8   20.00    7.50
  11 -12   8   24.40    6.00
 -11  15  -8   -0.20    9.70
 -11  15  -8   11.90   12.90
 -11  15  -8   -2.90   10.20
  -4 -11  -8    9.00   11.40
  -4 -11  -8   14.20   12.20
  15  -4  -8   -6.20    8.40
   4  11   8   -3.40    8.20
  11 -15   8   14.10    6.50
  11 -15   8  -10.10   13.80
   4  11   8  -13.60    7.70
   4  11   8    0.40    8.10
   4  11   8   22.50   10.80
 -15   4   8   -8.60   13.60
  18  -7  -8   -1.40    9.30
 -11  18  -8   -8.80   11.30
 -11  18  -8  -11.40   13.80
  -7 -11  -8   17.90   12.40
  -7 -11  -8  -12.70   14.90
  11 -18   8    9.00    7.70
   7  11   8   18.20   17.90
   7  11   8   17.00   10.10
   7  11   8    1.40    8.50
 -18   7   8    6.70   12.00
   7  11   8    9.70    8.70
 -10 -11  -8  -17.60   15.80
 -21  10   8  -29.40   15.50
 -12  -7  -8  -11.90   15.30
  -7  19  -8   -2.90   12.10
  -7  19  -8   10.40   11.10
 -12  -7  -8   -9.60   13.30
  19 -12  -8   -1.30   12.50
  12   7   8   10.70    8.80
  12   7   8    8.50   11.20
 -19  12   8   28.70   14.80
  12   7   8   18.00   12.50
  -4  16  -8    0.40    8.20
 -12  -4  -8   -5.40   19.80
  -4  16  -8   -4.70    9.40
 -12  -4  -8   10.70    8.40
  12   4   8    9.80    7.80
   4 -16   8   16.90    8.60
  12   4   8    5.40    7.90
  12   4   8    7.40    8.50
   4 -16   8   24.60   11.30
 -16  12   8   15.90   27.30
 -16  12   8   17.20   13.80
 -16  12   8    7.20   14.30
  12   4   8    9.40   10.50
 -12  -1  -8   -3.30   16.70
 -12  -1  -8    9.50    8.90
 -12  -1  -8    3.20    8.40
  13 -12  -8    3.00    8.20
  -1  13  -8   -8.20    8.10
  -1  13  -8   -1.70    7.40
  -1  13  -8    9.40    8.60
 -13  12   8    0.10   11.90
  12   1   8    7.60    6.40
   1 -13   8   13.60    9.10
 -13  12   8  -21.60   17.90
 -13  12   8    1.40   10.90
 -13  12   8   -9.80    9.00
   1 -13   8   -9.70    9.80
  12   1   8    5.30    6.20
  12   1   8    5.70   19.40
   1 -13   8   -9.80   10.30
 -13  12   8    6.30   15.90
  12   1   8    7.30    7.50
  10 -12  -8    4.40    8.90
 -12   2  -8   10.10    7.50
   2  10  -8    8.00    7.50
   2  10  -8   23.10    8.40
 -12   2  -8   -1.60   15.80
  10 -12  -8    3.60   11.70
   2  10  -8    9.50    6.40
 -12   2  -8   16.90   10.10
 -10  12   8   12.70   23.60
  -2 -10   8   15.30    8.60
  12  -2   8   11.50   11.20
 -10  12   8    8.40   12.10
  12  -2   8    3.90    5.00
 -10  12   8    5.60   14.90
  -2 -10   8   -4.70    8.70
 -10  12   8    9.50    8.60
 -10  12   8   -0.30    9.50
   7 -12  -8    9.90    9.60
   7 -12  -8   35.40   24.30
 -12   5  -8   -6.30   12.60
 -12   5  -8   -1.90    8.40
 -12   5  -8   -2.50    8.40
   5   7  -8   -9.60   14.80
   5   7  -8  -11.00    7.00
  12  -5   8   14.20    8.80
  -5  -7   8   11.90    7.50
  -7  12   8    4.40    9.90
  -7  12   8    3.00    6.90
  12  -5   8   -4.50    9.90
  12  -5   8   -5.80    6.20
 -12   8  -8   58.69    9.70
 -12   8  -8   60.29   13.40
   8   4  -8   61.99   11.70
   8   4  -8   72.49    7.90
   4 -12  -8   75.69   10.10
   8   4  -8   74.19    7.30
  -4  12   8   72.59   11.40
  12  -8   8   77.19    6.80
  -4  12   8   62.59   22.50
  -4  12   8   57.89    8.00
  -8  -4   8   67.19    9.40
  -4  12   8   45.70   12.40
  -4  12   8   71.69    8.20
 -12  11  -8    2.90   15.40
   1 -12  -8  -21.50   20.60
 -12  11  -8   12.20    9.20
  11   1  -8    7.70    6.70
   1 -12  -8    6.50   10.90
  11   1  -8   24.80   13.90
  -1  12   8    9.60    6.20
 -11  -1   8    9.60    8.20
  -1  12   8    3.40   14.70
  12 -11   8   17.00   15.40
  -1  12   8  -15.40   13.40
 -12  14  -8  -25.10   13.90
  -2 -12  -8    7.70   11.10
 -12  14  -8   14.50   10.20
  -2 -12  -8    3.20   10.70
 -12  14  -8  -16.30   10.20
  14  -2  -8    0.60    9.20
  12 -14   8   -4.50   16.00
   2  12   8    4.10    7.00
 -14   2   8   -5.70   17.20
   2  12   8   13.90    8.90
   2  12   8  -23.20   23.80
  17  -5  -8  -15.00    9.00
  -5 -12  -8   -3.30   14.60
  -5 -12  -8    6.80   12.70
 -12  17  -8    4.50   11.30
 -17   5   8    0.20   10.30
   5  12   8   -4.90   13.50
   5  12   8    0.60    9.60
   5  12   8    5.30    8.40
   5  12   8    2.90    8.70
 -12  20  -8   -7.80   15.20
 -12  20  -8    1.10   14.50
  -8 -12  -8    6.50   13.50
  20  -8  -8   17.10   11.90
  -8 -12  -8   34.20   17.90
  12 -20   8   -3.00    8.20
   8  12   8   18.70    9.70
   8  12   8    4.60   16.30
 -20   8   8    8.50   14.40
   8  12   8  -20.60   12.60
  18 -13  -8   -3.00   10.10
  -5  18  -8   10.10   10.90
 -13  -5  -8   23.00   22.70
 -13  -5  -8    6.60    9.10
  13   5   8   -0.50    8.70
 -18  13   8  -24.00   16.70
  13   5   8    2.80   12.50
  13   5   8  -12.40   10.70
 -13  -2  -8   15.00   17.80
  -2  15  -8   -3.60    9.10
  15 -13  -8   -4.70   10.30
  -2  15  -8   -4.00    8.30
  15 -13  -8   11.50   10.40
  13   2   8   20.10    6.80
  13   2   8   10.80    7.70
 -15  13   8   11.00   10.90
   2 -15   8    9.70    9.20
 -15  13   8   26.10   19.00
 -15  13   8   -8.00   13.40
  13   2   8   14.40    8.30
   2 -15   8   12.30   12.10
  12 -13  -8   -7.10   10.60
  12 -13  -8    8.00    8.50
 -13   1  -8   -2.90    8.60
 -13   1  -8    8.90    8.80
 -13   1  -8   29.40   16.80
  -1 -12   8   -5.40   11.90
  -1 -12   8   -6.90   18.00
  13  -1   8   -4.20    6.10
  13  -1   8   -4.20    6.20
 -12  13   8   -3.90   10.20
  13  -1   8  -33.10   18.10
 -12  13   8    0.70   14.80
 -12  13   8  -12.40   15.30
  -1 -12   8    9.50    8.10
 -12  13   8   10.80    9.60
  13  -1   8   -8.10    6.60
   9 -13  -8    7.40    8.30
   4   9  -8   -8.90    6.50
 -13   4  -8    5.30    9.60
   4   9  -8   10.10    7.20
   9 -13  -8   -5.10   11.60
 -13   4  -8    7.90    8.40
  13  -4   8   -2.30    5.30
  13  -4   8   -3.80   11.50
  -9  13   8    1.20    8.00
  13  -4   8   -8.90    8.90
  -9  13   8   -5.80   11.50
  -4  -9   8   -5.60    9.20
  -9  13   8  -18.10    9.60
  -4  -9   8   -4.30    7.60
   7   6  -8   66.09   15.00
 -13   7  -8   45.60    9.30
   7   6  -8   -1.60   28.50
   6 -13  -8   34.60   10.20
 -13   7  -8   57.39   11.50
  13  -7   8   48.30    5.60
  -6  13   8   61.29   11.00
  -7  -6   8   34.80    7.30
  13  -7   8   42.10    9.80
  13  -7   8   59.69    9.90
  10   3  -8   24.60   12.60
  10   3  -8   19.00   11.30
  10   3  -8   19.50    7.40
  10   3  -8   26.30    9.30
   3 -13  -8   15.10    9.80
 -13  10  -8   23.40    9.00
   3 -13  -8    2.70    9.30
 -13  10  -8   12.10   15.20
  10   3  -8   26.60    7.50
  13 -10   8   20.60    5.60
  13 -10   8   10.10    7.20
  -3  13   8   17.20   11.50
  -3  13   8   15.80    7.90
  -3  13   8   24.20    7.70
 -10  -3   8   20.40    8.00
  -3  13   8   23.20   11.80
   0 -13  -8   34.80   34.60
 -13  13  -8   -3.00    8.90
   0 -13  -8   -3.70   10.40
 -13  13  -8    3.00   10.90
  13   0  -8  -10.40   10.20
  13   0  -8  -12.50    7.70
  13   0  -8    9.60   13.50
  13 -13   8  -13.90   18.50
 -13   0   8   24.30    9.80
  13 -13   8    6.10    6.40
   0  13   8    5.20    7.10
   0  13   8   19.80    8.00
   0  13   8    8.20   14.70
   0  13   8    0.40   15.80
 -13  16  -8    1.70   12.00
 -13  16  -8   17.70   10.00
  -3 -13  -8  -18.10   13.30
  16  -3  -8    4.50   10.00
   3  13   8    1.40   10.70
   3  13   8   16.90    8.20
   3  13   8   -6.00    7.60
  13 -16   8   11.50    6.60
  -6 -13  -8   -3.20   14.20
  -6 -13  -8   -3.90   14.90
 -13  19  -8   17.30   14.90
  19  -6  -8   14.00   11.00
 -13  19  -8   18.30   13.10
 -19   6   8   -6.40   11.70
  13 -19   8    0.60    8.90
   6  13   8  -23.30   11.10
   6  13   8  -23.40   11.90
   6  13   8   -2.50    9.20
  20 -14  -8   -9.50   11.70
 -14  -6  -8   -8.00   15.20
  -6  20  -8    2.40   12.00
  -6  20  -8    8.30   13.30
  14   6   8   -0.20   11.50
 -20  14   8  -24.10   14.90
  14   6   8   15.10   15.00
  -3  17  -8    6.40    9.20
  -3  17  -8    2.20   11.20
 -14  -3  -8   21.80    9.50
 -14  -3  -8    0.70   19.70
  17 -14  -8   -5.00   11.50
 -17  14   8   23.20   17.80
   3 -17   8  -19.70   13.40
  14   3   8    2.20    7.30
 -17  14   8  -14.60   14.90
  14   3   8   21.70   10.10
  14   3   8   12.70   12.50
 -17  14   8   -3.00   13.00
  14   3   8    0.40    8.20
 -17  14   8    3.90   14.60
 -14   0  -8   43.50   17.10
   0  14  -8   14.10    9.50
 -14   0  -8    4.00   10.90
  14 -14  -8    6.50    9.90
   0  14  -8    6.60    8.90
   0  14  -8   26.10    9.30
   0 -14   8    9.10   14.80
 -14  14   8   27.60   11.00
 -14  14   8   15.80   13.00
  14   0   8    6.60    7.70
  14   0   8    9.30   21.50
  14   0   8   16.90    6.70
 -14  14   8   -2.10   21.20
   0 -14   8   19.30   12.70
 -14  14   8   23.00   11.70
 -14  14   8   30.80   12.10
   3  11  -8   -6.70    8.20
  11 -14  -8  -23.40   11.50
   3  11  -8  -12.20    7.40
 -14   3  -8    5.00    9.90
  11 -14  -8   -9.40    8.60
 -14   3  -8   -0.30   17.80
  -3 -11   8   -9.00    9.20
  -3 -11   8   -1.30    7.60
  14  -3   8   14.70   16.80
 -11  14   8   14.00    9.10
  14  -3   8    9.50    5.20
 -11  14   8   -1.40    8.40
 -11  14   8   -0.40   13.00
  14  -3   8   -3.10    5.90
 -11  14   8   12.60    9.40
  14  -3   8   -0.90    8.90
   6   8  -8   -1.40    7.20
 -14   6  -8  -17.40    9.30
   8 -14  -8   35.30   24.30
 -14   6  -8   -9.00    9.60
   6   8  -8   28.30   16.40
   6   8  -8    8.10    6.40
 -14   6  -8   25.40   16.40
  -8  14   8   11.90    8.00
  14  -6   8    2.70    8.10
  14  -6   8    0.30    4.80
  -8  14   8    0.20    8.60
  -8  14   8   18.70    9.40
  14  -6   8    3.30    6.20
  14  -6   8    6.30   11.00
  -8  14   8    2.40   11.20
  -6  -8   8   15.20    8.80
 -14   9  -8   71.79   11.20
   9   5  -8   64.29   10.30
   5 -14  -8   70.69   11.90
   9   5  -8   80.29   14.00
  -5  14   8   54.29    8.70
  14  -9   8   64.59   11.20
  14  -9   8   58.29    8.00
  -5  14   8   79.09    9.10
  -9  -5   8   86.39   11.40
  -5  14   8   91.59   11.30
  -5  14   8   69.59   12.80
  12   2  -8   -0.70    7.20
   2 -14  -8   33.70   11.60
  12   2  -8   -3.50   12.10
 -14  12  -8    1.30    9.90
  12   2  -8   19.10   18.50
 -14  12  -8   -9.10   16.40
  14 -12   8   14.70    6.00
  -2  14   8   10.70    8.00
  -2  14   8   20.40    7.40
  -2  14   8   13.00   11.30
  14 -12   8   23.60    9.00
  -2  14   8    5.90   13.40
 -12  -2   8    6.30    9.00
 -14  15  -8   -3.50   11.60
  -1 -14  -8   10.40   14.20
 -14  15  -8   22.30   10.00
  -1 -14  -8  -21.50   11.40
  15  -1  -8    1.30   11.80
  15  -1  -8    8.80   14.00
   1  14   8    2.00    9.70
 -15   1   8   -2.80    8.60
  14 -15   8  -14.70    6.80
   1  14   8   14.30    8.00
  14 -15   8  -11.10   19.00
   1  14   8   -0.10    8.60
 -14  18  -8   -6.70   11.50
  -4 -14  -8   18.20   15.90
 -14  18  -8  -11.10   13.20
  18  -4  -8    0.60   11.20
   4  14   8  -14.70   10.70
   4  14   8   10.60    8.90
 -18   4   8  -16.90   11.60
  19 -15  -8    7.90   12.30
  -4  19  -8    6.40   12.60
  -4  19  -8   13.90   12.00
  15   4   8    9.10   14.50
 -19  15   8   27.80   16.30
 -19  15   8   25.30   17.30
   4 -19   8   18.90   21.30
  15   4   8    6.30    8.70
  15   4   8  -14.80   13.50
 -15  -1  -8   21.50    9.20
  16 -15  -8   33.60   11.10
  -1  16  -8   19.80    9.80
  -1  16  -8   17.00    8.90
 -15  -1  -8   22.60   18.60
 -16  15   8   30.00   13.20
  15   1   8   -2.00   12.90
   1 -16   8    9.50   12.60
  15   1   8   15.60    7.10
  15   1   8    1.10    9.20
 -16  15   8   23.70   13.70
   1 -16   8    8.50   10.70
  15   1   8   21.90    7.80
   2  13  -8    9.10    9.20
 -15   2  -8   -5.10   10.30
 -15   2  -8   -0.40   18.60
   2  13  -8   -0.20    7.70
 -15   2  -8   -4.10   10.20
  13 -15  -8   -0.50   11.60
 -13  15   8   -8.80   10.30
  15  -2   8   -6.10    6.40
  15  -2   8   -2.10    6.60
 -13  15   8  -12.60   10.20
 -13  15   8   17.60   10.40
  15  -2   8   -4.60    7.10
 -13  15   8   19.40   15.40
  -2 -13   8   16.70   11.50
  15  -2   8    0.80   18.30
 -13  15   8    5.90   16.30
   5  10  -8   25.40    7.50
  10 -15  -8  -15.60   12.50
 -15   5  -8    5.80    9.90
   5  10  -8   11.50    8.20
 -10  15   8   10.70    9.20
 -10  15   8    0.00    8.60
  15  -5   8    9.50    6.80
  -5 -10   8   10.70    9.30
 -10  15   8   13.30    9.60
  15  -5   8   13.90    7.40
  -5 -10   8   10.20    8.40
 -10  15   8   -2.90   11.20
  15  -5   8   -2.30   13.60
 -15   8  -8   45.90   10.70
   8   7  -8   23.20   18.90
   8   7  -8   51.19   17.10
   8   7  -8   43.00   23.50
 -15   8  -8   40.30   10.00
   8   7  -8   51.99    7.90
   8   7  -8   51.19    8.60
  -7  15   8   47.50   10.60
  -7  15   8   49.50    8.80
  15  -8   8   46.50    6.60
  11   4  -8   20.20    8.60
   4 -15  -8    5.40   10.10
 -15  11  -8   12.90   16.00
  11   4  -8    4.40   14.40
  11   4  -8   28.80   11.80
  15 -11   8   28.90    6.90
  -4  15   8   41.10   11.50
  -4  15   8   10.20   11.70
  -4  15   8   25.20    8.50
 -11  -4   8   25.70   10.00
 -15  14  -8   12.80   10.80
   1 -15  -8   -9.30   13.10
  14   1  -8  -25.50   12.40
   1 -15  -8  -17.80   11.40
  14   1  -8   -3.80    8.20
  14   1  -8  -22.80   17.00
 -15  14  -8    8.10   10.60
  -1  15   8   -2.30    7.70
  -1  15   8   -0.30   15.90
  -1  15   8    5.70    8.70
 -14  -1   8   13.70    9.00
  15 -14   8    1.80   10.70
  -2 -15  -8    2.30   12.70
 -15  17  -8  -18.50   14.10
 -15  17  -8   -8.30   10.70
  17  -2  -8    5.00   13.50
  -2 -15  -8   14.80   15.80
  15 -17   8   -0.70    7.90
 -17   2   8   -6.60   10.70
   2  15   8    8.30    8.50
   2  15   8    0.90    9.40
  -5 -15  -8  -32.30   21.30
  20  -5  -8  -15.90   13.30
  -5 -15  -8  -27.10   16.50
   5  15   8   25.00   12.40
 -20   5   8   -1.30   13.70
   5  15   8    2.80   13.90
  18 -16  -8   30.50   13.30
  -2  18  -8    6.90   12.40
  -2  18  -8   -2.50   11.80
  16   2   8    8.10   11.00
 -18  16   8    6.50   14.00
  16   2   8   30.40   11.70
   2 -18   8  -13.30   15.40
  16   2   8   12.00    8.40
 -18  16   8   -1.30   12.60
   1  15  -8   10.50   10.10
   1  15  -8    2.00    9.70
 -16   1  -8  -10.70   19.00
 -16   1  -8    9.80    9.90
  15 -16  -8    1.90   10.80
   1  15  -8  -11.40    9.20
 -16   1  -8   14.80   13.30
  15 -16  -8   13.70   11.90
  16  -1   8    4.80    7.40
  16  -1   8   18.20    7.60
  16  -1   8   -1.10    8.20
  -1 -15   8   16.60   13.80
  -1 -15   8   -9.00    8.90
  16  -1   8   15.10   22.30
 -15  16   8  -19.60   13.80
 -15  16   8   15.10   10.90
 -15  16   8  -11.70    9.10
 -15  16   8    3.70   12.00
   4  12  -8    9.00    8.20
  12 -16  -8   20.20   11.50
   4  12  -8   13.70    8.40
 -16   4  -8   22.50    9.50
   4  12  -8   11.00    8.70
 -16   4  -8    4.20   11.20
 -16   4  -8    0.90   20.10
  12 -16  -8    1.50   12.50
 -12  16   8   12.40   10.50
  16  -4   8   -7.10   16.20
  -4 -12   8   -9.40    9.90
 -12  16   8  -11.70   14.20
  16  -4   8    1.90    6.30
  16  -4   8    4.60    6.70
 -12  16   8   10.80    9.90
   7   9  -8   20.00   10.60
 -16   7  -8   27.20   10.50
   9 -16  -8   43.60   10.50
   7   9  -8   30.10    9.10
   7   9  -8   31.10    7.80
  -9  16   8   30.70   10.80
  -9  16   8   40.00    9.60
  -9  16   8   37.80   10.30
  16  -7   8   32.20    9.30
  10   6  -8   63.59   15.60
 -16  10  -8   58.19   12.90
   6 -16  -8   66.29   12.90
 -16  10  -8   62.99   18.20
 -10  -6   8   49.10    9.80
  -6  16   8   53.09    8.80
  -6  16   8   70.29   10.00
  13   3  -8   12.00   15.50
  13   3  -8   -7.00    7.50
   3 -16  -8   -9.60    9.60
  13   3  -8   15.40    9.40
 -16  13  -8   -7.70   19.40
  -3  16   8    0.60   13.20
  16 -13   8   11.70    6.20
  -3  16   8   -8.10    8.90
  -3  16   8  -17.50    8.10
 -13  -3   8   -4.40    9.20
   0 -16  -8    5.20   13.10
 -16  16  -8   -2.50   10.50
   0 -16  -8   -7.80   14.90
  16   0  -8   19.20   13.20
  16   0  -8    3.00    9.40
 -16  16  -8    1.80   13.60
   0  16   8    1.00    9.00
   0  16   8   23.00   10.10
  16 -16   8    4.90    7.90
 -16  19  -8   -8.40   17.70
 -16  19  -8    2.30   11.60
   3  16   8  -15.40    9.90
  16 -19   8   12.50   10.00
   3  16   8  -16.10   10.90
 -17   0  -8   13.50    9.80
   0  17  -8    3.30   11.60
   0  17  -8    5.90   11.10
  17   0   8   12.70   10.30
 -17  17   8   -6.10   11.10
  17   0   8   10.10    8.50
 -17  17   8    0.90   10.00
 -17  17   8  -14.80   15.00
  17   0   8   10.90   10.50
 -17  17   8   14.00   15.10
 -17   3  -8  -13.20   13.70
   3  14  -8    4.50    9.60
  14 -17  -8   -2.70   13.80
  14 -17  -8  -19.10   12.40
   3  14  -8   15.90    9.40
 -17   3  -8  -12.20   20.10
   3  14  -8   -2.80    8.80
  17  -3   8   -2.00    7.00
 -14  17   8  -12.80   18.20
  -3 -14   8    0.50   12.60
 -14  17   8   23.70   12.00
 -14  17   8    7.80   10.90
  17  -3   8   -5.80    7.00
 -14  17   8  -12.90   16.40
 -14  17   8  -10.90   10.20
  11 -17  -8   13.10   15.20
  11 -17  -8   19.90   11.40
   6  11  -8   24.30    9.90
 -11  17   8   24.50   10.60
 -11  17   8   26.00   11.20
  17  -6   8   27.80    6.70
  17  -6   8   33.00    8.30
 -11  17   8   12.00   10.90
  -6 -11   8   35.70   10.30
 -17   9  -8   -8.10   11.40
   8 -17  -8  -12.20    9.10
   9   8  -8    9.80    8.00
   9   8  -8  -17.00   21.20
   9   8  -8   16.50    7.90
   9   8  -8    7.80    8.70
 -17   9  -8   -7.90    9.90
  -8  17   8  -14.60    8.80
  17  -9   8    2.20    5.50
  -8  17   8   -7.10   11.40
  -9  -8   8  -10.40    7.30
  17  -9   8    2.80    9.10
  -8  17   8   13.80   10.30
 -17  12  -8   26.80   13.80
  12   5  -8   32.00   17.50
 -17  12  -8   20.10   13.50
   5 -17  -8    7.90   12.30
  12   5  -8   13.70   13.70
  12   5  -8   45.70    9.10
  -5  17   8   20.70   12.30
  -5  17   8   25.00    8.80
  -5  17   8   35.60   10.30
  17 -12   8   30.80    9.90
 -12  -5   8   31.50   13.20
  15   2  -8  -12.30    8.10
  15   2  -8   31.70   15.10
  15   2  -8   -0.60    9.50
   2 -17  -8  -25.00   13.10
 -17  15  -8   -1.30   10.60
  17 -15   8    6.90    7.50
  -2  17   8    8.60   15.20
  -2  17   8   -4.50    9.50
  -2  17   8    4.10    9.70
  18  -1  -8   -3.60   16.10
  -1 -17  -8  -36.70   17.90
 -17  18  -8  -21.00   15.50
 -17  18  -8   -2.30   10.80
   1  17   8   -7.00   11.00
 -18   1   8   -6.70   12.20
  17 -18   8   -4.30    9.20
   1  17   8  -25.60   11.70
   1  17   8   19.90   10.40
  16 -18  -8    1.30   14.00
   2  16  -8   14.50   10.80
   2  16  -8   10.00   10.90
  18  -2   8    9.70    9.30
  18  -2   8   10.70   11.50
 -16  18   8   -7.60   13.90
 -16  18   8   -3.70   16.00
  -2 -16   8   19.40    9.00
 -16  18   8    1.60   11.60
  18  -2   8   26.60    9.80
 -16  18   8   15.90   16.80
 -18   5  -8    2.40   13.10
 -18   5  -8   11.20   21.20
   5  13  -8    0.40    9.50
  13 -18  -8   17.60   14.20
  18  -5   8  -13.10    7.90
  -5 -13   8   -0.40   12.00
  18  -5   8   -1.40    6.60
 -13  18   8   18.10   11.30
 -13  18   8    2.80   12.40
 -18   8  -8   -6.90   11.90
   8  10  -8   -7.90    7.20
   8  10  -8    1.00   10.20
 -18   8  -8    6.70   10.10
   8  10  -8   13.10    9.20
  18  -8   8    6.60   12.10
  18  -8   8   13.10    6.40
  -8 -10   8   -1.90   10.30
  18  -8   8   16.60    9.40
 -10  18   8   16.60   12.10
 -10  18   8   10.70   11.30
 -10  18   8   -6.10   10.90
  11   7  -8   17.10    8.40
  11   7  -8   27.10    9.60
 -18  11  -8   39.30   14.20
  11   7  -8   14.50   19.30
   7 -18  -8   20.30   12.60
  11   7  -8   20.50   19.20
 -18  11  -8   27.10   11.70
 -11  -7   8   25.60    9.10
  18 -11   8   32.50   10.70
  -7  18   8   27.70   10.20
  -7  18   8   10.10   13.70
  -7  18   8   11.90   11.00
  14   4  -8   13.00    9.20
   4 -18  -8   -5.00   12.40
 -18  14  -8   -1.30   25.40
  14   4  -8    1.80   10.10
 -18  14  -8   32.80   15.60
  14   4  -8   -4.10   17.80
  18 -14   8  -11.10    7.30
 -14  -4   8    0.50    9.90
  -4  18   8   -6.20   10.50
  -4  18   8    1.20   11.30
  18 -14   8    6.10   11.40
  17   1  -8   16.40   17.10
 -18  17  -8   -2.40   10.20
 -18  17  -8    9.30   13.70
   1 -18  -8  -21.00   14.30
  17   1  -8    8.10    9.90
  18 -17   8   -3.30    9.80
  -1  18   8  -11.70   11.40
 -19   4  -8   29.40   15.70
   4  15  -8   -6.90    9.90
   4  15  -8   -7.20   11.00
   4  15  -8   -3.30   12.60
  15 -19  -8  -14.80   15.40
 -15  19   8   -3.00   13.40
 -15  19   8   16.60   12.90
  -4 -15   8   -5.50   24.90
 -15  19   8    9.80   19.10
  19  -4   8    2.80    8.80
  12 -19  -8   -3.60   12.50
   7  12  -8   11.40    9.10
 -19   7  -8   27.70   14.80
  12 -19  -8    8.20   15.90
   7  12  -8   -5.70   10.40
 -19   7  -8   -2.90   12.10
   7  12  -8    8.80   11.30
 -12  19   8   17.30   12.40
 -12  19   8   -9.50   11.90
  19  -7   8    8.30    6.90
 -12  19   8   20.30   13.30
  19  -7   8    9.80    6.60
  19  -7   8   10.20   10.10
  -7 -12   8   15.20   11.20
   9 -19  -8    4.40   12.50
  10   9  -8    5.20   10.30
  10   9  -8  -19.20   20.20
  10   9  -8   -6.10    8.30
 -19  10  -8  -17.70   11.50
 -19  10  -8   25.80   14.30
  10   9  -8  -19.50   10.20
  -9  19   8    4.70   11.60
  -9  19   8   16.40   13.70
  19 -10   8   -4.90    6.50
 -10  -9   8   -4.20   11.20
  -9  19   8   18.00   11.20
  13   6  -8   -7.60   21.40
   6 -19  -8   -7.20   12.60
  13   6  -8   -8.60    8.00
  13   6  -8    7.30   10.20
 -19  13  -8   17.90   15.50
 -19  13  -8    5.40   15.00
  -6  19   8  -10.20   13.20
  19 -13   8   16.60    7.90
  19 -13   8   -7.40   10.20
  -6  19   8   20.90    9.80
 -13  -6   8   -7.50   11.60
  -6  19   8  -23.80   11.80
 -19  16  -8   15.20   16.80
  -3  19   8    5.80    9.40
 -16  -3   8   14.80   12.50
  -3  19   8   25.00   15.10
  -3  19   8   25.40   14.20
  14 -20  -8  -12.70   17.00
   6  14  -8   16.90   11.40
   6  14  -8   19.10    9.80
 -20   6  -8   -5.40   15.90
  -6 -14   8   -9.70   13.00
  20  -6   8  -23.70   13.80
  20  -6   8    1.00    8.90
 -14  20   8   14.60   14.10
   9  11  -8  -21.60   10.90
   9  11  -8    0.40   10.10
 -20   9  -8  -18.10   15.50
 -20   9  -8   20.20   16.50
  20  -9   8   -9.00    6.90
  20  -9   8   21.30   11.20
 -11  20   8   -7.90   12.40
 -11  20   8    1.00   13.90
  -9 -11   8   24.90   17.50
  12   8  -8   -1.60   11.60
 -20  12  -8  -13.50   15.20
  12   8  -8  -26.40   20.40
  12   8  -8  -12.90    8.70
   8 -20  -8    1.50   12.40
 -20  12  -8   -4.60   15.60
  -8  20   8   -4.40   13.10
  20 -12   8  -15.80    7.40
  -8  20   8   17.10   10.80
  20 -12   8   -7.40   10.10
 -12  -8   8  -17.00   10.20
 -20  15  -8   -4.40   14.80
  15   5  -8  -20.80    9.80
 -20  15  -8  -31.00   15.30
   5 -20  -8   -1.60   15.80
 -15  -5   8   -3.00   13.40
  -5  20   8    7.60   13.90
 -21  11  -8    3.70   12.30
 -11 -10   8    7.30   13.30
   0   0  -9   47.30   11.00
   0   0  -9   57.59    8.90
   0   0   9   56.09    8.20
   0   0   9   63.99   11.40
   0   0   9   38.30    9.90
   2  -1  -9    5.00    8.50
  -1  -1  -9    1.80   12.00
  -1  -1  -9    9.40    7.80
  -1   2  -9   16.50   10.70
   2  -1  -9    0.60   10.10
  -1   2  -9  -10.40    8.20
  -1   2  -9   10.00    9.80
  -1  -1  -9   -0.40   10.10
   2  -1  -9   -3.50   11.10
   2  -1  -9   18.60    8.30
  -1   2  -9   -4.20    9.30
  -2   1   9    0.80    8.70
   1   1   9    4.40   11.70
   1  -2   9   -9.10   11.10
   1  -2   9  -11.10   10.00
   1   1   9    2.90    7.30
   1  -2   9   14.20    7.80
  -2   1   9   10.10   11.10
  -2   1   9  -23.90   14.90
  -2   1   9    5.20    9.60
   1   1   9    1.60   11.10
   1  -2   9  -18.80   10.50
  -2   1   9   10.20    8.40
   1   1   9   -9.10   10.50
  -2   1  -9   29.90    8.90
   1  -2  -9   23.90    7.30
  -2   1  -9   34.70   11.10
   1  -2  -9   28.80    6.10
   1  -2  -9   35.80   10.20
   1  -2  -9   26.10   12.40
   1   1  -9   22.90   10.50
  -2   1  -9    5.70    9.90
   1   1  -9   23.50    8.60
   1   1  -9   27.10   10.20
   1   1  -9   39.60   10.00
  -1   2   9   26.20   11.40
   2  -1   9   16.10    7.90
  -1   2   9   26.80    8.00
  -1  -1   9   19.20   10.50
  -1   2   9   33.30   11.00
  -1  -1   9    5.60    9.80
  -1   2   9   19.00    6.90
  -1  -1   9   19.50   10.30
  -1  -1   9   34.10    9.00
   2  -1   9   32.10   10.10
  -2  -2  -9   -3.50    6.90
  -2  -2  -9    0.60   10.60
  -2   4  -9  -13.60   10.50
   4  -2  -9   -2.00   11.80
  -2  -2  -9   -1.90   13.00
  -2  -2  -9    2.10   12.00
   4  -2  -9  -11.60   17.90
  -2   4  -9  -16.10    9.70
  -2  -2  -9  -10.90   12.60
  -2   4  -9   10.90    9.30
  -2   4  -9    2.70   12.40
  -4   2   9   -9.60   10.40
   2   2   9   -4.80    8.80
   2   2   9   -1.90   14.90
   2  -4   9  -25.80   12.00
   2  -4   9  -13.30   13.80
   2  -4   9   -2.50   13.90
  -4   2   9  -10.60   11.30
  -4   2   9   -6.00    9.20
   2  -4   9    3.90    6.70
  -4   2   9   11.10   10.00
  -4   2   9   -8.40   14.30
   0   3  -9   19.70    9.50
   0   3  -9   46.60   11.70
   3  -3  -9   10.60   12.50
   3  -3  -9   53.99    9.40
   0   3  -9   29.10   12.60
   0   3  -9   24.10   10.70
  -3   0  -9   43.50   13.50
   3  -3  -9   44.40   13.50
  -3   0  -9   47.60   12.80
  -3   0  -9   41.40    9.80
   0  -3   9   49.90   12.50
   3   0   9   28.50    9.50
   0  -3   9   43.80    8.90
   0  -3   9   43.40   13.30
  -3   3   9   36.10   11.20
  -3   3   9   49.60   11.30
  -3   3   9   21.50   14.20
   3   0   9   21.80    8.90
  -3   3   9   40.50   14.70
   0  -3   9   21.80   12.40
  -3   3   9   30.10    9.40
  -3   3   9   35.70    8.10
   0  -3  -9   27.50   11.20
  -3   3  -9    6.50   10.10
   3   0  -9   48.00   11.00
  -3   3  -9   29.50   11.50
  -3   3  -9   30.30   13.00
   0  -3  -9   21.30    8.00
   0  -3  -9   40.40   12.60
   3   0  -9   13.20   12.00
   3   0  -9   29.90    9.50
   3   0  -9   31.30    8.50
  -3   3  -9   27.90    9.00
   0   3   9    9.40   11.00
   0   3   9   13.70    7.80
  -3   0   9   30.40    9.10
  -3   0   9   23.70    9.40
  -3   0   9    1.70   13.70
   0   3   9   50.79   13.80
   0   3   9   30.80   15.80
  -3   0   9   18.60    9.60
   3  -3   9   11.30    7.80
  -3   0   9    8.60   10.10
   3  -3   9    7.90   12.90
  -3  -3  -9  -16.00   14.40
   6  -3  -9  -19.20   19.10
   6  -3  -9   -1.50   13.20
   6  -3  -9   10.20   10.60
  -3   6  -9   -1.50   12.30
  -3  -3  -9   -2.10    8.40
  -3   6  -9   -0.70    9.90
  -3  -3  -9  -10.60   14.40
  -3   6  -9    7.90   14.80
  -6   3   9  -11.10   11.80
   3   3   9    6.90   10.50
  -6   3   9   10.80   14.70
  -6   3   9   10.70   12.00
   3  -6   9    0.90    8.30
   3  -6   9    3.60    7.00
  -6   3   9    0.30    8.70
  -6   3   9   11.80   14.10
   3  -6   9    0.90   14.50
   3   3   9   19.20   11.10
  -4  -1  -9  404.06   17.40
   5  -4  -9  378.06   24.60
  -1   5  -9  374.36   19.60
   5  -4  -9  416.56   19.00
  -1   5  -9  440.66   20.80
  -1   5  -9  370.86   20.10
  -4  -1  -9  369.06   20.70
  -4  -1  -9  415.76   20.40
   5  -4  -9  410.76   19.30
   1  -5   9  368.06   21.50
   4   1   9  428.76   18.10
  -5   4   9  411.26   18.50
  -5   4   9  430.26   18.00
   4   1   9  428.46   18.00
   2   2  -9    6.50   11.50
  -4   2  -9    3.80   10.70
   2  -4  -9    5.30    8.20
   2  -4  -9    9.00   11.70
   2   2  -9    2.60    9.80
  -4   2  -9   -6.80   10.20
  -2   4   9    9.10   11.50
  -2   4   9   -6.40   12.70
  -2   4   9   24.10   16.70
  -2  -2   9   -9.60   11.60
  -2  -2   9    1.80   14.10
   4  -2   9   -9.80   15.30
  -2  -2   9   -0.10   10.50
  -2  -2   9    1.20   10.20
  -2  -2   9   -7.00   10.00
   4  -2   9    4.40    7.80
   4  -2   9  -16.10    9.60
  -2   4   9  -28.50   15.70
   4  -2   9    9.30    8.80
  -2   4   9   13.70    8.10
   5  -1  -9   13.60    9.60
  -4   5  -9  -23.30   17.10
  -1  -4  -9   13.10   13.40
   5  -1  -9   15.50    6.20
  -4   5  -9   19.70   12.60
   5  -1  -9   42.10   20.70
   5  -1  -9   18.70   11.40
  -4   5  -9    3.10    9.00
   5  -1  -9   -1.50   11.90
  -1  -4  -9   25.80   10.60
  -5   1   9    9.70   10.60
   1   4   9   -2.30    8.70
  -5   1   9    5.10   10.20
   1   4   9   11.40   10.60
  -5   1   9   19.30   14.10
   4  -5   9   10.70    7.70
  -5   1   9   10.90    7.80
  -4  -4  -9   15.30   16.60
   8  -4  -9   15.60   22.90
  -4  -4  -9   18.80   10.60
  -4   8  -9    8.60   12.60
   8  -4  -9   22.90   12.40
  -8   4   9   16.70   16.50
   4   4   9   -4.00   16.20
  -8   4   9    8.80    7.90
   4   4   9   -7.80   11.50
  -8   4   9    8.80    8.10
  -8   4   9   -6.50   14.60
   4  -8   9    3.20    7.50
   4  -8   9    0.10    8.70
   4   4   9   12.20    4.80
  -8   4   9   14.20   12.10
  -2   7  -9   55.29   13.10
  -2   7  -9   60.99   17.80
   7  -5  -9   77.89   18.00
  -5  -2  -9   36.50   14.40
   7  -5  -9   33.20   13.60
  -5  -2  -9   45.50   12.30
   7  -5  -9   39.50   19.20
  -5  -2  -9   47.40   15.70
   2  -7   9   67.99   11.60
   5   2   9   17.60   11.90
  -7   5   9   34.10   15.90
  -7   5   9   36.70   19.20
   5   2   9   48.20   11.90
  -7   5   9   45.70   11.70
   2  -7   9   39.20    8.30
  -7   5   9   56.99   13.80
   2  -7   9   48.50   17.50
  -7   5   9   33.90   12.60
   1   4  -9   52.89   14.10
   4  -5  -9   73.09   13.80
  -5   1  -9   73.39   13.60
   1   4  -9   49.80   11.60
   4  -5  -9   47.70   14.40
   5  -1   9   36.00   11.50
  -4   5   9   37.50   15.80
  -4   5   9   60.79    9.90
  -4   5   9   51.89    9.40
  -4   5   9   39.40   16.20
   5  -1   9   58.89   11.60
  -1  -4   9   55.79   11.70
  -1  -4   9   69.09   13.90
  -4   5   9   65.79   14.50
  -1  -4   9   55.19   15.70
   5  -1   9   69.09    9.00
  -1  -4   9   58.99   13.40
  -5   4  -9   19.40   10.90
  -5   4  -9   32.10   11.80
  -5   4  -9   27.90   13.60
  -5   4  -9   20.70   12.40
   4   1  -9   27.20    9.90
   1  -5  -9   26.10   13.70
   4   1  -9   33.30    7.70
   4   1  -9   39.80   19.20
   1  -5  -9   20.20    9.00
   4   1  -9   40.10   14.20
  -4  -1   9   19.50   14.80
  -4  -1   9   19.00   12.40
   5  -4   9   47.10   12.10
   5  -4   9   15.70   10.40
   5  -4   9   26.30    8.70
  -1   5   9   33.40   11.40
  -4  -1   9   34.00    9.30
  -1   5   9   70.59   24.20
  -1   5   9   33.30    9.00
  -4  -1   9   13.90   12.30
  -2  -5  -9   22.60   15.20
  -5   7  -9   37.20   15.80
  -2  -5  -9   20.00    9.40
   7  -2  -9   30.30   19.50
  -5   7  -9   31.70   13.90
  -5   7  -9   18.80    9.60
   7  -2  -9   54.99   18.20
   7  -2  -9   13.60   12.70
   2   5   9   38.70   12.20
   5  -7   9   22.00    8.60
  -7   2   9   19.60   11.30
  -7   2   9   25.60   13.50
   2   5   9   20.80   11.60
   5  -7   9   34.80    7.80
   2   5   9   32.20   10.60
  10  -5  -9   19.70    9.10
  -5  -5  -9   17.00   12.90
  -5  10  -9    7.10   10.10
  -5  -5  -9    6.00   18.80
  10  -5  -9   23.80   14.50
  -5  10  -9   35.10   14.40
 -10   5   9   22.00   15.80
 -10   5   9    7.40   12.60
   5   5   9   15.40    6.60
   5 -10   9   10.50    9.20
 -10   5   9    3.30   18.80
 -10   5   9   13.10    8.20
   5   5   9   12.50    8.70
   5   5   9   25.90   21.30
  -6  -3  -9   94.09   18.00
  -3   9  -9   73.99    9.10
  -6  -3  -9   71.49   14.10
  -6  -3  -9   71.59    9.00
   9  -6  -9   82.29   12.20
   9  -6  -9   64.49   16.60
   6   3   9   90.49    7.70
   6   3   9   90.19    7.80
   3  -9   9   92.39   11.90
  -9   6   9   90.99   17.80
  -9   6   9   76.39   12.60
  -6   0  -9   37.60   15.40
  -6   0  -9   40.70   14.20
   6  -6  -9   33.00   20.80
   6  -6  -9   35.00   14.30
  -6   0  -9   68.19   13.20
   0   6  -9   71.99   13.50
   0   6  -9   54.19   15.60
   6   0   9   52.09   13.20
   0  -6   9   67.99   11.30
   0  -6   9   40.20   16.90
   0  -6   9   63.09   19.20
   6   0   9   45.90   10.90
  -6   6   9   66.59   11.10
   0  -6   9   39.70   16.50
   6   0   9   54.69   10.80
  -6   6   9   60.39   13.00
   3  -6  -9    4.30   14.90
   3   3  -9    2.80    9.90
   3   3  -9   14.80    9.90
  -6   3  -9   18.50   14.40
   3  -6  -9   13.20    9.30
  -3  -3   9   11.90   10.80
   6  -3   9   11.80    8.20
  -3   6   9    4.10    8.40
  -3   6   9   15.90    8.80
  -3  -3   9   26.00   14.10
  -3   6   9   31.80   17.70
   6  -3   9   29.00   10.40
  -3   6   9   28.90    7.90
  -3   6   9    8.20   12.60
  -3  -3   9   22.70   13.70
   6  -3   9    4.90   10.50
  -3  -3   9   19.00   12.30
  -3   6   9    8.10   16.00
   6   0  -9   81.69   11.40
   0  -6  -9  120.29   18.60
  -6   6  -9  116.79   13.10
   6   0  -9   98.49   13.70
  -6   6  -9  101.59   12.30
   0   6   9  109.09   14.20
   6  -6   9   86.59    9.80
  -6   0   9   91.29   14.90
   0   6   9   78.59   10.90
  -6   0   9   81.29   14.50
  -6   9  -9    6.30   10.50
   9  -3  -9    1.40   12.80
  -3  -6  -9    5.20   13.00
  -6   9  -9   22.80    9.40
   9  -3  -9    6.70    9.60
  -6   9  -9   -1.40    5.50
  -3  -6  -9    2.10   15.80
  -9   3   9   16.10   16.00
  -9   3   9   12.90   12.00
   6  -9   9    3.50    9.30
   3   6   9   -7.60   12.30
   3   6   9   19.00   15.40
  -6  12  -9   44.20    9.00
  -6  -6  -9   52.79    9.00
  -6  12  -9   36.20   11.00
  12  -6  -9   34.10    8.00
  -6  -6  -9   33.50   19.30
  12  -6  -9   19.50   16.60
   6   6   9   39.60    7.10
   6   6   9   40.30    8.40
 -12   6   9   10.50   32.20
   6 -12   9   20.20   11.50
   6   6   9   30.80    7.70
 -12   6   9   56.89    9.90
   6 -12   9   30.10   10.00
  11  -7  -9   63.89   19.40
  -7  -4  -9   51.29   14.50
  -4  11  -9   53.69    9.90
  11  -7  -9   58.29    9.20
  -4  11  -9   47.10    7.90
  -7  -4  -9   83.79   19.30
   4 -11   9   73.79   10.80
   7   4   9   45.10    7.60
 -11   7   9   57.29   13.30
   7   4   9   41.30    7.10
   4 -11   9   66.09    8.60
 -11   7   9   42.80   14.40
  -7  -1  -9    4.60   15.60
  -7  -1  -9   11.70   13.90
  -1   8  -9   -5.20    7.20
   8  -7  -9    2.10    7.90
  -1   8  -9   25.10   16.80
  -7  -1  -9   11.50    7.70
   8  -7  -9   -2.70   16.10
  -1   8  -9   10.00   14.20
  -8   7   9   -1.90   15.40
  -8   7   9   10.00   15.20
   1  -8   9   11.30    9.90
   1  -8   9   -0.70    8.80
   7   1   9   -8.80   10.80
   7   1   9    5.10    6.00
   2   5  -9   14.50   12.80
  -7   2  -9    4.40   12.50
   2   5  -9    1.40   11.10
  -7   2  -9   -2.30   12.70
   5  -7  -9   -7.00   14.90
  -7   2  -9   11.60   16.50
   2   5  -9    0.60   12.60
   5  -7  -9    1.50   19.80
  -5   7   9   17.20   12.10
  -2  -5   9    1.50   15.40
   7  -2   9   10.70    9.30
  -2  -5   9   -4.20   13.90
  -5   7   9   21.90   10.80
  -5   7   9   15.30    9.70
   7  -2   9   12.90   11.70
  -2  -5   9   33.60   15.20
  -2  -5   9    4.00   13.70
   7  -2   9    5.30   12.40
   2  -7  -9   50.69   15.20
   2  -7  -9   20.30    9.60
   5   2  -9   23.40   23.30
   5   2  -9   34.60   11.50
  -7   5  -9   20.70   12.50
  -7   5  -9   39.10   12.00
   7  -5   9   32.00   10.10
  -2   7   9   36.90   13.30
  -2   7   9   39.30    9.80
  -2   7   9   36.40    8.20
   7  -5   9   20.60    7.70
  -2   7   9    4.40   17.00
  -5  -2   9   28.80   16.40
  -5  -2   9   47.30   10.10
   7  -5   9   25.00   12.30
   8  -1  -9   29.10   11.30
  -7   8  -9   16.90   15.40
   8  -1  -9    2.80    8.60
   8  -1  -9   13.10   12.30
  -1  -7  -9   11.60   11.70
  -7   8  -9    6.20   11.80
  -7   8  -9   26.60    9.70
  -8   1   9   16.40   12.50
  -8   1   9   23.70   14.70
   7  -8   9   20.80    7.00
   7  -8   9   11.80   10.30
   1   7   9    9.40    7.40
   1   7   9   19.00    5.80
   1   7   9   26.20   11.40
  -7  11  -9    5.60    8.10
  11  -4  -9    9.40    8.60
  -4  -7  -9    4.30    9.50
  11  -4  -9   11.80   14.00
  -4  -7  -9    2.60   17.20
  -7  11  -9    1.30   10.80
 -11   4   9    8.50   13.50
 -11   4   9   -5.90    8.60
   7 -11   9   19.10    8.90
   4   7   9    1.80    6.00
   7 -11   9   12.70   10.50
   4   7   9   34.80   20.50
   4   7   9   -4.30    7.20
  -7  14  -9   15.10    8.90
  14  -7  -9   27.60   21.10
  -7  14  -9   -3.40   10.90
  -7  -7  -9   22.00    9.90
  14  -7  -9   -1.60    9.10
  -7  -7  -9   13.20   12.80
 -14   7   9   -5.70    9.10
   7   7   9    2.30    7.80
   7   7   9   23.60    8.20
   7   7   9    4.70    7.40
 -14   7   9   10.50   14.00
   7 -14   9   23.30    9.20
  -5  13  -9   28.90    7.40
  13  -8  -9   23.50    9.20
  -5  13  -9    9.50    8.80
  -8  -5  -9   42.10   20.00
  -8  -5  -9   18.10    6.40
  13  -8  -9   41.90   20.50
 -13   8   9   13.00   15.30
 -13   8   9   37.30   11.30
   5 -13   9   26.60    9.70
 -13   8   9   42.00   14.90
   8   5   9   13.20    7.00
  -8  -2  -9    6.00    8.30
  10  -8  -9    5.70   16.00
  -8  -2  -9   18.50   15.10
  -2  10  -9   29.20   13.80
  10  -8  -9   14.30    9.50
  -2  10  -9    7.40    9.00
  -8  -2  -9  -17.10   17.10
  -2  10  -9   -7.50    6.70
 -10   8   9   -2.40   20.10
   8   2   9    4.40    6.60
   2 -10   9   -0.40    8.50
 -10   8   9   18.50    7.90
   8   2   9   14.70    7.00
   2 -10   9    2.90    8.80
 -10   8   9    9.10   13.50
   1   7  -9   -2.60    6.40
   7  -8  -9    8.80   18.80
   1   7  -9   -3.30    8.60
  -8   1  -9   -3.70   14.10
   1   7  -9    0.50   14.50
  -8   1  -9    7.00   15.90
  -8   1  -9   13.70    7.20
  -1  -7   9    3.30   12.90
  -7   8   9   10.70   11.20
   8  -1   9   -9.30   14.00
  -7   8   9   -5.60   13.20
   8  -1   9    1.50   11.00
  -7   8   9   -4.00   15.50
   8  -1   9    9.50    6.00
  -1  -7   9   -1.70   15.30
  -1  -7   9    4.60    7.40
   4   4  -9    5.10   12.80
   4  -8  -9  -10.20   11.40
   4   4  -9   -2.40   11.60
  -4  -4   9    1.80   15.00
   8  -4   9   -0.70   10.30
   8  -4   9    7.80   11.40
  -4   8   9    7.40   19.10
   8  -4   9   16.30    8.10
  -4   8   9   -9.80   12.30
  -4   8   9   15.10    9.60
  -8   7  -9   33.40    7.50
  -8   7  -9   38.30   13.10
   7   1  -9   36.60   27.80
   7   1  -9   15.50   11.50
   1  -8  -9   25.30    9.10
   7   1  -9   26.90   13.90
  -1   8   9    1.90   19.40
  -1   8   9   23.00    6.10
  -1   8   9   19.10   10.10
  -1   8   9   43.30   11.30
   8  -7   9   33.90   11.10
  -1   8   9   14.70    8.60
   8  -7   9   27.60    7.20
  10  -2  -9    9.30   12.20
  10  -2  -9    5.40    9.80
  10  -2  -9   -1.80   12.30
  -8  10  -9   -2.70   11.30
  -2  -8  -9   -2.40    9.80
  -8  10  -9    4.00    8.00
  -2  -8  -9    1.20   16.50
   2   8   9    2.40   15.30
 -10   2   9   -5.00   14.30
   8 -10   9   -5.00    7.10
   8 -10   9    6.70   11.10
   2   8   9   12.30   20.50
   2   8   9   -7.40    5.80
   2   8   9  -11.40    7.70
  -8  13  -9   10.80   10.50
  -5  -8  -9    6.90   22.50
  13  -5  -9   -9.10    8.90
  -8  13  -9    9.80    9.20
  -5  -8  -9   20.70   11.10
  13  -5  -9   -8.50   16.40
  -8  13  -9   23.20   15.00
   8 -13   9   -1.20    9.90
 -13   5   9   -3.10   13.80
   5   8   9   20.70    8.20
   5   8   9    6.90    7.30
 -13   5   9    1.20    9.40
   8 -13   9   11.10    8.60
  16  -8  -9   22.70   10.00
  -8  16  -9   -1.20    8.90
  -8  -8  -9   30.90   12.30
  -8  -8  -9   18.30   13.90
  -8  16  -9   16.20   11.90
 -16   8   9   41.70   12.10
   8   8   9   15.80    9.10
   8   8   9   34.30    9.60
   8   8   9   14.20    7.60
 -16   8   9    3.70   13.40
   8   8   9   31.90    9.50
  -9  -6  -9   -9.30   13.00
  -6  15  -9   29.10   10.40
  -9  -6  -9   25.50    8.60
  15  -9  -9   10.50    9.00
  15  -9  -9    7.40   10.60
   9   6   9    8.70    8.60
   9   6   9   23.80    8.40
 -15   9   9    6.40   14.80
 -15   9   9   -7.90   15.50
   6 -15   9    8.90    9.00
 -15   9   9   -8.00   10.30
   9   6   9   21.40    7.80
 -15   9   9   14.60   16.20
  -9  -3  -9   27.00    6.90
  -9  -3  -9   13.40    8.80
  -9  -3  -9   41.80   19.10
  -3  12  -9    4.20    6.90
  -3  12  -9    8.10    7.90
   9   3   9   10.70    5.80
 -12   9   9   22.60   12.20
 -12   9   9   17.90   18.60
 -12   9   9   14.00   15.00
   9   3   9   17.10    8.30
   3 -12   9   32.90    9.60
 -12   9   9   -5.00   15.50
   3 -12   9   20.20    8.80
   0   9  -9  -11.30    7.20
   9  -9  -9  -16.70   11.00
   0   9  -9   -7.20    6.90
  -9   0  -9   -9.40    7.90
   9  -9  -9    6.70    9.70
   0   9  -9   -7.80    6.70
  -9   0  -9   -6.60   16.70
  -9   0  -9   -1.20   16.70
  -9   9   9    5.80   18.90
   0  -9   9   -7.20   11.90
  -9   9   9    4.20   14.70
   0  -9   9    4.00   15.20
  -9   9   9  -12.20   15.40
   9   0   9    1.50    5.80
   0  -9   9   17.80   10.30
  -9   9   9   15.70   15.10
   3   6  -9    3.50    6.60
   6  -9  -9   -4.00    8.50
  -9   3  -9   -2.30    7.20
   6  -9  -9  -22.00   22.40
  -9   3  -9   24.90   14.00
   3   6  -9    0.00    5.80
  -9   3  -9   25.00   19.20
   3   6  -9   16.20   13.20
  -6   9   9   20.30   12.90
   9  -3   9    7.30    9.00
  -3  -6   9   15.60    8.90
  -3  -6   9    3.50   12.90
   9  -3   9    2.20    5.60
  -6   9   9   19.40   15.50
   9  -3   9    5.10   11.10
  -6   9   9    2.30   10.10
  -9   6  -9   26.50   13.00
   3  -9  -9   39.90   10.70
   6   3  -9   36.70   25.20
   3  -9  -9   40.90    9.50
   6   3  -9   21.30   13.50
   6   3  -9    7.80    9.40
   6   3  -9   21.10    5.80
  -9   6  -9   28.90    8.80
  -3   9   9   24.40   12.30
   9  -6   9    9.20   10.80
   9  -6   9   22.90    7.60
  -3   9   9   14.40   17.90
  -6  -3   9   25.50    8.10
  -3   9   9   37.70   11.00
   9  -6   9   10.60   11.40
   0  -9  -9    6.20   14.60
   0  -9  -9   29.60    9.50
   9   0  -9   32.80   12.40
  -9   9  -9   32.70   15.90
   9   0  -9   20.30   11.70
   9  -9   9   22.50    6.60
   0   9   9   40.60   13.50
   9  -9   9    6.50   11.70
   0   9   9   13.90   13.30
   0   9   9   18.70    6.60
   0   9   9   29.70    7.40
   9  -9   9   26.00    5.90
   0   9   9   -0.90   21.80
  -9  12  -9   10.40   11.40
  12  -3  -9    9.50   13.60
  -3  -9  -9   10.00   18.10
  -3  -9  -9  -15.30    8.90
  12  -3  -9  -10.90    8.00
  -9  12  -9   -1.40    9.10
  -9  12  -9    5.20    8.40
   3   9   9   -2.00   23.60
   3   9   9  -14.30    7.80
   9 -12   9   -6.00   12.00
 -12   3   9   -1.00    8.10
 -12   3   9    2.90   13.50
   9 -12   9    1.80    7.10
   3   9   9   -9.80    6.60
  -6  -9  -9   26.70   11.50
  -6  -9  -9   16.90   13.30
  -9  15  -9  -15.80   11.20
  15  -6  -9   27.80   10.30
  -9  15  -9    5.80    9.90
  15  -6  -9   34.70   18.80
 -15   6   9   13.40   13.50
   9 -15   9    3.70    6.70
   6   9   9   10.30   15.40
 -15   6   9    9.40   10.70
   6   9   9   19.50    6.70
   6   9   9    6.10    7.70
   9 -15   9    5.70    6.70
   6   9   9   14.40    8.40
   9 -15   9   -8.50    8.00
  -9  -9  -9   12.60   14.10
  18  -9  -9   28.10   10.70
  -9  -9  -9   15.50   12.30
  -9  18  -9   -5.80   12.30
  -9  18  -9    1.50   11.00
 -18   9   9   30.10   13.10
   9   9   9    7.90    9.70
   9 -18   9   10.30    7.40
  17 -10  -9    4.20   11.10
 -10  -7  -9   10.40   13.90
 -10  -7  -9   -1.10   10.80
  -7  17  -9   -9.70    8.80
  -7  17  -9   14.40   11.50
  10   7   9   23.10    8.40
  10   7   9   -6.80    9.30
  10   7   9    7.50    9.30
 -17  10   9   30.00   13.50
   7 -17   9   15.00   13.60
 -17  10   9  -19.70   18.70
 -10  -4  -9    1.40    8.80
  -4  14  -9   12.60   10.50
  -4  14  -9  -14.40    8.90
 -10  -4  -9   29.00   21.60
  14 -10  -9   -6.40    9.70
  10   4   9   -3.50    6.00
   4 -14   9   -5.90   11.00
  10   4   9   15.80    7.40
 -14  10   9   -6.30   18.40
   4 -14   9    1.90    8.30
 -14  10   9   -0.50   16.00
  10   4   9  -10.40    7.20
 -14  10   9    3.90   10.80
  10   4   9   13.40    9.80
 -14  10   9  -13.40   18.00
 -10  -1  -9   38.20    9.20
 -10  -1  -9   43.40   18.30
  11 -10  -9   14.90    9.60
 -10  -1  -9   23.60    9.30
  -1  11  -9   14.90    7.80
  -1  11  -9   37.20   10.30
  11 -10  -9   25.30   10.60
  -1  11  -9   28.90    7.10
  10   1   9   32.30   15.90
  10   1   9   22.50    5.70
   1 -11   9   36.40   10.30
   1 -11   9   10.70   15.60
 -11  10   9   22.70   18.30
 -11  10   9   48.40   21.00
 -11  10   9   47.10   17.00
   1 -11   9   27.60   10.90
   8 -10  -9   19.30    9.10
   8 -10  -9    2.20    9.60
 -10   2  -9    8.30    7.00
   2   8  -9   -4.30    7.00
   2   8  -9    0.10   16.80
 -10   2  -9    4.60    7.10
  -8  10   9   -1.50   14.10
  -8  10   9   14.10   17.80
  -2  -8   9    0.20    7.80
  10  -2   9    5.50   12.10
  10  -2   9    4.80    6.50
  -2  -8   9  -19.40   17.50
  10  -2   9   -5.10   12.90
  -2  -8   9   15.50   12.40
  -8  10   9   -7.20   11.60
   5   5  -9   72.69   13.60
   5   5  -9   85.89    8.40
   5   5  -9   93.59    7.40
 -10   5  -9   73.89    9.60
  10  -5   9   65.39   11.10
  -5  10   9   73.79   10.60
  10  -5   9   77.19    9.90
  -5  10   9   84.29   10.80
  10  -5   9   91.69    7.70
   8   2  -9    6.60    6.30
   2 -10  -9   -8.50    8.50
   8   2  -9    6.00   13.90
 -10   8  -9    3.20    8.00
 -10   8  -9   15.80   14.10
   8   2  -9   11.50   13.70
   8   2  -9  -10.10   12.30
  -2  10   9   18.70   14.70
  10  -8   9   10.00   12.40
  -2  10   9   -1.60   17.70
  -8  -2   9   10.70    8.30
  -2  10   9    1.40    7.10
  10  -8   9    7.70    6.30
  -2  10   9   -4.80   11.20
  -2  10   9   -6.20    6.40
 -10  11  -9  -10.20    8.00
  11  -1  -9  -20.70   12.20
  -1 -10  -9   -9.80    9.30
  -1 -10  -9   11.50   19.20
  11  -1  -9    8.80    9.90
 -10  11  -9  -13.10    9.30
  11  -1  -9    5.90   11.70
 -11   1   9   -3.70   17.60
  10 -11   9    3.70    5.30
  10 -11   9   -2.10   12.60
  10 -11   9    3.20    5.40
 -11   1   9   -8.00    7.60
   1  10   9    0.70   18.40
 -10  14  -9   24.60   11.60
  -4 -10  -9   19.50   21.40
 -10  14  -9   23.30    9.40
  14  -4  -9    3.90   16.20
  -4 -10  -9   29.20   12.10
 -10  14  -9   49.10   14.10
 -14   4   9    7.30    9.50
 -14   4   9   30.60   15.40
   4  10   9   29.00    6.80
  10 -14   9   30.70    6.70
  10 -14   9   28.30   10.30
   4  10   9   39.40    7.30
   4  10   9   13.60    7.30
  10 -14   9   16.60    6.20
  -7 -10  -9   14.70   14.30
 -10  17  -9   26.30   11.80
  17  -7  -9   20.50   10.10
 -10  17  -9    2.70   12.10
   7  10   9   -3.70    8.00
   7  10   9  -15.70    8.90
   7  10   9    1.30   26.10
   7  10   9  -15.30    8.10
 -10 -10  -9   -1.40   16.60
 -10  20  -9  -10.00   14.80
 -10 -10  -9   19.90   14.30
 -10  20  -9  -12.70   12.60
  20 -10  -9    7.30   12.60
  10  10   9   14.80   10.20
  10  10   9  -21.10   12.80
  10  10   9   -6.40   13.20
  10  10   9  -13.60    9.40
  19 -11  -9   -0.60   11.70
  -8  19  -9  -10.40   11.30
 -11  -8  -9  -10.30   13.80
 -11  -8  -9   14.70   15.60
 -19  11   9   27.70   15.00
  11   8   9  -10.60   12.50
  11   8   9   -6.20   10.20
  -5  16  -9   16.10    8.80
  16 -11  -9    0.80   10.00
 -11  -5  -9  -10.00    7.90
  -5  16  -9   -0.70    9.80
  11   5   9    9.10    7.20
  11   5   9    3.40    8.60
   5 -16   9   20.70   13.30
 -16  11   9   -4.70   12.80
   5 -16   9  -11.90    8.10
 -16  11   9    9.60   14.70
 -16  11   9   11.10   22.90
  11   5   9   14.00    9.40
 -11  -2  -9  -13.90    8.00
 -11  -2  -9   13.10   19.60
 -11  -2  -9   -2.90    8.20
  -2  13  -9    5.30    8.40
  13 -11  -9  -13.20   10.10
  13 -11  -9    0.60   10.00
  -2  13  -9   -1.10    8.60
  -2  13  -9   21.70   10.40
   2 -13   9    9.90    9.30
  11   2   9   10.40    6.80
   2 -13   9   24.40   15.50
   2 -13   9  -13.30    9.50
  11   2   9   -1.80    5.90
 -13  11   9  -10.10   18.40
  11   2   9    3.00    9.70
 -13  11   9  -19.40   12.40
 -13  11   9   21.70   20.30
   1  10  -9    3.10    6.30
   1  10  -9    1.70    7.40
 -11   1  -9   13.00    9.30
  10 -11  -9  -10.80   10.10
   1  10  -9    0.10    8.70
 -11   1  -9   -1.40    8.20
 -11   1  -9    1.60   18.00
 -10  11   9   -9.40   14.60
  -1 -10   9  -17.80   15.90
 -10  11   9   -2.00    9.30
 -10  11   9   19.60   22.00
 -10  11   9    4.70   27.50
  -1 -10   9    4.70   11.80
  -1 -10   9   19.20    9.70
 -11   4  -9   24.70   16.20
   4   7  -9    3.40    5.60
   4   7  -9   20.10   15.30
   4   7  -9    3.10    7.50
   7 -11  -9   13.70    8.80
   7 -11  -9   30.00   22.60
  11  -4   9   -1.20    9.70
  -7  11   9  -15.10   22.60
  11  -4   9    3.30   10.60
  -4  -7   9   -7.50    6.70
  -7  11   9   -7.00    5.50
  11  -4   9   15.50    6.10
  -7  11   9    0.10   11.30
  -7  11   9  -14.90    8.90
   7   4  -9    2.80    7.60
 -11   7  -9    7.40   13.60
   4 -11  -9    7.80    8.30
   7   4  -9    0.60   10.70
   7   4  -9    4.00    5.50
   4 -11  -9    0.40   10.40
 -11   7  -9   17.60    8.20
  11  -7   9   -6.20    6.60
  -4  11   9   -5.40    8.10
  11  -7   9   22.40   13.90
  -4  11   9    1.30   11.00
  11  -7   9   10.40    7.30
  -4  11   9    9.00   15.70
  -4  11   9   10.90    7.30
  -4  11   9    1.10   16.40
 -11  10  -9    0.30    7.80
 -11  10  -9   10.50   15.30
   1 -11  -9   29.10   17.90
  10   1  -9  -12.50   11.40
  10   1  -9  -11.10   14.30
  11 -10   9    2.00   13.10
 -10  -1   9   -8.80    6.80
  -1  11   9   11.20   14.00
  -1  11   9  -12.90    6.10
  -1  11   9   25.40   17.60
  -1  11   9  -12.10   19.10
  13  -2  -9  -14.70   11.90
  -2 -11  -9   35.70   22.90
 -11  13  -9   -5.00   10.60
 -11  13  -9   19.20   20.60
 -11  13  -9    6.50    9.50
  13  -2  -9    5.10    8.80
  -2 -11  -9    5.50   10.30
   2  11   9    6.80    7.80
   2  11   9    1.10    9.20
 -13   2   9    1.00    9.00
   2  11   9    7.10    6.20
  11 -13   9   17.30   12.40
  11 -13   9   12.70    5.60
 -13   2   9   37.10   17.50
 -11  16  -9   21.20   11.50
  -5 -11  -9    4.90   12.30
  16  -5  -9   28.00   10.70
   5  11   9   15.70    8.30
   5  11   9   -2.80   13.90
  11 -16   9   23.80   13.40
   5  11   9    5.20    7.50
  19  -8  -9   23.40   11.50
 -11  19  -9    6.70   13.30
 -11  19  -9   13.00   12.80
 -19   8   9   15.10   14.70
  11 -19   9   13.50    8.80
   8  11   9   24.50   10.70
   8  11   9   10.20   10.70
   8  11   9   10.20    9.20
   8  11   9   17.40    8.90
  -6  18  -9   19.90   13.00
 -12  -6  -9   16.50    9.10
  18 -12  -9    0.10   10.80
  -6  18  -9   21.30   10.80
 -12  -6  -9  -14.80   14.20
  -6  18  -9   11.20   11.50
  12   6   9   -9.80   10.70
  12   6   9    8.80    8.40
  12   6   9    0.60    8.50
 -18  12   9   -5.50   23.80
  12   6   9   -6.10   11.90
  -3  15  -9   10.10   11.50
 -12  -3  -9   28.50   22.70
 -12  -3  -9    3.20    7.90
  15 -12  -9  -12.00    9.60
  15 -12  -9   -3.30    8.90
  -3  15  -9   -9.20    8.00
  12   3   9   -0.40    6.10
  12   3   9    9.80   10.30
   3 -15   9   20.20    9.20
   3 -15   9   -6.70   12.00
 -15  12   9    0.50   24.80
 -15  12   9  -11.50   13.90
  12   3   9    6.50    7.90
 -15  12   9   -7.10   18.10
 -15  12   9   -7.60   12.90
   0  12  -9    0.90    8.70
   0  12  -9    1.80    7.70
   0  12  -9  -12.30    7.70
 -12   0  -9    0.50   19.10
 -12   0  -9    0.50    8.90
  12 -12  -9   -3.80    9.60
  12   0   9    8.60    7.40
  12   0   9   -9.90    6.10
  12   0   9   13.60   18.70
   0 -12   9  -13.60   13.70
   0 -12   9  -12.50   11.60
   0 -12   9   19.40   10.90
 -12  12   9   -4.10    9.40
  12   0   9   -3.40    5.50
 -12  12   9    2.30    8.90
 -12  12   9   -0.10   12.50
 -12  12   9    2.90   10.30
 -12  12   9  -14.20    7.30
   3   9  -9   -6.60    6.70
   9 -12  -9  -11.00    8.50
   3   9  -9  -13.70    6.30
   3   9  -9  -11.30    6.30
   9 -12  -9   27.30   13.20
 -12   3  -9    1.00    8.00
  12  -3   9    5.60   11.00
  -9  12   9   15.00    9.20
  -9  12   9    0.20   24.80
  -9  12   9   -6.90    7.10
  -9  12   9    7.80   12.60
  12  -3   9   -0.70    4.20
  -9  12   9  -17.00    9.70
  12  -3   9  -20.20   11.10
  -3  -9   9    1.90   11.60
  12  -3   9    0.00    5.60
  -3  -9   9  -16.70    8.60
   6   6  -9   11.80   13.80
   6 -12  -9   18.90    9.70
   6   6  -9   -4.60    7.40
 -12   6  -9   10.30    7.90
 -12   6  -9   14.50   10.20
   6   6  -9    6.90    5.30
   6   6  -9   -8.70   31.00
  12  -6   9    7.70    5.00
  -6  12   9   12.10   11.50
  12  -6   9   -0.70    9.90
  12  -6   9    2.90    9.30
  12  -6   9   21.10    6.70
  -6  12   9   35.20   23.10
  -6  12   9   15.30    8.20
  -6  -6   9    2.90    6.30
  -6  12   9    1.00    7.20
   9   3  -9   41.00    6.70
   9   3  -9   34.10    6.50
   9   3  -9   26.40   13.80
   9   3  -9   29.70    7.30
   3 -12  -9   26.60   10.90
   9   3  -9   37.50    9.80
 -12   9  -9   36.70   15.30
 -12   9  -9   25.30    9.50
  -3  12   9   67.99   21.20
  12  -9   9   42.00    7.90
  -9  -3   9   46.50    7.90
  -3  12   9   51.69   12.20
  -3  12   9   52.99    8.60
  -3  12   9   35.00   15.10
  12  -9   9   40.80    6.50
  -3  12   9   45.70    7.90
   0 -12  -9    2.60   11.10
 -12  12  -9   10.00    8.90
 -12  12  -9   16.10    9.50
   0 -12  -9   -5.00   22.00
  12   0  -9   11.10   10.30
  12   0  -9    3.80   13.10
   0  12   9   12.30    7.40
   0  12   9   -2.70    6.80
  12 -12   9    3.50    5.10
   0  12   9    5.60   19.90
  12 -12   9    9.70   14.30
 -12   0   9   -5.20    8.70
  15  -3  -9    2.10    9.80
 -12  15  -9   16.40   10.70
  -3 -12  -9   23.50   12.90
  -3 -12  -9   22.00   13.20
  12 -15   9  -16.10   16.70
   3  12   9    4.50    7.50
   3  12   9    2.60    7.80
   3  12   9   13.30    8.40
  12 -15   9    7.40    6.40
 -12  18  -9   13.10   12.10
  18  -6  -9  -10.70   12.10
  -6 -12  -9    7.10   12.40
  -6 -12  -9   -1.20   16.50
 -12  18  -9  -13.40   12.50
   6  12   9    4.60    9.30
   6  12   9   29.00   11.30
   6  12   9    6.40    8.90
   6  12   9   -5.10   16.60
  -7  20  -9   -3.20   14.50
  -7  20  -9  -14.30   12.40
 -13  -7  -9   -9.50   15.00
  13   7   9   17.30   12.30
  13   7   9   16.80   14.70
 -20  13   9  -28.20   16.40
 -13  -4  -9   -9.90   22.60
  -4  17  -9   12.50   10.60
  17 -13  -9  -15.60   10.80
  -4  17  -9    7.20    9.70
 -13  -4  -9    8.50    9.20
 -17  13   9   16.60   16.20
 -17  13   9   12.10   17.10
  13   4   9   -0.40   12.00
 -17  13   9  -19.10   13.00
  13   4   9    7.40    7.60
 -17  13   9  -15.40   14.20
  13   4   9    1.20    9.00
  14 -13  -9   19.80   10.40
 -13  -1  -9   25.30   12.30
  -1  14  -9   -5.90    7.80
  14 -13  -9   23.90   11.60
  -1  14  -9   19.80    9.80
 -13  -1  -9    5.90   19.70
 -13  -1  -9    4.10    8.60
  -1  14  -9   -5.90    9.30
 -14  13   9   23.10   11.20
 -14  13   9  -10.10    9.80
  13   1   9    2.60    6.60
 -14  13   9  -25.40   12.70
  13   1   9   -5.60   11.60
   1 -14   9   -1.80   10.90
  13   1   9   -1.20    7.50
  13   1   9    3.20    7.90
  11 -13  -9   -1.20   12.30
 -13   2  -9   -3.50    8.30
   2  11  -9   13.70    8.50
   2  11  -9   18.80    8.20
  11 -13  -9   15.90    8.90
   2  11  -9    1.40    7.40
 -13   2  -9   -0.60   19.00
  13  -2   9   -5.10    5.30
  -2 -11   9    4.30    9.00
  13  -2   9   -5.40    6.90
 -11  13   9   10.30   11.00
  -2 -11   9   -0.30   10.20
 -11  13   9   -1.20   15.20
 -11  13   9    7.40    9.10
 -11  13   9    3.80    8.70
  13  -2   9    8.20    6.30
 -11  13   9   -7.10   14.00
   5   8  -9   10.60    5.90
 -13   5  -9  -12.40    7.70
   8 -13  -9   19.60   10.40
   5   8  -9   -0.10    7.60
 -13   5  -9  -13.00    8.80
   5   8  -9    8.00   17.70
  -8  13   9   -1.10    8.80
  13  -5   9   -1.90    5.50
  13  -5   9    7.40   10.80
  -8  13   9    9.60   11.40
  13  -5   9    0.50    9.80
  13  -5   9  -12.00    5.90
  -8  13   9  -12.60    8.20
  -5  -8   9   -3.20    8.20
   5 -13  -9   31.20   12.80
   8   5  -9   16.80    6.90
   8   5  -9   -1.80   12.60
   8   5  -9   -0.70   16.40
  13  -8   9   12.00    5.70
  -5  13   9   21.20    7.80
  -5  13   9   27.10   11.90
  -5  13   9   11.40   27.80
  -5  13   9   17.80    8.10
  13  -8   9   44.80   14.20
  13  -8   9    7.10    8.50
  11   2  -9    4.80    8.50
  11   2  -9   -4.10    9.90
 -13  11  -9   -5.50    9.00
  11   2  -9   28.40   12.70
 -13  11  -9    2.00   14.50
  -2  13   9   26.50   13.40
  -2  13   9   18.20    8.00
 -11  -2   9   13.00    8.80
  13 -11   9    1.10    5.50
  13 -11   9   -1.60    7.50
  -2  13   9    2.70    6.80
  -2  13   9    9.50   14.60
 -13  14  -9    6.40   11.10
  -1 -13  -9   14.70   12.90
  14  -1  -9  -18.50   14.10
 -13  14  -9    5.80    9.70
  13 -14   9   -6.10   20.40
   1  13   9    6.40    7.50
   1  13   9    6.30    7.30
  13 -14   9    1.90    6.10
  -4 -13  -9   13.70   14.70
 -13  17  -9   14.00   11.60
  17  -4  -9   16.70   11.70
  -4 -13  -9  -11.40   13.50
 -13  17  -9  -10.50   11.90
   4  13   9    7.10    9.90
  13 -17   9   28.10    7.80
   4  13   9   25.50    9.20
   4  13   9   13.20    8.50
   4  13   9   -0.50   21.50
 -13  20  -9  -22.50   14.00
  20  -7  -9   29.50   13.90
  -7 -13  -9    7.70   17.30
  -7 -13  -9   19.70   15.40
  13 -20   9    2.00    9.40
   7  13   9   -8.70   13.10
 -14  -5  -9   14.60    9.60
  -5  19  -9    7.00   18.20
  -5  19  -9   -6.00   12.90
  14   5   9   12.90   11.80
  14   5   9   15.50   13.30
  14   5   9   -5.60    9.60
 -19  14   9   -0.40   14.00
  14   5   9    6.30    9.00
  -2  16  -9   -3.10   10.30
  16 -14  -9    2.40   13.20
 -14  -2  -9    1.40    9.00
  -2  16  -9   -6.10   10.60
 -14  -2  -9   15.50   21.50
  14   2   9    9.70    7.50
 -16  14   9   21.50   11.30
 -16  14   9   28.80   14.10
 -16  14   9   17.10   14.20
  14   2   9    7.10    7.90
   2 -16   9  -10.00   12.40
 -16  14   9   28.00   12.60
  14   2   9   14.70    8.90
   2 -16   9   12.30    9.80
 -14   1  -9   16.90   20.10
   1  13  -9   18.60    9.20
  13 -14  -9   -3.20   11.90
 -14   1  -9   11.10   10.80
   1  13  -9   22.80    9.50
   1  13  -9    8.30    8.90
  13 -14  -9   14.30    9.00
  14  -1   9   30.00   21.70
  14  -1   9   16.90    6.80
  14  -1   9    9.30    6.20
 -13  14   9   14.10   10.90
 -13  14   9   32.10   10.00
 -13  14   9   32.60   10.20
 -13  14   9   18.80   11.70
 -13  14   9   -9.30   13.30
  10 -14  -9    2.80   10.00
   4  10  -9   -3.20    8.10
 -14   4  -9   -9.10    9.10
   4  10  -9    1.20    7.70
   4  10  -9   11.80    7.70
 -14   4  -9   -6.30    8.80
  14  -4   9    7.90    5.30
 -10  14   9   -1.20   13.90
 -10  14   9   11.20    9.10
 -10  14   9   11.20    9.20
 -10  14   9    9.60    9.90
  14  -4   9  -10.20    6.60
  14  -4   9   -9.90    9.40
  -4 -10   9   -9.60   13.90
   7 -14  -9   21.10   11.50
   7   7  -9    7.70    8.40
 -14   7  -9   18.30    9.40
   7   7  -9   17.20   16.00
   7   7  -9    2.10   15.70
   7   7  -9    5.90    7.40
  -7  14   9   21.90   12.00
  -7  14   9   21.40    8.60
  14  -7   9   10.80    5.30
  14  -7   9    4.00   10.20
  14  -7   9   -7.10   10.00
  14  -7   9   14.10    6.70
  -7  14   9    9.30    8.40
  10   4  -9   26.60    8.40
   4 -14  -9   25.20   11.00
  10   4  -9   24.20    7.80
 -14  10  -9   21.10   10.50
  10   4  -9   12.00    6.00
 -14  10  -9    6.70   16.50
  10   4  -9    8.90   15.40
  10   4  -9   11.30   10.90
  -4  14   9   27.20   12.70
  -4  14   9   16.60   13.90
  14 -10   9   11.50    5.90
  14 -10   9   23.50    7.50
  -4  14   9    7.30    7.40
  -4  14   9   12.50    7.50
 -10  -4   9    9.30    9.00
  13   1  -9   19.30   13.80
  13   1  -9   -7.30   15.70
   1 -14  -9    3.40   10.90
   1 -14  -9  -14.40   34.10
  13   1  -9   -1.80    8.30
 -14  13  -9   14.30   10.50
 -14  13  -9   21.60    9.50
  -1  14   9   -3.50    7.70
 -13  -1   9    1.10    7.70
  14 -13   9   25.70   10.90
  14 -13   9    5.30    6.30
  -1  14   9   10.00    7.70
  -2 -14  -9    4.00   13.50
  16  -2  -9  -15.60   11.50
 -14  16  -9    3.90   13.50
 -14  16  -9   10.60   10.70
   2  14   9   -9.80    8.90
 -16   2   9  -14.10    9.60
   2  14   9   -0.30    7.90
   2  14   9   11.50    9.20
  14 -16   9   -5.00    7.60
  14 -16   9  -22.60   19.20
  -5 -14  -9   23.50   16.00
 -14  19  -9   -5.90   13.10
  19  -5  -9    9.20   21.00
  -5 -14  -9   -5.20   14.50
  14 -19   9  -11.40    9.20
   5  14   9  -14.30   11.90
 -19   5   9  -21.70   11.80
   5  14   9   -2.50   10.10
  18 -15  -9   19.90   13.60
  -3  18  -9    0.00   12.10
  15   3   9    4.80    7.80
  15   3   9   16.90   13.10
 -18  15   9   -2.40   14.60
 -18  15   9   24.70   16.50
  15   3   9    4.00   10.70
 -18  15   9  -16.10   11.00
   3 -18   9  -20.70   13.60
  15   3   9    0.60    9.00
 -15   0  -9    9.10   20.90
  15 -15  -9  -10.40    9.40
   0  15  -9    5.10    9.20
  15 -15  -9  -11.70   12.90
 -15   0  -9   16.30   12.70
 -15   0  -9   13.90    9.20
 -15  15   9    4.10   11.70
  15   0   9   -7.60    6.90
  15   0   9   -3.70    8.30
 -15  15   9    0.90   13.50
  15   0   9   -0.80    7.50
   0 -15   9  -14.60   14.10
  15   0   9   -4.90   11.90
 -15  15   9   -1.10    9.90
   0 -15   9   -3.10   14.20
 -15  15   9   16.80   12.00
 -15  15   9   14.70   10.40
 -15   3  -9    9.80   22.00
   3  12  -9    8.70    8.60
   3  12  -9    7.10    7.60
   3  12  -9  -13.40    9.10
 -15   3  -9    2.60   11.10
  12 -15  -9    9.30   10.10
 -12  15   9   -1.50   16.80
 -12  15   9  -12.00   10.20
  15  -3   9    4.30    6.30
  15  -3   9  -14.90   18.20
  15  -3   9   -6.50    6.40
 -12  15   9    3.30   15.70
 -12  15   9   -0.40   10.20
 -12  15   9    2.80   10.10
   6   9  -9   14.40    9.20
   6   9  -9    9.60    8.60
 -15   6  -9    1.60    8.80
 -15   6  -9   10.00    9.60
   9 -15  -9   10.10   11.20
  -9  15   9   -4.60    9.00
  -9  15   9    1.70   11.30
  -9  15   9   -2.50    7.80
  -9  15   9   20.30   12.60
  15  -6   9   -3.60   12.90
  15  -6   9    9.90    5.70
   9   6  -9   33.20   19.20
 -15   9  -9   32.30   11.30
   9   6  -9   12.90    8.10
   9   6  -9   20.50   13.80
   6 -15  -9   20.30   10.70
   9   6  -9   13.20   18.30
   9   6  -9   13.60    6.50
  15  -9   9   16.80    6.40
  15  -9   9   13.80    9.40
  15  -9   9    6.70    5.20
  -6  15   9   19.20   11.40
  -6  15   9   26.90    9.10
  -9  -6   9   15.60    8.00
  12   3  -9   21.80    7.70
   3 -15  -9   22.90   10.60
 -15  12  -9   19.80   22.00
 -15  12  -9   21.20   11.00
  -3  15   9   26.90    7.90
  -3  15   9    8.10    9.00
  -3  15   9   24.00   14.80
  15 -12   9   35.10    9.40
  15   0  -9   -6.60   18.50
   0 -15  -9    0.70   10.90
  15   0  -9   -3.20   12.30
   0 -15  -9   20.90   14.40
 -15  15  -9   -4.50    9.80
  15 -15   9   13.70   11.70
   0  15   9   17.10    9.50
   0  15   9   -5.00    8.30
 -15   0   9   -9.20    9.70
  15 -15   9  -12.70    6.70
  -3 -15  -9   24.40   15.80
  18  -3  -9   45.10   15.40
 -18   3   9   22.20   12.80
   3  15   9   26.30    9.20
  15 -18   9    9.80    8.50
  17 -16  -9   -4.00   13.20
  -1  17  -9  -11.50   11.50
 -17  16   9  -13.00   10.90
 -17  16   9   24.00   14.40
  16   1   9   14.20    7.90
 -17  16   9  -15.00   10.70
 -17  16   9    7.00   11.30
   1 -17   9   30.70   15.80
   2  14  -9   10.20    8.90
 -16   2  -9    9.20   22.30
 -16   2  -9  -11.60   10.20
   2  14  -9    5.10    9.50
  14 -16  -9    2.00   13.50
  14 -16  -9   -7.70   11.30
 -16   2  -9    8.40   11.60
  -2 -14   9   18.40    9.50
 -14  16   9   -0.60   11.20
  16  -2   9   -7.60    7.90
  16  -2   9   13.20    7.70
 -14  16   9   12.80   10.10
  16  -2   9  -22.50   21.90
 -14  16   9   16.90   10.70
  16  -2   9    4.80    6.90
  -2 -14   9   35.10   13.90
 -14  16   9   -8.30   13.70
 -14  16   9   -0.90   11.50
  11 -16  -9   39.10   13.70
 -16   5  -9   25.70   10.90
   5  11  -9   20.80    8.70
   5  11  -9   17.00    9.00
 -16   5  -9   20.70   10.90
  11 -16  -9   18.30   10.20
  -5 -11   9   15.70    9.20
 -11  16   9   15.00   11.00
 -11  16   9    4.00    9.70
 -11  16   9   -5.20   13.70
  16  -5   9   19.70    7.50
 -11  16   9   -1.40   10.20
  16  -5   9   16.30    7.70
  16  -5   9   22.70   18.10
   8   8  -9   15.20   20.00
   8   8  -9    4.50    7.40
 -16   8  -9   -0.80   11.20
 -16   8  -9   16.50   11.10
  -8  -8   9   12.80    8.60
  16  -8   9   12.80    5.80
  -8  16   9   12.50   11.00
  -8  16   9    6.90    9.80
  16  -8   9    0.30   11.60
  -8  16   9   11.60   11.70
  11   5  -9   22.20    9.00
  11   5  -9   13.50   13.60
  11   5  -9    4.00   12.90
 -16  11  -9   37.70   12.80
  11   5  -9   30.00    8.60
  11   5  -9   10.60   17.10
   5 -16  -9   19.20   11.70
  -5  16   9    8.80   12.70
  16 -11   9   11.80    6.50
 -11  -5   9   21.50   10.90
  -5  16   9   -3.90    9.70
 -16  14  -9    2.20   11.40
 -16  14  -9    1.70   10.60
   2 -16  -9    3.90   13.10
  -2  16   9   -0.70   16.00
 -14  -2   9   11.60    9.20
  16 -14   9   15.10   10.70
  16 -14   9    4.90    7.30
  -2  16   9    9.90    8.20
 -16  17  -9   18.00   10.60
  17  -1  -9   33.60   14.30
 -16  17  -9   11.60   14.10
  -1 -16  -9   -3.50   15.20
   1  16   9   13.30    8.80
   1  16   9   -2.30   10.00
   1  16   9    4.00   10.30
 -17   1   9   11.90   10.70
   2 -19   9   50.39   16.30
   1  16  -9    8.70    9.70
   1  16  -9   24.80   10.80
   1  16  -9    6.70   11.30
  16 -17  -9    0.50   11.40
 -17   1  -9  -11.90   13.50
 -16  17   9   -4.50    9.40
  -1 -16   9   12.50   16.10
  17  -1   9    0.00    8.10
 -16  17   9   10.20   11.50
  -1 -16   9   10.70    8.60
  17  -1   9    6.70    7.90
 -16  17   9   34.40   15.80
 -16  17   9  -14.30   13.50
 -16  17   9    1.60   10.90
   4  13  -9   -6.80    9.60
   4  13  -9   -8.60    8.60
 -17   4  -9   15.00   12.00
 -17   4  -9    5.10   13.30
  13 -17  -9    4.50   12.30
  13 -17  -9  -25.10   13.50
   4  13  -9   -1.90    8.80
 -17   4  -9   13.60   23.60
  -4 -13   9   -5.00   12.10
 -13  17   9  -18.20   17.30
 -13  17   9   -1.90   11.00
  17  -4   9   -7.00    8.40
  17  -4   9    9.40    6.50
  17  -4   9    8.00    7.60
 -13  17   9   17.90   10.40
 -13  17   9    1.10   12.00
   7  10  -9   13.70    8.30
   7  10  -9   -2.80   10.50
   7  10  -9   25.30    8.60
  10 -17  -9    8.90   10.80
 -17   7  -9   17.60   12.50
  17  -7   9   -8.20   15.00
 -10  17   9   10.40   10.50
  17  -7   9   14.50    8.60
  17  -7   9   24.90    6.30
 -10  17   9    6.10   13.40
 -10  17   9   16.90   11.70
   7 -17  -9   19.30   11.30
  10   7  -9    1.00   17.80
 -17  10  -9    0.60   11.90
 -17  10  -9  -13.60   12.80
  10   7  -9  -16.10   19.70
  10   7  -9   17.00    8.00
  -7  17   9   11.70   12.70
  -7  17   9    3.20   10.20
  17 -10   9    0.60    5.90
  -7  17   9    5.50    9.60
   4 -17  -9  -13.90   10.70
 -17  13  -9    0.60   21.00
  13   4  -9    3.70    9.60
  13   4  -9   -9.40    8.10
 -17  13  -9   13.60   12.20
  13   4  -9  -14.90   18.20
 -13  -4   9    8.80   10.90
  17 -13   9    5.60    7.00
  -4  17   9   25.40    8.80
  -4  17   9  -10.40   13.90
  -4  17   9   11.30   10.70
  17 -13   9   14.20    9.80
  16   1  -9   -6.60   10.10
   1 -17  -9   19.90   14.30
  16   1  -9    0.80   17.00
 -17  16  -9   -9.00   13.90
 -17  16  -9   17.30   10.40
 -16  -1   9    9.20   10.30
  17 -16   9   18.80    8.20
  -1  17   9   11.60    9.40
  17 -16   9   24.40   11.50
  -2 -17  -9  -37.90   18.50
 -18   0  -9   -5.60   10.50
 -18  18   9   -6.90   16.50
   0 -18   9  -22.60   16.20
  15 -18  -9  -14.90   14.60
   3  15  -9   -6.50   10.70
  15 -18  -9    5.90   13.40
 -18   3  -9   -2.30   14.30
  18  -3   9   19.00    8.20
  18  -3   9    8.30    8.00
 -15  18   9    3.50   17.30
 -15  18   9    4.20   10.90
  18  -3   9  -13.60    8.60
 -15  18   9    5.50   13.50
  -3 -15   9    7.20   11.50
 -15  18   9   -1.50   12.30
   6  12  -9   16.50    8.80
 -18   6  -9   15.50   12.20
  12 -18  -9   21.50   15.70
 -18   6  -9   22.10   14.20
 -12  18   9   -7.00   12.20
 -12  18   9   25.60   11.20
  18  -6   9   23.50    8.90
 -12  18   9   33.30   12.50
  18  -6   9    9.40    9.40
  18  -6   9   10.80    7.70
   9 -18  -9   -9.00   12.20
   9   9  -9   -8.80   10.40
 -18   9  -9    1.70   13.40
 -18   9  -9    8.60   11.70
   9   9  -9   -2.40    9.20
  -9  18   9    0.00   11.90
  -9  18   9    0.40   10.20
   6 -18  -9   11.40   10.70
 -18  12  -9   -8.10   13.80
  12   6  -9   40.10   21.00
  12   6  -9  -17.80    9.90
  12   6  -9    4.30    9.10
 -18  12  -9  -13.10   13.60
  -6  18   9   -0.70   11.70
  -6  18   9   14.80   13.90
  -6  18   9  -11.30    9.80
  18 -12   9   -6.50   10.40
  18 -12   9    4.20    7.30
  15   3  -9    3.20    9.10
  15   3  -9  -37.90   18.90
 -18  15  -9   19.60   12.80
  15   3  -9   13.40   10.20
   3 -18  -9   -1.20   14.50
 -18  15  -9   10.00   14.30
 -15  -3   9   -1.10   10.20
  18 -15   9    0.50    8.20
  18 -15   9    0.00   12.80
  -3  18   9    6.50   11.80
 -18   0   9    1.20   12.20
  -2 -17   9   29.30   18.50
  14 -19  -9    5.80   12.50
   5  14  -9    0.20   10.70
 -19   5  -9   -6.90   14.20
  14 -19  -9    8.50   16.70
   5  14  -9   17.60   10.40
 -14  19   9    2.40   13.10
 -14  19   9   11.70   13.20
 -14  19   9  -16.50   18.20
  19  -5   9   16.40    9.20
  19  -5   9   -5.60    8.60
 -14  19   9   19.90   11.90
 -19   8  -9   28.90   12.20
   8  11  -9    6.10    8.80
 -19   8  -9   23.80   15.30
 -11  19   9   27.20   11.90
 -11  19   9   16.50   13.20
 -11  19   9    5.00   12.80
  19  -8   9    8.10    6.60
  11   8  -9    0.60   10.80
  11   8  -9   -9.60    8.20
 -19  11  -9  -19.50   12.50
  11   8  -9    3.60   21.80
 -19  11  -9  -11.00   13.00
  -8  19   9   20.00   13.30
 -11  -8   9    0.30   10.10
  -8  19   9   14.50   12.80
  19 -11   9   21.50   11.00
  19 -11   9   -6.10    6.50
  -8  19   9   16.70   11.90
  14   5  -9  -15.00   10.50
   5 -19  -9   42.20   20.40
  14   5  -9   14.20   22.40
  -5  19   9   -7.90   12.10
 -14  -5   9    2.90   18.50
  13 -20  -9  -21.70   15.00
 -20   7  -9   -7.30   15.80
   7  13  -9    0.50   11.20
  -7 -13   9    1.70   13.50
  20  -7   9    4.50    7.90
 -13  20   9  -24.50   12.50
 -13  20   9   24.20   12.70
  10  10  -9   -7.90   11.00
 -20  10  -9    0.10   13.80
  10  10  -9   -2.60   11.30
  10  10  -9  -15.00    8.80
  10 -20  -9   22.00   13.90
 -10  20   9   -0.30   14.30
  20 -10   9    9.60    7.60
 -10  20   9    4.70   13.30
 -10  20   9   -9.30   12.80
 -10 -10   9    8.40   10.60
  13   7  -9    8.90   10.90
  13   7  -9   -1.20   22.10
 -20  13  -9   24.20   15.40
  20 -13   9   13.60    7.40
  -7  20   9   18.60   14.50
  20 -13   9   -1.10   12.80
  -7  20   9  -10.00   16.20
  -1   0 -10   -1.70    9.50
   1  -1 -10   28.10   13.20
   0   1 -10   11.30    9.70
   0   1 -10   12.70   10.40
  -1   0 -10   -7.90   12.30
   0   1 -10    3.70   10.20
  -1   0 -10    9.60   10.60
   1  -1 -10    8.40   11.20
   1  -1 -10    5.90   10.00
  -1   0 -10    8.90    9.50
   0  -1  10   11.50   12.30
  -1   1  10    5.00   10.00
  -1   1  10    0.90    9.10
   0  -1  10    1.50   12.40
   1   0  10    2.70    6.90
   0  -1  10    1.90    7.70
   1   0  10   10.70   13.80
   0  -1  10  -11.00   11.20
   1   0  10   -1.10   12.50
  -1   1  10   24.50   13.20
  -1   1  10    0.60   12.40
  -2  -1 -10   -5.40   14.20
  -2  -1 -10   26.10    9.20
  -1   3 -10   26.80   11.90
   3  -2 -10   22.10    9.80
   3  -2 -10    2.60   13.30
  -2  -1 -10   25.30   12.40
  -1   3 -10   12.60   11.20
  -1   3 -10   11.90   11.00
   3  -2 -10   22.80    8.90
   1  -3  10   25.00    8.10
   2   1  10   16.40   10.70
  -3   2  10   15.40   10.40
   2   1  10   29.30   21.50
  -3   2  10   17.30    9.80
   1  -3  10    8.20   13.80
  -3   2  10   30.10   11.20
   2   1  10    4.10    8.10
  -3   2  10   16.60   13.30
   1  -3  10    8.90   14.20
  -2   2 -10   -7.00   11.50
   0  -2 -10    9.60    6.30
  -2   2 -10    4.30    9.80
   2   0 -10   11.30   21.20
   0  -2 -10   -7.80   11.20
  -2   2 -10   -5.10   10.40
   2   0 -10    7.10    9.40
   0  -2 -10  -18.60   13.70
   2   0 -10   11.30   12.30
   2   0 -10    2.90   10.50
   0  -2 -10   -1.20    9.70
   2   0 -10   23.40   10.60
  -2   2 -10   -0.20   11.70
   0   2  10   -2.50    7.20
  -2   0  10   -9.20   10.00
  -2   0  10    5.40    9.00
   2  -2  10    9.70   12.90
   2  -2  10   -0.10   12.30
  -2   0  10    9.90   12.40
   2  -2  10   15.10    7.90
   0   2  10   -7.90   10.70
  -2   0  10   -0.30   11.20
   0   2  10   -4.90   13.80
  -2   0  10  -19.20   19.80
   5  -3 -10   34.00   12.60
  -2   5 -10   21.50   12.40
   5  -3 -10   26.10   12.90
  -3  -2 -10   12.00   15.30
   5  -3 -10    5.90   21.20
  -2   5 -10   23.10   13.40
  -3  -2 -10   44.90   15.80
  -3  -2 -10   42.30    9.30
  -2   5 -10   16.20   13.90
  -2   5 -10   28.10   18.60
  -5   3  10   21.90   14.60
  -5   3  10   17.00   17.20
   3   2  10   29.70   11.10
   2  -5  10    6.90   10.00
   3   2  10   26.00   10.40
  -5   3  10   51.39   13.60
   2  -5  10   30.20   16.60
   2  -5  10   22.70    8.10
  -5   3  10   21.30   11.20
  -5   3  10   27.30   11.60
   2  -3 -10  -18.10   13.00
   1   2 -10   -3.70    9.80
   2  -3 -10   -3.80   11.00
  -3   1 -10    5.40   11.30
   1   2 -10   13.10   15.10
   2  -3 -10    6.40    7.20
   2  -3 -10   15.00   13.70
  -3   1 -10   10.70   11.50
   1   2 -10    1.90   12.40
   1   2 -10   -1.00    9.50
  -2   3  10   -8.80    7.90
  -1  -2  10   14.20   12.80
  -2   3  10   -7.40    7.00
   3  -1  10  -12.10   12.90
  -1  -2  10    8.90   10.00
   3  -1  10   19.10   10.80
  -2   3  10   -3.30   21.60
  -1  -2  10   -5.50   11.90
  -1  -2  10   -9.30   15.90
   3  -1  10    4.50    9.40
  -2   3  10   -7.10   13.10
  -2   3  10  -10.50   24.10
   4  -1 -10   25.10   10.40
  -1  -3 -10   15.70   15.80
   4  -1 -10    4.20    8.10
  -3   4 -10   19.90   12.50
   4  -1 -10    8.70   11.40
  -3   4 -10   11.00   11.00
  -1  -3 -10   14.30   12.10
  -3   4 -10   35.00   16.00
   4  -1 -10   12.10   13.40
  -3   4 -10   12.70   10.10
  -4   1  10   -5.70    9.40
  -4   1  10    9.00   13.20
   1   3  10   15.90   10.00
  -4   1  10   13.70   11.70
   1   3  10   22.00   10.90
  -4   1  10   20.40   11.30
   3  -4  10   12.30    7.60
  -3   7 -10   29.90   17.20
  -3   7 -10   32.10    6.30
   7  -4 -10   27.40   16.10
  -4  -3 -10   29.60   10.20
  -4  -3 -10   31.60   18.20
   7  -4 -10   42.50   13.10
  -4  -3 -10   20.20    5.20
  -3   7 -10   11.50   14.70
   7  -4 -10   27.20    8.20
  -7   4  10   15.30   13.70
   3  -7  10   22.80    8.80
   3  -7  10   35.90   10.50
   4   3  10   27.90   13.80
  -7   4  10    6.10   13.40
  -7   4  10   15.80   10.10
  -7   4  10   27.60   15.20
  -7   4  10    3.40   22.10
   3  -7  10   53.09   17.50
   0   4 -10   74.29   13.10
   0   4 -10   62.69   14.40
  -4   0 -10  100.69   15.60
  -4   0 -10   77.39   14.80
   4  -4 -10   80.59   13.90
   4   0  10   64.09   10.20
  -4   4  10   74.69   12.90
  -4   4  10   68.49   10.00
   0  -4  10   69.59   15.30
  -4   4  10   89.39   11.90
  -4   3 -10   37.40   11.70
  -4   3 -10   24.20   13.90
   1  -4 -10   43.30   15.30
   3   1 -10   28.70   10.90
  -4   3 -10   38.10   14.00
   3   1 -10    9.90   13.10
   4  -3  10   43.20    9.40
   4  -3  10   23.50   10.70
  -3  -1  10   29.10   11.30
  -1   4  10   12.40   15.40
  -3  -1  10   11.30   11.00
  -3  -1  10   21.70   12.00
  -1   4  10   56.69   13.20
  -1   4  10   41.40    8.50
  -4   6 -10   51.59   11.90
  -2  -4 -10   37.30   14.10
  -2  -4 -10   75.89   17.40
   6  -2 -10   91.59   16.00
  -4   6 -10   70.69   13.80
   6  -2 -10   75.69   13.90
  -4   6 -10   49.70   15.00
   6  -2 -10   75.49   22.10
   2   4  10   81.19   13.20
   4  -6  10   68.19   10.00
   4  -6  10   53.89    8.70
  -6   2  10   62.09   14.70
  -6   2  10   55.99   18.60
  -6   2  10   62.49   13.60
  -4   9 -10   16.60    9.10
   9  -5 -10    5.80   14.90
  -4   9 -10   24.10   17.20
  -5  -4 -10    6.20   17.80
   9  -5 -10  -10.20    9.10
  -5  -4 -10   27.60   12.50
  -4   9 -10    7.20    9.20
  -9   5  10  -28.00   15.30
   4  -9  10   27.00   18.00
  -9   5  10   -4.10   17.10
   4  -9  10   -5.70   10.90
  -9   5  10    1.70    9.30
   4  -9  10    7.10    8.20
   5   4  10   -5.60    6.60
  -9   5  10    8.10   10.30
   5   4  10    2.10    6.30
  -5  -1 -10  253.07   15.70
  -5  -1 -10  249.78   22.60
  -5  -1 -10  253.67   21.10
  -1   6 -10  221.18   20.00
   6  -5 -10  253.77   18.60
   6  -5 -10  254.97   18.60
   5   1  10  266.77   17.40
   1  -6  10  284.87   22.00
   1  -6  10  272.97   13.50
  -6   5  10  223.68   17.80
  -6   5  10  238.18   16.10
  -6   5  10  276.07   17.30
   5   1  10  215.78   16.60
   2   3 -10   19.30   14.90
   3  -5 -10   10.60   14.80
  -5   2 -10   12.80   14.40
   2   3 -10   26.40   11.40
   2   3 -10    4.80    9.30
   5  -2  10   -7.10   10.70
   5  -2  10    8.20    9.40
  -2  -3  10    9.90   19.80
  -2  -3  10    1.50   11.50
  -2  -3  10    6.70   12.50
  -3   5  10    5.00    9.10
   5  -2  10   28.40   19.80
  -3   5  10    8.90   14.70
  -2  -3  10    3.90   12.90
  -3   5  10    9.50   15.00
  -5   5 -10    6.90   15.70
   5   0 -10  -19.70   24.00
   0  -5 -10   -5.80   15.90
   5   0 -10    7.50   10.90
   5   0 -10    7.20   13.20
   5   0 -10    0.90    6.50
  -5   5 -10  -23.90   23.50
  -5   5 -10    3.60   11.70
   5   0 -10   -5.30   15.00
  -5   5 -10  -12.60   15.20
   0   5  10   12.00   10.80
  -5   0  10  -15.70   12.80
  -5   0  10  -14.00   16.40
   0   5  10  -10.00   11.90
  -5   0  10    2.50    8.60
   5  -5  10    6.50    9.00
  -5   8 -10   14.80    6.10
   8  -3 -10   -8.10    9.90
  -3  -5 -10    0.20   10.80
  -5   8 -10   22.50   10.00
   8  -3 -10   -2.00   12.90
  -5   8 -10    6.80   11.30
  -3  -5 -10   -1.80   14.30
   5  -8  10    5.20    8.20
   5  -8  10   -5.90    9.20
  -8   3  10   -1.30   14.10
  -8   3  10  -25.40   14.50
   3   5  10    5.20    6.10
  -5  11 -10   15.00    9.90
  -5  11 -10   19.60    7.80
  11  -6 -10   12.90   17.10
  -6  -5 -10   31.00    8.80
  -6  -5 -10   12.40   14.70
   6   5  10   26.40    6.20
   5 -11  10   27.60    9.70
 -11   6  10   16.40   15.70
 -11   6  10   23.60   10.50
   6   5  10   27.40    7.10
   6   5  10   -1.30   29.50
   6   5  10   30.50    9.00
 -11   6  10   18.60   10.40
 -11   6  10   16.20   10.30
  -6  -2 -10   55.59   20.20
  -6  -2 -10   57.59    9.00
   8  -6 -10   40.60   11.60
  -6  -2 -10   61.39   13.80
   8  -6 -10   58.09   16.50
  -8   6  10   92.79   25.20
  -8   6  10   53.49   13.50
   6   2  10   68.19    7.80
   6   2  10   53.89    5.20
   2  -8  10   63.69   10.10
  -8   6  10   76.29   15.80
  -6   1 -10    3.30   12.00
   1   5 -10   -0.90   12.80
   5  -6 -10   28.90   15.30
  -6   1 -10   15.70   15.70
  -6   1 -10   -1.40   18.60
   1   5 -10    8.10   12.00
  -1  -5  10    8.40   15.20
   6  -1  10   12.60   10.00
  -1  -5  10    4.50   11.60
  -1  -5  10  -31.80   20.40
  -5   6  10   12.80   10.30
  -5   6  10   -2.10   17.20
  -5   6  10   26.80   10.70
  -1  -5  10  -11.60   16.30
   6  -1  10   14.90   10.00
  -6   4 -10   16.70   12.10
  -6   4 -10   30.00   12.20
   4   2 -10    7.30    8.00
   2  -6 -10   21.20   15.70
   4   2 -10   22.30   11.60
  -2   6  10   18.20    8.50
  -2   6  10   27.30   12.20
  -4  -2  10   12.30   17.20
   6  -4  10   10.20    9.40
  -4  -2  10    8.30   10.80
  -4  -2  10   19.50   13.20
  -6   7 -10   91.19   16.40
   7  -1 -10   95.09   12.10
  -6   7 -10   92.89   15.10
  -1  -6 -10   96.59    9.70
   7  -1 -10   91.99   14.70
  -6   7 -10  108.59    9.20
   6  -7  10   98.99   11.00
  -7   1  10   85.09   22.90
  -7   1  10   96.79   16.30
   1   6  10  109.69   14.30
  -6  10 -10   -1.80    8.80
  10  -4 -10   12.90   13.80
  10  -4 -10   18.00    9.20
  -4  -6 -10   14.10    9.60
  -6  10 -10   17.40   13.10
   6 -10  10   13.80    9.40
   4   6  10    1.00    6.10
   6 -10  10    7.40   10.10
 -10   4  10    3.80   15.80
 -10   4  10   26.00    7.40
   4   6  10   14.30    7.70
   4   6  10   11.30   20.20
   4   6  10   12.40    6.80
  13  -7 -10   19.30    9.40
  -7  -6 -10   38.70   22.40
  -6  13 -10   34.80   11.60
  -6  13 -10    7.00    8.70
  13  -7 -10   -0.20   20.80
  -7  -6 -10   20.30   12.00
   7   6  10   21.80    6.90
   6 -13  10    3.10   10.60
   7   6  10   16.40    7.70
   7   6  10   -1.80    9.40
 -13   7  10    7.90   15.80
 -13   7  10    7.50    9.60
  -7  -3 -10   55.49   15.30
  -7  -3 -10   32.90    9.40
  10  -7 -10   44.60   17.70
  -7  -3 -10   36.80   18.40
  -3  10 -10   47.90   10.40
 -10   7  10   49.60   20.10
 -10   7  10   41.10   13.00
   7   3  10   42.30    6.50
   3 -10  10   30.20   10.20
   3 -10  10   55.89    9.50
   7   3  10   49.30    7.50
 -10   7  10   59.89   12.00
   0   7 -10   26.30    7.00
   7  -7 -10   42.70   15.20
  -7   0 -10   31.50   17.70
   7  -7 -10   55.59    9.00
   0   7 -10   40.60   18.60
  -7   0 -10   47.30   13.50
  -7   0 -10   34.10    8.30
   0  -7  10   27.00    9.20
  -7   7  10   50.69   13.90
   0  -7  10   40.30   11.50
   0  -7  10   50.89   20.10
  -7   7  10   51.09   14.90
   7   0  10   40.00    6.30
   7   0  10   45.40   11.90
   4  -7 -10   -4.10    6.40
  -7   3 -10    9.90    6.00
   3   4 -10    2.00   10.60
   3   4 -10   -7.30   11.30
  -3  -4  10   12.90   13.50
  -4   7  10   13.90   10.40
  -3  -4  10   30.30   17.00
   7  -3  10    2.10   10.40
  -3  -4  10   -4.80   14.30
  -4   7  10   12.40   13.90
   7  -3  10   -8.00    8.80
  -4   7  10    5.10   10.00
  -7   6 -10   59.29   14.80
   6   1 -10   43.60   22.00
   6   1 -10   37.80   11.70
   6   1 -10   43.00   14.20
  -7   6 -10   53.49    8.30
   1  -7 -10   49.10    8.00
   6   1 -10   38.10    6.30
   7  -6  10   44.50    9.00
  -1   7  10   52.49    5.30
  -1   7  10   46.80   11.70
  -1   7  10   56.89   32.00
   7  -6  10   55.29   11.80
  -6  -1  10   40.10   15.20
   9  -2 -10   29.10   11.00
   9  -2 -10   38.50   13.20
  -7   9 -10   33.30   13.70
  -2  -7 -10   47.60    9.30
  -2  -7 -10   38.20   12.80
  -7   9 -10   28.50    8.70
   7  -9  10   47.80   11.20
   7  -9  10   49.00    7.70
   2   7  10   33.00    6.10
  -5  -7 -10    1.30   19.40
  12  -5 -10   16.80   15.80
  -7  12 -10    1.10    8.50
  -7  12 -10    4.40   16.30
  12  -5 -10   13.40   10.00
   5   7  10   12.40    6.00
   7 -12  10    4.30    9.70
   5   7  10   -0.80   29.70
   7 -12  10   13.20   11.30
 -12   5  10   14.20    9.40
   5   7  10   10.90    7.50
 -12   5  10    2.90   16.10
  15  -8 -10   10.60   23.00
  -8  -7 -10   15.60   13.40
  15  -8 -10   35.50    9.80
  -7  15 -10   22.00   11.20
  -7  15 -10   14.90    9.30
  -8  -7 -10   40.20   12.10
   8   7  10    2.60    8.50
   7 -15  10   -1.00   10.10
 -15   8  10   29.30   11.40
  -8  -4 -10   31.10   16.60
  -4  12 -10   18.10    8.60
  12  -8 -10   33.50    7.50
 -12   8  10   32.80   23.30
   4 -12  10   31.60    9.10
   8   4  10   46.20    8.10
 -12   8  10   32.70   11.10
   8   4  10   46.50    9.70
 -12   8  10   26.30   15.00
   8   4  10   21.80    7.00
  -8  -1 -10   55.19   16.90
   9  -8 -10   75.89    8.30
  -8  -1 -10   48.60    8.30
  -8  -1 -10   81.69   19.80
  -1   9 -10   67.29   10.50
   1  -9  10   57.39   11.50
   8   1  10   59.19    7.10
  -9   8  10   51.79   16.80
   1  -9  10   62.59   21.20
  -9   8  10   67.39    7.80
   1  -9  10   39.50   11.10
   6  -8 -10  -19.10   20.00
  -8   2 -10   -2.50   17.40
   6  -8 -10   14.50    8.40
  -8   2 -10    5.20    8.10
   2   6 -10   -1.00   15.00
   2   6 -10   13.40    6.90
  -2  -6  10  -10.30   24.50
   8  -2  10    0.80   10.10
  -2  -6  10   20.90   15.80
  -6   8  10   11.60   13.40
  -2  -6  10   -7.70   19.90
  -6   8  10    2.30   11.20
   8  -2  10    6.70    6.30
  -2  -6  10   12.70    8.50
  -6   8  10   32.40   13.60
   5   3 -10   20.50    9.40
  -8   5 -10   13.80   14.60
  -8   5 -10    8.70    7.40
   3  -8 -10   26.50    9.20
   5   3 -10    4.10   12.70
   5   3 -10   -3.30   25.10
  -3   8  10    8.70    9.20
  -3   8  10   31.30   11.10
   8  -5  10   26.80   10.10
  -5  -3  10    9.10    5.10
   8  -5  10   16.00    8.80
  -8   8 -10  146.79   10.80
  -8   8 -10  122.59   16.60
   8   0 -10  108.89   14.70
   8   0 -10  117.19   14.60
   0  -8 -10  135.39   11.20
  -8   0  10  151.88   11.10
   8  -8  10  158.18   13.70
   0   8  10  110.99   11.90
   0   8  10  114.79   10.20
   0   8  10  144.69    9.80
  -8  11 -10    5.60   14.00
  -3  -8 -10   30.40   10.20
  -8  11 -10    4.80    9.00
  -3  -8 -10   26.10   16.30
  -8  11 -10   27.60    8.40
  11  -3 -10   24.70   13.80
   8 -11  10   20.10   11.70
   3   8  10   11.20    6.30
   3   8  10   25.50    7.90
 -11   3  10    9.20   16.30
   3   8  10   54.79   19.90
   3   8  10   13.30    7.40
  -6  -8 -10   21.70   23.00
  -6  -8 -10   45.40   12.80
  -8  14 -10   27.40    9.80
  14  -6 -10   12.70   17.90
   8 -14  10   34.20   11.30
   6   8  10   12.40    9.30
 -14   6  10   27.30   10.70
   6   8  10   21.80    7.30
   8 -14  10   24.20   11.50
 -14   6  10   12.70   16.20
  17  -9 -10    7.40   10.80
  -9  -8 -10   -4.40   12.70
  -8  17 -10   -2.90   11.10
  -8  17 -10   24.00   13.60
  -9  -8 -10  -22.10   13.40
   9   8  10  -10.60    6.80
   9   8  10   -8.70    9.70
 -17   9  10   -0.50   12.30
   9   8  10  -10.90    8.10
   9   8  10   -7.90    9.70
   8 -17  10    8.40    7.80
  -9  -5 -10   13.10   12.10
  -9  -5 -10   -6.20    8.10
  14  -9 -10  -16.60    9.50
  -5  14 -10   -2.30    9.00
  -5  14 -10   -8.10   10.80
  14  -9 -10   -7.60    9.80
   9   5  10    3.10    8.40
   9   5  10   12.70    7.40
 -14   9  10  -28.70   16.50
 -14   9  10    0.50   16.80
 -14   9  10   18.50   11.30
 -14   9  10   -5.00   18.80
   5 -14  10  -15.50   10.30
  -2  11 -10   28.50    8.70
  11  -9 -10   18.30   10.30
  -9  -2 -10   30.50   19.80
  -9  -2 -10   26.30    8.80
  11  -9 -10   31.10   10.50
  -2  11 -10   51.29   10.40
  -2  11 -10   14.20    7.30
 -11   9  10   42.40   11.00
   2 -11  10   40.50    9.40
   9   2  10   31.00    7.20
   2 -11  10   70.09   20.60
   2 -11  10   44.00   10.30
   9   2  10   17.70    6.30
 -11   9  10   31.70   15.40
  -9   1 -10   -3.90    7.90
   8  -9 -10   18.40   12.30
  -9   1 -10    0.30   19.30
   1   8 -10   -3.50    7.40
   1   8 -10   11.00    7.20
  -9   1 -10   14.20   15.40
   1   8 -10   20.70   17.10
  -8   9  10  -11.50   12.80
   9  -1  10    4.80   10.90
  -1  -8  10    8.10   18.00
  -8   9  10   12.50   16.30
  -1  -8  10    5.00    9.60
   9  -1  10    1.60    6.50
  -1  -8  10   20.60   14.70
  -9   4 -10   39.60    8.40
   4   5 -10   37.70    7.40
   4   5 -10   28.20   14.00
   4   5 -10   23.30    6.90
   5  -9 -10   52.49    9.80
  -5   9  10   60.59   14.70
   9  -4  10   39.20   10.00
  -5   9  10   35.50   15.20
  -5   9  10   47.70   11.40
   7   2 -10   69.79   13.60
   7   2 -10   31.70   12.60
   2  -9 -10   53.79    9.90
   7   2 -10   40.10    7.10
  -9   7 -10   68.29   16.60
  -9   7 -10   59.49    9.70
  -2   9  10   45.20    9.00
  -2   9  10   42.00   11.90
   9  -7  10   67.79   11.50
   9  -7  10   43.80    8.10
  -2   9  10   69.19   13.00
  -7  -2  10   49.90    9.50
  10  -1 -10  -22.40   12.70
  10  -1 -10  -15.70    9.00
  -9  10 -10    1.10    8.20
  -1  -9 -10   -8.60    8.80
  -1  -9 -10    7.40   16.00
  -9  10 -10   10.50    8.30
  10  -1 -10    9.10   12.30
   1   9  10   -7.40    5.70
   9 -10  10    4.60    8.60
   1   9  10  -10.70   14.70
   9 -10  10   -8.20   13.10
   1   9  10    4.80    7.40
   9 -10  10   -0.90    6.20
 -10   1  10    4.90    8.40
  -4  -9 -10   11.90   19.70
  -4  -9 -10   15.80   10.10
  13  -4 -10    6.00   10.10
  -9  13 -10   -4.60   14.40
  -9  13 -10    3.60   10.20
  13  -4 -10   -2.60   15.90
  -9  13 -10   -0.50    8.60
 -13   4  10   -1.90    8.60
   4   9  10  -12.10    7.40
   4   9  10   -7.30    8.20
 -13   4  10    0.10   15.70
   9 -13  10    5.00   11.60
   4   9  10    6.40    8.10
  -7  -9 -10   -0.80   13.30
  16  -7 -10    1.90    9.10
  16  -7 -10  -11.50   21.90
  -9  16 -10    5.50   13.60
  -7  -9 -10   19.30   12.40
   7   9  10    3.90    8.90
 -16   7  10    6.80   11.30
   7   9  10   14.30    8.00
   9 -16  10   -2.10    8.20
   7   9  10    0.20    8.50
   9 -16  10  -12.70    7.00
   7   9  10   19.40   10.20
  -9  19 -10   -9.70   16.30
 -10  -9 -10   21.80   15.20
  19 -10 -10  -20.40   16.00
 -10  -9 -10   19.70   14.00
  -9  19 -10  -20.50   12.50
  10   9  10   11.80   10.50
  10   9  10  -21.30   12.10
  10   9  10   -6.30    8.70
  10   9  10   -7.60   10.30
 -19  10  10   14.50   14.80
 -10  -6 -10  -24.30   13.00
  16 -10 -10  -11.10    9.40
  -6  16 -10   -5.90   12.00
  16 -10 -10   14.10   12.70
 -10  -6 -10   -6.30    8.60
  10   6  10    7.70    8.40
 -16  10  10   16.80   17.10
 -16  10  10   -0.30   13.00
   6 -16  10    7.20    9.10
 -16  10  10   -5.80   19.00
  10   6  10   -1.50   10.20
  10   6  10    2.70    7.90
  10   6  10  -13.40    9.30
  -3  13 -10   33.20   10.50
  13 -10 -10    4.50    9.70
  -3  13 -10   13.90    8.00
  13 -10 -10   18.40   11.20
   3 -13  10   21.20    9.60
   3 -13  10   10.30   20.40
 -13  10  10   21.20   19.40
 -13  10  10   23.10   11.90
  10   3  10   20.10    9.20
   3 -13  10    9.00   10.60
  10   3  10    3.00    6.50
 -13  10  10   20.70   17.10
 -13  10  10    9.90   11.70
   0  10 -10   29.20    9.50
 -10   0 -10   13.70    7.90
  10 -10 -10   31.50   11.00
 -10   0 -10   19.00   19.20
 -10   0 -10   20.40    8.50
 -10  10  10   28.00    9.80
 -10  10  10   32.90    7.60
   0 -10  10   39.80   18.40
 -10  10  10   22.10   18.80
   0 -10  10   21.90   13.60
   0 -10  10   22.50   10.10
  10   0  10   32.60    7.50
 -10  10  10   10.00   20.60
 -10   3 -10   15.60    8.70
   7 -10 -10    9.40    8.60
 -10   3 -10    4.50    7.80
   3   7 -10   22.50   16.20
   3   7 -10   12.00    6.70
  -3  -7  10   16.70    6.80
  -7  10  10   10.40    6.60
  -7  10  10    4.20    8.50
  -7  10  10    2.40   12.00
  -7  10  10   -0.60   16.70
   6   4 -10   16.10   11.90
   4 -10 -10   18.80    8.20
 -10   6 -10   29.30    8.80
   6   4 -10   15.00    7.00
   6   4 -10   29.80    6.70
  -4  10  10   -5.90   14.40
  10  -6  10   22.30    8.60
  -6  -4  10   14.70    7.40
  -4  10  10   29.30   11.90
  10  -6  10   20.50    5.70
  -4  10  10    8.60    8.60
   1 -10 -10  -16.20    7.90
   9   1 -10   10.40   14.30
   9   1 -10   19.90   12.40
   9   1 -10   -6.50   13.40
  10  -9  10   -8.60   11.60
  -1  10  10  -10.90    6.20
  -1  10  10    9.50   14.00
  -1  10  10   -1.10   14.20
  -1  10  10  -28.00   32.70
  -9  -1  10  -12.10    7.20
  10  -9  10   -3.90    6.70
  -1  10  10   -5.20    6.30
  -2 -10 -10   24.50   19.70
  -2 -10 -10   -9.50    9.20
  12  -2 -10   -3.30   10.90
 -10  12 -10    2.00    8.10
  12  -2 -10   -4.30   13.40
  10 -12  10   -5.70   13.00
   2  10  10   -1.40    7.90
   2  10  10    7.20    7.80
 -12   2  10    9.50    8.40
  10 -12  10   -6.30    6.70
  10 -12  10   -7.50    7.50
   2  10  10    5.10   21.00
  -5 -10 -10   -1.50   11.60
 -10  15 -10  -10.40    9.60
  15  -5 -10    5.50   19.00
 -10  15 -10    1.60   11.40
  -5 -10 -10   21.10   10.40
  15  -5 -10   -8.00    8.80
  10 -15  10   19.20   10.40
   5  10  10    6.40    8.40
   5  10  10    2.00    6.60
 -15   5  10   11.30   11.00
   5  10  10    1.20    7.90
  10 -15  10    0.50    6.20
  18  -8 -10   -9.10   10.70
 -10  18 -10   18.60   11.90
  -8 -10 -10   26.00   15.80
  -8 -10 -10    5.80   12.40
 -10  18 -10   32.70   15.90
 -18   8  10    5.70   13.70
   8  10  10   -2.80    9.20
   8  10  10    6.50    9.00
   8  10  10   13.40   10.40
  -7  18 -10    0.00   10.50
 -11  -7 -10  -10.30   12.60
  -7  18 -10   -6.90   14.20
  18 -11 -10   10.70   10.40
 -18  11  10    9.50   14.50
  11   7  10    9.20    8.40
  11   7  10    8.90    9.20
   7 -18  10  -17.20   15.80
  -4  15 -10   -6.80   10.10
 -11  -4 -10   16.00    9.10
  -4  15 -10   17.70   10.90
  15 -11 -10  -11.70   10.00
  -4  15 -10   -1.80    7.70
 -11  -4 -10    3.30   11.80
  11   4  10   -0.10    7.10
 -15  11  10  -12.90   19.30
   4 -15  10    9.60    9.30
 -15  11  10    7.60   21.40
  11   4  10  -11.40    7.70
  11   4  10   -5.60    7.20
   4 -15  10  -13.20   10.40
  -1  12 -10   19.20   10.00
  -1  12 -10  -10.80    7.50
  12 -11 -10   -7.80   10.80
 -11  -1 -10    0.90   20.40
 -11  -1 -10   -3.70    8.60
  12 -11 -10    1.50    9.40
 -11  -1 -10    6.80    8.80
 -12  11  10   -8.70    9.80
  11   1  10  -13.60    6.80
 -12  11  10  -10.80   11.20
  11   1  10   -2.20    6.70
  11   1  10   -7.80   10.20
   1 -12  10   -2.20   10.80
  11   1  10   13.30    6.20
 -12  11  10  -12.00   12.70
   1 -12  10    0.50   11.70
 -12  11  10  -19.20   18.60
   1 -12  10   20.70   16.30
   2   9 -10   -9.60    7.30
 -11   2 -10   12.30    7.70
   9 -11 -10  -16.30   12.80
 -11   2 -10   -6.20    8.50
   9 -11 -10   -0.60    9.20
   2   9 -10  -10.80    6.70
   2   9 -10   15.20    8.60
 -11   2 -10   13.40   20.30
  -2  -9  10   -6.50   17.90
  -9  11  10   -6.90    8.00
  -9  11  10    2.00    9.20
  11  -2  10   -4.20    4.80
  -9  11  10   -8.70   14.10
  -2  -9  10   -0.50    8.90
  -9  11  10  -32.00   19.60
 -11   5 -10   20.00    7.90
   5   6 -10   32.00   14.50
   5   6 -10   14.10    6.40
   6 -11 -10   31.70    9.80
  11  -5  10   31.10    6.80
  -6  11  10   26.10    7.30
  -6  11  10   24.80   11.00
  -5  -6  10   23.60    7.90
   8   3 -10   26.60    8.90
   8   3 -10   40.90    7.30
 -11   8 -10   27.20    8.40
 -11   8 -10   24.10   16.20
   3 -11 -10   29.00    8.20
  -3  11  10   26.60    6.60
  11  -8  10   28.10    7.50
  -3  11  10   46.30   17.40
  11   0 -10   -4.60   11.40
   0 -11 -10    9.30    8.90
  11   0 -10  -18.40   11.90
 -11  11 -10  -13.20    8.40
 -11  11 -10   -8.90    9.00
  11   0 -10  -15.40   16.10
 -11   0  10    3.90    7.70
   0  11  10   13.50    7.70
   0  11  10   -4.00   29.70
  11 -11  10   15.60   13.50
   0  11  10  -20.90   18.70
  11 -11  10    5.70    5.50
   0  11  10   -9.90    6.90
   0  11  10   -5.60    7.40
  -3 -11 -10   19.50   12.80
  -3 -11 -10    2.90   25.00
 -11  14 -10    1.80   11.60
  14  -3 -10    7.30   11.50
  14  -3 -10    2.40   13.90
 -11  14 -10   25.00    9.30
 -11  14 -10   26.80   24.00
   3  11  10   16.20    7.60
 -14   3  10   11.80   19.40
   3  11  10   11.90    8.50
  11 -14  10   13.90   12.40
   3  11  10   12.70    7.20
  -6 -11 -10   25.50   12.60
 -11  17 -10   -2.80   11.70
  -6 -11 -10    0.20   14.80
 -11  17 -10   25.40   12.90
  17  -6 -10    0.60   10.40
   6  11  10   -5.60    9.30
   6  11  10    1.90    7.60
   6  11  10    0.40   17.80
 -17   6  10   14.60   11.60
   6  11  10   20.60    9.70
  11 -17  10   -0.40    7.90
  -9 -11 -10   -1.60   17.90
 -11  20 -10   18.60   15.20
  -9 -11 -10   -2.30   14.60
  20  -9 -10    6.00   11.70
 -20   9  10   32.50   16.50
   9  11  10   27.50   10.30
   9  11  10   12.70   13.80
  20 -12 -10   16.80   11.80
  -8  20 -10  -22.60   13.70
 -12  -8 -10    1.40   15.90
  12   8  10  -19.90   11.00
  12   8  10   -0.10   10.90
  12   8  10    4.80   10.00
 -20  12  10  -13.50   16.60
 -12  -5 -10   12.50    9.10
 -12  -5 -10   19.80   14.40
  -5  17 -10   10.60   11.30
  17 -12 -10   24.80   12.00
  17 -12 -10    5.00   13.20
  -5  17 -10    6.60    9.40
  12   5  10   21.60   11.40
 -17  12  10   36.20   27.20
 -17  12  10   22.30   17.80
   5 -17  10   16.30   13.60
  12   5  10    2.20    7.50
  12   5  10    0.70    7.90
  14 -12 -10   10.60   13.10
  14 -12 -10   14.00    9.20
 -12  -2 -10   14.10   20.50
 -12  -2 -10   14.80    8.40
 -12  -2 -10    6.20   11.20
  -2  14 -10   -3.60    8.20
   2 -14  10    8.20   10.80
 -14  12  10    0.10   11.00
 -14  12  10    7.80   13.00
  12   2  10   14.30    6.60
 -14  12  10    9.70   13.30
 -14  12  10   -5.40   22.00
   2 -14  10   11.50   10.40
  12   2  10    6.10    7.20
 -14  12  10   44.70   33.90
  12   2  10   22.50    7.20
  12   2  10    9.10   11.10
 -12   1 -10   -6.50   19.90
   1  11 -10   -6.60    7.70
  11 -12 -10   15.60   10.00
 -12   1 -10    4.10    9.00
 -12   1 -10    7.40    8.10
   1  11 -10   11.40    7.10
 -11  12  10   -8.40    8.00
 -11  12  10  -10.20   11.40
 -11  12  10   -4.10   10.20
  -1 -11  10   -8.10   10.70
  -1 -11  10   -8.80   13.00
  12  -1  10   -9.60    6.20
 -11  12  10    7.50   10.00
   8 -12 -10   20.90   13.90
 -12   4 -10   -0.90    9.40
   4   8 -10   12.10    7.70
   4   8 -10   -0.60    6.00
   4   8 -10  -18.60   17.20
   8 -12 -10    4.30    8.90
  -8  12  10  -11.70   13.80
  -8  12  10  -27.60   21.60
  12  -4  10  -21.70   11.10
  12  -4  10    3.30    5.80
   7   5 -10    6.90    7.90
 -12   7 -10   -2.70    8.80
   7   5 -10   21.80    7.30
   7   5 -10   16.40   12.90
  -5  12  10   16.40    8.00
  -5  12  10   14.80    6.60
  -5  12  10    0.50   20.00
  -7  -5  10    9.80    7.40
  12  -7  10   18.20    9.10
  -5  12  10   15.40   13.40
  10   2 -10   14.00   13.60
  10   2 -10   17.40    6.30
 -12  10 -10    1.50    8.70
  10   2 -10   10.40    7.80
   2 -12 -10    6.30    9.90
  -2  12  10    6.50    7.30
  -2  12  10   -0.50   14.60
  12 -10  10   11.80    7.30
  12 -10  10    7.00    6.20
  -2  12  10   -4.80    7.00
  -2  12  10    9.30   19.80
 -10  -2  10    1.60    7.90
  -2  12  10    3.50   25.20
  13  -1 -10  -27.40   15.30
 -12  13 -10  -10.10    9.90
  -1 -12 -10   16.40   22.80
  -1 -12 -10  -19.40   11.20
  13  -1 -10   -1.40   11.70
  13  -1 -10   -6.20   11.90
 -13   1  10    1.40    9.00
  12 -13  10   17.90   13.80
   1  12  10    3.90    7.50
   1  12  10   -3.00    7.30
   1  12  10    8.30    8.40
   1  12  10   37.90   28.20
  16  -4 -10    0.30    9.50
  -4 -12 -10   -5.70   13.00
 -12  16 -10    9.10   12.90
 -12  16 -10   24.90   11.10
  -4 -12 -10   10.20   14.10
   4  12  10   17.70    9.20
   4  12  10    3.60    8.20
  12 -16  10   29.10   17.30
   4  12  10   11.70   14.20
  -7 -12 -10   -5.60   14.20
  -7 -12 -10  -16.20   16.50
 -12  19 -10   21.20   14.50
 -12  19 -10   13.80   20.50
  12 -19  10    7.50    9.50
   7  12  10    7.20   10.30
 -19   7  10   -0.30   13.80
  -6  19 -10  -25.90   13.40
  -6  19 -10    3.10   14.90
  13   6  10  -10.80    8.10
 -19  13  10   -0.70   15.30
  13   6  10    2.50    9.30
  13   6  10   30.40   14.00
  -3  16 -10   16.90   11.40
 -13  -3 -10   -5.10    8.90
  16 -13 -10    8.60   10.30
  -3  16 -10    5.10    8.80
  16 -13 -10    2.10   11.90
   3 -16  10   23.50   13.70
  13   3  10    7.80    7.50
  13   3  10   -4.10    7.30
 -16  13  10   -5.50   20.60
 -16  13  10   27.30   15.10
 -16  13  10   -2.90   12.20
   3 -16  10   10.70    9.90
  13   3  10   -0.30    9.20
 -16  13  10  -14.40   13.30
 -16  13  10   -3.60   14.60
   0  13 -10    3.90    8.20
  13 -13 -10   14.90    9.60
  13 -13 -10   16.30   12.50
 -13   0 -10   33.70   22.40
   0  13 -10   23.50    8.80
 -13  13  10    2.70   12.20
 -13  13  10   34.20   13.00
   0 -13  10   18.50   11.40
   0 -13  10   -7.10   13.30
  13   0  10   27.20   10.60
  13   0  10    9.30    6.90
 -13  13  10    4.80    9.80
 -13  13  10   18.00   11.80
 -13  13  10    9.00   10.60
  13   0  10   22.00    6.60
   3  10 -10   21.20    8.40
 -13   3 -10    5.70    8.70
 -13   3 -10  -29.20   29.20
   3  10 -10    7.80    7.60
 -13   3 -10    0.10    9.30
   3  10 -10    0.50    8.70
 -10  13  10   -3.60   11.20
 -10  13  10    0.90    8.80
 -10  13  10    9.90    9.50
 -10  13  10    8.40   26.30
  -3 -10  10    4.30    9.60
 -10  13  10  -17.20   14.40
 -13   6 -10    7.40   21.30
 -13   6 -10    0.50    7.40
   7 -13 -10   20.40   11.30
   6   7 -10    6.20    6.80
 -13   6 -10   -2.60   10.40
   6   7 -10   -3.20   15.80
  -7  13  10   -9.60    7.90
  -7  13  10   12.00   13.30
  13  -6  10   -3.50    9.90
  -6  -7  10    4.70    8.10
  13  -6  10   -0.10    4.90
  -7  13  10    9.20    7.40
 -13   9 -10   17.60   18.50
   9   4 -10   13.90   11.60
   9   4 -10   31.60   16.00
   4 -13 -10   21.90   10.50
 -13   9 -10   17.70    8.80
   9   4 -10    2.40    7.30
   9   4 -10   16.40    8.10
  -4  13  10   13.60   23.20
  -9  -4  10   17.20    9.10
  -4  13  10   22.60    7.50
  13  -9  10    7.70    7.80
  -4  13  10   19.90    8.10
  -4  13  10    6.90   13.90
  13  -9  10   12.20    6.50
  12   1 -10   18.20    8.80
   1 -13 -10    9.30   10.60
 -13  12 -10   -7.30    9.50
  12   1 -10   -2.80   10.80
  12   1 -10  -18.90   13.10
  -1  13  10   -7.70    7.00
  -1  13  10   -5.40    8.00
 -12  -1  10   -4.30    9.10
  13 -12  10    1.50    6.10
  -1  13  10  -10.90   21.00
 -13  15 -10   15.30   11.90
  -2 -13 -10   40.20   14.20
 -13  15 -10   22.50   10.30
  -2 -13 -10   11.00   13.40
  13 -15  10    9.80    6.90
  13 -15  10   12.70   14.80
   2  13  10   -0.10    8.20
   2  13  10   13.60    7.60
 -15   2  10   31.00   10.40
  -5 -13 -10   -6.30   13.30
 -13  18 -10   -4.20   12.50
  -5 -13 -10    4.80   17.50
  13 -18  10    6.80    8.50
   5  13  10   -5.80    9.60
   5  13  10  -10.50    8.20
   5  13  10  -12.10    9.70
  -4  18 -10   16.70   10.80
  -4  18 -10   -6.30   11.00
 -14  -4 -10    4.60   11.00
  -4  18 -10   18.60   14.10
 -18  14  10    9.90   17.80
   4 -18  10  -16.80   14.60
 -18  14  10   10.20   12.80
  14   4  10    4.30   11.50
 -18  14  10    5.40   15.50
  14   4  10    0.30   13.30
 -18  14  10  -19.90   14.00
 -14  -1 -10    9.10    9.30
  15 -14 -10   35.20   14.00
  -1  15 -10   -8.20    9.70
  15 -14 -10    8.20   10.70
 -14  -1 -10  -16.10   11.40
  -1  15 -10    2.20    8.30
  -1  15 -10   -0.10   10.30
 -14  -1 -10   16.40   23.70
 -15  14  10    8.90   11.30
 -15  14  10    4.90   12.40
  14   1  10   16.80    7.70
  14   1  10   16.50   12.60
 -15  14  10   10.60   11.50
  14   1  10    9.00    7.30
  14   1  10    5.00    8.00
   1 -15  10    5.80   12.80
 -15  14  10   -2.40   10.60
 -15  14  10  -13.40   13.50
 -14   2 -10   -9.40   19.90
  12 -14 -10    1.30   12.30
   2  12 -10   -1.10    8.50
 -14   2 -10   12.60    9.10
   2  12 -10    7.20    8.00
  12 -14 -10   -0.20    9.40
 -14   2 -10   -2.60   10.10
   2  12 -10  -13.80    7.10
  -2 -12  10    4.90    8.60
  14  -2  10   11.60   22.10
  14  -2  10    2.90    6.10
 -12  14  10  -14.30   14.50
 -12  14  10    9.90   10.70
  14  -2  10   -2.00    6.50
  14  -2  10   -0.80    6.20
 -12  14  10    1.00   10.40
 -12  14  10    7.40    9.60
   5   9 -10   10.20    6.30
 -14   5 -10   14.50   10.10
   9 -14 -10    9.00    9.90
 -14   5 -10   11.70    8.90
   5   9 -10   18.10    9.00
   5   9 -10    8.30    8.20
  -9  14  10   -2.00   10.00
  -9  14  10  -13.90    8.70
  14  -5  10   -2.40    5.40
  -9  14  10   -6.50   13.70
  14  -5  10    3.30   13.00
  14  -5  10   -0.70    6.80
  -9  14  10  -12.60    8.90
  -5  -9  10  -10.40    8.00
   6 -14 -10   13.50   11.60
   8   6 -10    4.90    7.70
   8   6 -10   14.10    7.90
   8   6 -10   -8.40   14.10
   8   6 -10  -27.50   18.00
 -14   8 -10    0.90    9.50
  -6  14  10    4.50   12.90
  14  -8  10   -6.20    9.50
  -6  14  10   12.40    7.80
  -8  -6  10    4.30    7.70
  14  -8  10    4.00    6.30
  -6  14  10   10.30    8.00
  11   3 -10    8.30   12.60
  11   3 -10   -5.90    8.50
  11   3 -10    9.10    7.70
 -14  11 -10   13.80    9.80
 -14  11 -10   15.10   10.10
  14 -11  10    7.60    7.30
  -3  14  10   11.10   15.50
  -3  14  10  -15.10   16.70
 -11  -3  10    6.30    9.00
 -14  14 -10  -18.30   10.30
   0 -14 -10  -19.60   10.90
 -14  14 -10  -13.20    9.30
  14   0 -10  -10.80   17.70
  14   0 -10  -21.60   13.60
   0  14  10   15.50    9.40
  14 -14  10   -7.30    7.90
   0  14  10    9.60    7.70
 -14   0  10   10.60    8.40
   0  14  10    2.10    7.80
 -14  17 -10   -9.30   13.10
  -3 -14 -10  -16.50   14.10
  17  -3 -10   28.90   14.00
  -3 -14 -10   26.20   14.80
 -14  17 -10    5.20   12.20
  14 -17  10    9.20    8.30
   3  14  10   -2.90    9.10
 -17   3  10   -2.80   10.80
   3  14  10  -13.40    8.60
   3  14  10    8.50    9.20
  -2  17 -10  -16.80   12.30
  17 -15 -10  -10.80   13.50
  -2  17 -10   15.80   10.20
 -17  15  10    5.60   12.40
 -17  15  10   -2.40   10.60
  15   2  10    0.30   13.20
  15   2  10   16.50    9.80
 -17  15  10   19.10   11.90
  15   2  10   -6.60    8.30
  15   2  10    2.10    8.30
 -17  15  10  -23.10   14.30
 -17  15  10  -15.80   15.60
 -15   1 -10    3.80   10.80
  14 -15 -10   29.80   14.40
  14 -15 -10   11.80    9.40
 -15   1 -10   -4.60   23.90
   1  14 -10   22.50   10.40
   1  14 -10   23.90    8.80
 -15   1 -10    0.70    9.00
  -1 -14  10   12.90    8.90
  15  -1  10   19.20   12.40
  -1 -14  10   15.90   11.80
 -14  15  10   31.70   12.30
  15  -1  10    2.30    7.50
 -14  15  10    9.90   10.40
 -14  15  10   19.10   10.20
 -14  15  10   -3.60   13.60
  15  -1  10   20.30    8.30
  15  -1  10   10.20    8.10
 -14  15  10   -4.60    9.20
 -15   4 -10   -4.30   11.60
 -15   4 -10    0.30   10.40
   4  11 -10   -4.90    8.50
 -15   4 -10   -6.70   10.00
   4  11 -10   -6.00    7.60
   4  11 -10    7.70    7.30
  11 -15 -10   18.60   13.60
  11 -15 -10    5.50   10.30
 -11  15  10   17.80    9.40
  15  -4  10    1.30    7.70
 -11  15  10  -17.10    9.60
  15  -4  10  -11.20    6.90
 -11  15  10  -22.40   16.70
  -4 -11  10   -6.30   10.00
  15  -4  10   -0.70    5.20
 -11  15  10    3.80   17.40
 -15   7 -10  -15.00    9.50
   7   8 -10  -21.00   17.00
   7   8 -10   -3.70    8.00
   8 -15 -10    0.00    9.60
 -15   7 -10    1.90   10.70
  -8  15  10   -3.60    9.20
  15  -7  10    0.80    5.10
  -7  -8  10   -3.20    8.70
  15  -7  10   -3.40   11.40
  -8  15  10   18.80   14.40
  -8  15  10   -5.90    9.30
  10   5 -10  -12.30    8.10
 -15  10 -10   -9.40   11.20
  10   5 -10  -10.00   12.10
  10   5 -10  -35.40   17.70
   5 -15 -10    5.10   11.00
  15 -10  10   10.80    7.60
  -5  15  10  -15.90    9.10
 -10  -5  10   -5.70    8.00
  -5  15  10   -6.20   13.40
  15 -10  10    1.00    7.40
  -5  15  10    3.70    8.00
  13   2 -10   -9.70   15.50
 -15  13 -10    5.40   10.50
   2 -15 -10   -3.40   11.00
 -15  13 -10    8.70   10.90
  13   2 -10   -7.60    9.30
  13   2 -10    7.70    7.40
  -2  15  10    7.80    9.50
  15 -13  10   19.10   10.40
  15 -13  10    1.00    6.80
  -2  15  10   -4.80    7.90
  16  -1 -10   39.80   15.70
 -15  16 -10   14.50   10.70
  -1 -15 -10    4.00   15.30
 -15  16 -10   14.20   12.10
  -1 -15 -10   -3.80   15.60
   1  15  10   25.60    8.70
  15 -16  10   31.00   11.20
 -16   1  10   16.70   11.40
   1  15  10   21.10    9.20
   1  15  10   19.60    8.90
  19  -4 -10    0.50   14.70
  -4 -15 -10   23.40   16.90
  -4 -15 -10    7.30   17.60
   4  15  10    4.20    9.60
  15 -19  10   12.30    9.80
 -19   4  10   16.80   14.90
 -16  -3 -10    6.50   10.60
 -19  16  10   43.60   17.60
   3 -19  10   20.00   15.50
   0  16 -10   11.50   12.20
  16 -16 -10   -5.10   13.10
   0  16 -10    9.10   10.00
   0  16 -10   -6.20   10.90
 -16   0 -10    9.70   11.10
 -16   0 -10   15.20   13.60
   0 -16  10   -8.80   14.40
 -16  16  10   -1.50   11.00
 -16  16  10   -0.60   13.20
  16   0  10   -9.30    8.50
 -16  16  10  -30.00   14.40
 -16  16  10    3.20   10.30
 -16  16  10    1.30   10.50
  16   0  10   -9.40    8.40
  13 -16 -10  -16.20   15.00
   3  13 -10   -9.80    8.10
  13 -16 -10   11.20    9.90
   3  13 -10    0.70    9.20
   3  13 -10   -5.30    9.00
 -16   3 -10   18.60   12.50
 -16   3 -10   17.10    9.30
 -13  16  10    4.40   11.00
  16  -3  10   24.40    7.70
 -13  16  10    5.80   10.00
  16  -3  10   12.30    6.90
  16  -3  10   -1.40    6.60
 -13  16  10   25.50   11.90
 -13  16  10   33.20   15.40
  -3 -13  10    4.30   10.30
  16  -3  10  -12.00   22.80
 -13  16  10   27.80    9.80
  10 -16 -10  -14.20   11.10
   6  10 -10  -19.90    9.30
   6  10 -10   -8.50    9.30
 -16   6 -10    2.60   11.90
   6  10 -10   -6.20    7.20
 -10  16  10   -9.80   10.50
  16  -6  10   -9.00    6.10
  16  -6  10   -5.80   16.30
 -10  16  10   15.90   15.30
  16  -6  10   -3.40    6.40
  -6 -10  10   -4.40    8.60
 -10  16  10   -3.70   11.40
   9   7 -10  -16.80   20.00
   9   7 -10  -11.60   15.90
   9   7 -10   -5.20    8.40
 -16   9 -10   18.00   12.20
 -16   9 -10  -16.20    9.40
   9   7 -10    6.60    7.70
  -7  16  10  -19.00    9.00
  -7  16  10   -1.30    8.90
  16  -9  10    0.50   10.20
  16  -9  10    0.10    6.20
  -7  16  10    5.50   13.10
  16  -9  10    0.90    6.00
  -9  -7  10   10.40    9.10
  12   4 -10  -23.90   17.50
   4 -16 -10    0.40   12.70
 -16  12 -10   13.20   11.80
  16 -12  10    8.20    9.60
  -4  16  10    7.20   10.00
  -4  16  10   -3.00   16.00
  -4  16  10   -5.20    9.00
 -12  -4  10  -10.60   10.00
  16 -12  10    8.10    6.30
 -16  15 -10   20.30   11.70
 -16  15 -10   12.70    9.80
   1 -16 -10    0.80   12.60
  15   1 -10   25.60   10.60
  15   1 -10    6.10   16.50
  16 -15  10   18.60    7.60
  -1  16  10    5.70    8.10
  -1  16  10    4.40    9.20
  16 -15  10   22.60   11.80
 -15  -1  10   18.10   10.20
 -16  18 -10    5.00   11.40
 -16  18 -10   -4.90   17.80
  -2 -16 -10   -1.60   18.20
  -2 -16 -10  -28.40   15.80
  18  -2 -10   18.90   16.20
   2  16  10    8.60    9.10
   2  16  10   -1.70    9.50
   2  16  10  -15.90   13.00
  18 -17 -10   -8.90   15.40
  -1  18 -10   14.60   13.90
 -17  -1 -10  -13.20   10.30
 -18  17  10    9.30   16.80
 -18  17  10    0.10   17.20
  17   1  10   -2.40    9.80
  17   1  10   -3.00    9.20
 -18  17  10    4.30   11.30
   2  15 -10   -5.30   10.40
  15 -17 -10   10.70   15.60
 -17   2 -10   10.70   11.10
  17  -2  10    2.00    8.30
 -15  17  10   11.60   10.60
  17  -2  10   10.60    7.80
 -15  17  10    3.90   12.10
 -15  17  10   -8.10   12.00
  17  -2  10   12.10    9.40
  -2 -15  10    8.90    9.40
   5  12 -10   25.20    9.30
   5  12 -10   28.30    8.90
   5  12 -10   19.10    9.30
 -17   5 -10   34.30   12.00
 -17   5 -10   29.50   14.00
  12 -17 -10   -1.80   14.10
  12 -17 -10    7.70   10.60
 -12  17  10    9.60   12.10
  17  -5  10   30.90    9.40
 -12  17  10   22.90   10.20
 -12  17  10   -6.40   16.70
 -12  17  10   14.30   16.70
  -5 -12  10   44.80   12.70
  17  -5  10   22.10    6.60
  17  -5  10   -0.70   30.00
 -12  17  10    5.80   11.00
 -17   8 -10    2.20   11.00
   8   9 -10   -3.20    8.20
   8   9 -10   15.10    9.10
   9 -17 -10    9.90   11.30
   8   9 -10  -12.90    9.70
  -9  17  10  -14.60   10.40
  -9  17  10   -6.50   10.00
  -9  17  10   10.40   13.70
  -8  -9  10    2.80    9.60
  17  -8  10   -1.30    6.60
  17  -8  10    9.60   12.90
  17  -8  10  -16.30    8.60
  -9  17  10   -2.30   13.40
 -17  11 -10   18.40   13.20
 -17  11 -10    7.60   12.10
  11   6 -10   -7.10   20.40
  11   6 -10   -7.80    9.10
  11   6 -10   23.50   21.30
  11   6 -10   -0.40    8.40
  17 -11  10    1.90   10.10
 -11  -6  10   -5.50    8.00
  17 -11  10    3.00    6.10
  -6  17  10    6.90   10.30
  -6  17  10    3.50    9.40
  -6  17  10  -15.30   13.90
 -17  14 -10    4.70   11.60
   3 -17 -10   14.30   13.90
  14   3 -10   51.49   21.00
  14   3 -10   -5.80    9.10
  14   3 -10    8.60    9.50
 -17  14 -10  -15.40   13.60
  -3  17  10   11.20   10.70
  -3  17  10    3.80   18.50
  17 -14  10   -8.70   10.90
 -14  -3  10    5.50   10.80
  -3  17  10    5.30    8.40
   0 -17 -10   12.30   16.30
 -17  17 -10   51.59   20.00
 -17  17 -10   -6.30   10.90
  17   0 -10   12.40   18.70
   0  17  10   14.80   10.60
  17 -17  10   21.80    9.30
 -17   0  10    2.60   13.50
   0  17  10   12.40   11.00
   0  17  10    1.00    8.60
   1  17 -10  -18.00   11.70
 -18   1 -10  -21.50   11.00
 -18   1 -10   -5.00   15.50
  17 -18 -10  -24.00   17.30
   1  17 -10   17.70   13.20
 -17  18  10   20.10   13.60
 -17  18  10   -3.80   12.00
  18  -1  10    0.20    9.20
  18  -1  10   13.70    9.20
 -17  18  10  -13.10   15.50
  -1 -17  10   -5.60   18.30
  18  -1  10    4.40   11.20
   4  14 -10    3.50   10.70
   4  14 -10   12.80   10.70
 -18   4 -10   -7.70   10.50
  14 -18 -10    2.70   11.20
 -18   4 -10   -7.80   14.30
  18  -4  10   -2.60    8.60
 -14  18  10    6.40   12.30
 -14  18  10  -14.50   18.00
  -4 -14  10    7.00   13.60
 -14  18  10   15.70   11.40
  18  -4  10    3.90    6.90
  18  -4  10   15.70    8.60
   7  11 -10   -3.40   10.00
   7  11 -10   18.60   10.30
   7  11 -10   10.70    8.60
 -18   7 -10   15.70   14.00
  11 -18 -10    9.40   10.30
  18  -7  10   11.20   10.10
 -11  18  10   12.00   12.60
  18  -7  10   21.60    7.10
 -11  18  10    7.40   11.40
   8 -18 -10   13.10   14.10
  10   8 -10  -10.60    8.50
 -18  10 -10    6.40   12.10
  10   8 -10   -2.50    9.50
 -18  10 -10  -21.90   12.30
  10   8 -10    4.70   23.30
  10   8 -10  -27.60   21.10
 -10  -8  10   -0.80   10.90
  -8  18  10    6.40   11.10
  -8  18  10   -2.10   13.30
  -8  18  10   -1.70   11.90
  18 -10  10  -18.00    9.80
  18 -10  10   14.90    7.60
 -18  13 -10   32.70   14.90
  13   5 -10   22.60    9.60
 -18  13 -10   15.40   14.80
  13   5 -10   14.80   10.90
   5 -18 -10   22.10   11.40
  18 -13  10   20.20   11.10
  -5  18  10    5.40   10.80
  -5  18  10   29.50   11.60
  18 -13  10    8.30    7.40
 -18  16 -10   13.10   11.90
  16   2 -10   45.20   22.30
 -18  16 -10   25.20   13.80
  18 -16  10    0.00   12.30
 -16  -2  10   13.60   12.70
  -2  18  10   12.00   11.40
  -2  18  10   -5.70   12.10
 -19   3 -10   14.50   12.20
  -3 -16  10    5.30   17.30
 -16  19  10   26.50   17.50
   6  13 -10  -22.80   10.80
  13 -19 -10  -20.50   16.40
   6  13 -10  -17.30   10.90
  13 -19 -10  -23.50   13.20
  19  -6  10   17.50    9.40
 -13  19  10   16.00   19.40
  19  -6  10   -4.60    9.90
 -13  19  10   22.20   16.30
  -6 -13  10   21.30   19.80
 -13  19  10  -12.60   11.60
  19  -6  10   17.00    8.60
 -19   9 -10   14.10   11.90
 -19   9 -10   -0.50   13.70
   9  10 -10  -19.60   10.10
   9  10 -10    5.30    9.80
  10 -19 -10    1.30   12.90
   9  10 -10  -11.90   11.60
  19  -9  10   -3.20    8.10
  -9 -10  10  -14.30   11.50
 -10  19  10    7.00   11.60
 -10  19  10    1.10   12.20
  19  -9  10   -6.10    9.90
 -19  12 -10  -31.20   15.60
  12   7 -10   -6.80   10.70
  12   7 -10  -34.70   24.30
 -19  12 -10   -7.90   12.20
  19 -12  10   12.50   12.00
  19 -12  10  -11.90    9.40
  -7  19  10   10.70   14.60
  -7  19  10   -1.40   12.60
  -7  19  10   -8.70   10.60
 -12  -7  10   27.10   17.80
  15   4 -10   12.50   24.20
 -19  15 -10  -19.00   15.00
 -15  -4  10   14.70   12.20
  -4  19  10   14.60   13.80
  19 -15  10   10.70   13.00
   8  12 -10   12.90   11.00
 -20   8 -10   27.90   24.10
 -20   8 -10  -10.40   17.10
  12 -20 -10    2.50   13.80
  20  -8  10   25.80   10.60
 -12  20  10   24.60   15.10
  -8 -12  10   40.30   12.00
 -12  20  10   19.30   13.10
 -20  11 -10   12.20   14.00
 -20  11 -10   70.09   16.60
 -11  -9  10   31.00   11.10
  -9  20  10   48.50   13.20
  20 -11  10   41.80   11.90
   1   0 -11   -5.10   13.80
   0  -1 -11   13.70   14.70
   0  -1 -11   -0.10   10.00
   1   0 -11   16.50   12.30
  -1   1 -11  -16.00   10.60
   0  -1 -11   -0.40   11.80
  -1   1 -11   -8.30   11.10
  -1   1 -11   -0.90   10.60
   1   0 -11    9.80   10.80
   1   0 -11   19.00   11.00
  -1   0  11    5.80    9.70
   0   1  11   -8.20   16.00
   1  -1  11   16.10   16.10
  -1   0  11   21.10   12.10
  -1   0  11   -1.90   12.80
   1  -1  11   -5.20    8.80
   0   1  11   13.70   10.00
   2  -2 -11    1.40   14.80
  -2   0 -11    9.50   11.20
   2  -2 -11   19.50   10.60
   0   2 -11   39.00   12.40
  -2   0 -11   30.30   15.40
   2  -2 -11   13.30    8.70
   0   2 -11    1.30   12.10
  -2   0 -11   21.30   13.20
   0   2 -11   21.60   11.80
  -2   2  11   25.10   10.80
   2   0  11   18.90   13.40
  -2   2  11    4.20   10.10
   2   0  11   26.60   10.20
   0  -2  11   20.40    9.80
  -2   2  11   13.80   14.40
   0  -2  11   10.20   13.80
  -1  -2 -11   -5.60   16.50
   3  -1 -11    6.00    9.60
  -1  -2 -11   -6.00   13.30
   3  -1 -11   17.50   10.80
  -2   3 -11   15.40   14.10
  -2   3 -11    2.20   12.70
  -2   3 -11    1.00   12.80
   3  -1 -11   28.60   14.60
  -1  -2 -11    1.40    6.80
  -3   1  11   10.20   10.00
  -3   1  11   12.70   11.30
  -3   1  11   10.20   10.90
   2  -3  11   17.10    8.80
   1   2  11    2.30   11.30
   1   2  11   -0.80   10.30
   2  -3  11  -14.60   13.90
   4  -3 -11    9.60   11.80
  -1   4 -11    2.70   12.50
  -1   4 -11   29.60   15.80
  -3  -1 -11    2.80   15.40
  -1   4 -11   -5.00   13.10
  -3  -1 -11   12.60   16.90
   4  -3 -11   11.80   14.00
  -4   3  11    5.60    9.70
  -4   3  11   20.90   11.80
   3   1  11    3.50   11.00
   1  -4  11   20.90    9.20
   1  -4  11   17.80   15.90
  -4   3  11   26.60   12.70
   1  -4  11   27.50   18.60
   3   1  11   14.70   11.50
   2   1 -11    6.10   13.20
   1  -3 -11   13.80   17.10
   2   1 -11    0.30    9.30
   2   1 -11    1.30   11.50
  -3   2 -11  -21.60   13.30
  -3   2 -11   10.60   11.80
  -3   2 -11   -3.90   12.20
   1  -3 -11   -7.40   12.30
  -1   3  11  -10.60   15.30
  -2  -1  11   -7.00   11.60
   3  -2  11   11.70   12.20
  -2  -1  11   21.40   12.80
  -1   3  11   13.30   10.10
  -2  -1  11  -16.80   10.70
   3  -2  11   -0.30    8.50
  -1   3  11    8.40   16.80
   5  -2 -11  237.48   17.20
  -3   5 -11  217.88   16.20
   5  -2 -11  236.98   17.40
  -5   2  11  244.18   17.90
  -5   2  11  243.38   16.30
   3  -5  11  240.58   12.50
   2   3  11  272.97   17.10
   6  -4 -11  -11.90   14.00
  -4  -2 -11   -0.10    5.60
   6  -4 -11   -4.90    8.30
  -4  -2 -11  -15.80   16.70
  -2   6 -11   14.60   13.90
   6  -4 -11    4.10   13.80
  -6   4  11   10.00   14.60
   2  -6  11  -18.80   20.10
  -6   4  11   -3.90   11.70
   2  -6  11   -3.40    8.90
   4   2  11    5.80   10.70
  -6   4  11   -4.70   12.20
   1   3 -11   23.70   11.20
   3  -4 -11   32.20   15.50
   1   3 -11    8.20   15.90
  -4   1 -11   50.79   16.90
   1   3 -11   15.10   11.80
  -3   4  11   -6.80   18.50
   4  -1  11   37.20   11.30
  -3   4  11   24.20   11.00
  -3   4  11   23.50    8.10
  -1  -3  11   41.70   11.50
  -1  -3  11   20.60   13.80
  -1  -3  11   32.20   14.60
   4  -1  11   26.90   10.20
  -3   4  11   48.40   14.60
   0  -4 -11    0.30   12.90
   0  -4 -11   15.40   16.70
   4   0 -11    6.70    8.60
   4   0 -11   -2.20   14.10
  -4   4 -11   15.40   14.90
  -4   4 -11   20.00   14.00
  -4   4 -11   -9.50   18.10
   4   0 -11    9.00   11.50
   4   0 -11  -19.00   13.40
  -4   0  11   13.60   11.00
   0   4  11   12.00   12.70
   0   4  11    1.20   11.00
  -4   0  11    2.60   13.10
   4  -4  11   11.90    9.40
  -3  -4 -11   10.30    7.10
   7  -3 -11    6.60   13.60
   7  -3 -11   19.10   12.10
   7  -3 -11   19.50   18.40
  -4   7 -11   12.50    6.30
   3   4  11    3.10    5.30
   4  -7  11   -0.80    8.50
  -7   3  11    1.80    8.20
  -7   3  11    8.70   14.60
   4  -7  11   17.50   10.60
  -7   3  11   21.30    9.40
  -5  -3 -11   -4.60   12.40
  -3   8 -11    0.10    7.10
   8  -5 -11  -11.00   12.00
  -5  -3 -11   -3.60   30.40
  -3   8 -11    6.80    7.70
   8  -5 -11   -0.50   16.00
   8  -5 -11   25.30   20.30
   5   3  11  -11.60    6.20
  -8   5  11    9.10   10.90
   3  -8  11    1.40    9.10
   5   3  11   14.20    6.00
  -8   5  11   -2.00   14.30
   0   5 -11   14.00   12.30
  -5   0 -11   18.30   15.00
   5  -5 -11   26.50   15.10
  -5   0 -11   23.30   18.40
  -5   5  11    5.20   12.10
   0  -5  11   10.60   20.80
   0  -5  11   22.70   23.30
   0  -5  11   26.20   11.00
  -5   5  11   -2.10   14.30
  -5   3 -11    0.20   12.50
   3   2 -11   -0.70   17.40
   3   2 -11    3.10    9.50
  -5   3 -11  -19.20   15.50
  -5   3 -11   -0.70   14.20
   3   2 -11   -8.40   11.20
   2  -5 -11   -2.80   13.90
  -3  -2  11    4.60   14.70
   5  -3  11  -10.20   10.60
  -3  -2  11   12.10   12.00
  -2   5  11    8.50    9.90
   5  -3  11   -1.30    9.50
  -3  -2  11   15.90   13.40
  -2   5  11    6.40   13.20
   6  -1 -11   49.80   14.70
  -1  -5 -11   26.20    6.50
  -5   6 -11   32.70    6.20
  -5   6 -11   18.70   12.60
   6  -1 -11   34.90   12.20
   1   5  11   39.10    6.50
  -6   1  11   22.80    7.50
  -6   1  11   16.00    9.90
   1   5  11   43.80   12.20
   5  -6  11   50.09   10.40
  -6   1  11   41.90   14.00
   9  -4 -11    3.70    9.80
  -4  -5 -11   16.70   13.70
  -4  -5 -11   15.40    8.90
  -5   9 -11    3.60    7.10
  -5   9 -11   24.30    9.50
   9  -4 -11    0.10   15.20
  -5   9 -11   -3.30   27.30
   4   5  11    7.10    7.10
   4   5  11   -8.40    6.80
   5  -9  11    2.10    9.60
  -9   4  11    9.20   18.80
  10  -6 -11   15.40   16.40
  -4  10 -11   29.90   10.20
  -4  10 -11   10.70    6.70
  -6  -4 -11   12.70    9.20
  10  -6 -11   11.80   10.60
  -6  -4 -11   27.80   14.70
 -10   6  11    0.40   11.30
   6   4  11   15.70    5.30
   4 -10  11   15.10    9.20
 -10   6  11   27.80   19.30
   4 -10  11   14.00    9.00
 -10   6  11   19.20   12.00
  -6  -1 -11   45.10    7.90
  -6  -1 -11   43.00   18.80
   7  -6 -11   61.69   12.00
  -6  -1 -11   60.79   14.90
  -1   7 -11   45.80   16.60
   7  -6 -11   55.69   14.10
  -7   6  11   30.20   15.60
   1  -7  11   71.69   11.00
   1  -7  11   81.19   11.00
   6   1  11   63.19    7.70
  -7   6  11   57.49   15.00
   4  -6 -11  -12.20    8.80
   2   4 -11    4.10   10.80
   6  -2  11   14.50    7.80
  -4   6  11   -1.30   14.00
  -4   6  11    2.70    8.40
  -4   6  11   16.90   11.20
   6  -2  11   -0.60    9.20
  -2  -4  11   -3.60   17.10
  -2  -4  11  -14.40   13.80
  -2  -4  11   -1.40   14.40
   5   1 -11   16.30    7.80
  -6   5 -11    7.80   14.70
   5   1 -11    6.50   11.80
  -1   6  11   23.80    5.90
  -1   6  11   16.10   12.00
  -5  -1  11   23.10   10.60
  -5  -1  11   26.90    6.90
   6  -5  11   20.20   11.50
   6  -5  11   14.90   10.90
  -5  -1  11   24.70   14.10
   8  -2 -11  -18.80   13.70
  -2  -6 -11   -3.20   10.10
  -2  -6 -11   12.90    9.50
   8  -2 -11    9.60   11.40
  -6   8 -11   -9.10    6.50
  -6   8 -11   10.30    8.00
   6  -8  11   -4.90   10.50
   2   6  11   -7.80    5.90
  -8   2  11  -12.00   16.50
   6  -8  11   -4.20    8.60
  -5  -6 -11   16.80   15.80
  11  -5 -11  -22.00   16.40
  -5  -6 -11   -2.20    9.60
  -6  11 -11   13.40    8.50
  -6  11 -11   -6.00   19.80
  -6  11 -11    1.50    9.50
   5   6  11   -7.30    6.00
   5   6  11  -15.60   24.90
 -11   5  11  -13.60    8.80
   5   6  11   -2.70    6.50
   5   6  11   11.00    8.20
   6 -11  11  -16.80   10.80
  -7  -5 -11   15.60   11.90
  12  -7 -11  -10.60   10.40
  -7  -5 -11  -14.60   16.50
  -5  12 -11    5.90    7.60
  -5  12 -11    0.70    9.80
 -12   7  11   -4.00   12.00
 -12   7  11   13.20   10.30
   7   5  11    9.40    8.60
 -12   7  11    5.90   12.50
   5 -12  11   25.30   10.20
  -7  -2 -11   65.59    9.00
  -2   9 -11   41.30    7.70
   9  -7 -11   64.69   12.60
  -7  -2 -11   53.79   15.00
   7   2  11   37.60    7.10
  -9   7  11   55.79    9.60
  -9   7  11   51.29   16.10
   2  -9  11   43.20    8.70
   7   2  11   51.99    7.10
   2  -9  11   63.49   10.90
  -9   7  11   64.79   17.90
   1   6 -11    4.40   14.90
   1   6 -11   -0.30    6.90
  -7   1 -11   -5.30   17.80
  -7   1 -11   -0.10   15.60
  -7   1 -11   -0.10    8.30
  -6   7  11    4.20   12.90
  -1  -6  11   -8.00   12.40
  -1  -6  11  -10.50    7.60
   7  -1  11    9.80   11.70
  -6   7  11    0.80    6.70
   7  -1  11    6.70    6.20
  -6   7  11   -3.20   11.80
   3  -7 -11    4.00    7.40
   4   3 -11    6.70   10.30
  -7   4 -11   -1.30    7.70
  -3   7  11   -6.80   10.50
  -4  -3  11    2.00    5.70
  -4  -3  11   17.80   14.20
   7  -4  11   14.70   10.10
  -4  -3  11   19.30   12.50
   0  -7 -11   54.89   10.20
   7   0 -11   65.99   15.80
   7   0 -11   46.80   13.60
   0   7  11   52.29    8.10
  -7   0  11   43.70   16.00
   7  -7  11   62.79   13.20
   0   7  11   39.80   12.40
  -7  10 -11   -0.40    9.60
  -7  10 -11  -11.30    7.70
  10  -3 -11    3.20   10.70
  -3  -7 -11   15.80   15.20
  10  -3 -11   17.20   15.20
   3   7  11   -9.00    7.20
   7 -10  11    8.00   11.90
   3   7  11    3.80   18.90
   3   7  11   -7.10    6.30
   7 -10  11   -4.60    8.40
  13  -6 -11   13.40   19.90
  -6  -7 -11   -3.00   21.70
  -7  13 -11   -0.20    8.50
  -7  13 -11    4.90   11.60
  13  -6 -11   -0.40   10.90
   7 -13  11   23.00   12.20
 -13   6  11   12.20   26.60
   6   7  11  -16.00    8.80
   6   7  11    4.60    7.90
   6   7  11    3.50    7.40
 -13   6  11  -10.30    9.20
  14  -8 -11  -12.90   11.50
  -8  -6 -11   -0.30   12.00
  -6  14 -11   -5.00    9.00
  -6  14 -11   15.80   11.40
  -8  -6 -11    4.70    8.80
  14  -8 -11   -5.20    9.60
 -14   8  11   14.70   10.70
 -14   8  11   10.20   13.40
 -14   8  11    4.20   13.80
   8   6  11   -0.30    8.80
   6 -14  11    8.20   11.20
   8   6  11    7.70    7.70
  -3  11 -11   10.70    9.50
  -8  -3 -11    6.60   17.10
  11  -8 -11   16.50    9.10
  11  -8 -11   49.40   12.00
  -3  11 -11   21.30    7.90
  -8  -3 -11   28.40    8.00
 -11   8  11   37.80   11.80
 -11   8  11    7.20   14.80
   3 -11  11   42.00   10.50
   8   3  11   31.30    7.00
 -11   8  11   23.50   17.70
   0   8 -11   38.60    8.30
  -8   0 -11   20.80    8.60
  -8   0 -11   42.20   17.10
   8  -8 -11   44.30   13.60
   0   8 -11   32.40   10.60
  -8   0 -11   60.59   18.20
   0  -8  11   59.99   12.80
   8   0  11   26.50    6.10
  -8   8  11   42.20   17.40
  -8   8  11   44.20   10.50
  -8   8  11   35.40   38.40
  -8   8  11   40.80    6.00
   5  -8 -11   21.50    8.90
   3   5 -11   23.50   14.20
  -3  -5  11   12.90    9.30
  -5   8  11   23.90   11.90
  -5   8  11   35.20   12.80
   8  -3  11   21.40   10.30
  -3  -5  11   -1.10   17.20
  -5   8  11   22.40    7.70
   6   2 -11   28.70    8.90
   2  -8 -11   27.50    8.50
  -8   6 -11   11.80   14.50
  -8   6 -11   38.90    8.60
   6   2 -11   35.20   14.10
  -2   8  11   43.50    8.70
  -6  -2  11   46.30    8.80
  -2   8  11   40.30   13.10
  -1  -8 -11   17.10    8.60
   9  -1 -11   -3.00   14.20
  -8   9 -11   15.60    8.30
   9  -1 -11    5.80   14.20
  -1  -8 -11    3.60   11.90
  -8   9 -11   -8.90    7.40
   1   8  11   -5.70    7.50
  -9   1  11   17.00    8.70
   8  -9  11   -7.90    8.10
   1   8  11   -5.10    6.80
   1   8  11   -6.90    6.20
   1   8  11    4.20   13.60
  -8  12 -11    7.70    8.40
  -8  12 -11   22.10    9.50
  12  -4 -11   25.60   10.70
  12  -4 -11    5.20   16.20
  -8  12 -11   23.60   26.30
  -4  -8 -11  -19.80   18.00
  -4  -8 -11    3.00   10.90
   8 -12  11   14.20    9.90
   8 -12  11   24.40   12.40
   4   8  11   36.40   24.50
   4   8  11    3.50    7.40
  -7  -8 -11   -4.10   12.10
  15  -7 -11   26.20   11.40
  -8  15 -11    1.10    9.90
  15  -7 -11   -0.80   23.10
  -7  -8 -11   13.60   13.90
   8 -15  11    5.80   11.60
   7   8  11   14.50    9.30
 -15   7  11   18.20   12.30
   7   8  11   23.50    8.30
  -9  -7 -11  -23.20   13.10
  -9  -7 -11   20.00   10.50
  -7  16 -11   -8.40   11.60
  16  -9 -11  -20.50   11.90
  16  -9 -11  -21.90   13.30
  -7  16 -11    1.10   10.50
   9   7  11   12.20    9.50
   9   7  11    7.30    8.00
   9   7  11   -3.50   10.30
 -16   9  11   -0.60   19.00
   7 -16  11    0.50   10.10
  13  -9 -11  -21.40   10.90
  13  -9 -11    2.80   10.40
  -9  -4 -11   -5.40   12.70
  -4  13 -11   14.60    8.50
  -4  13 -11    4.80   10.10
  -9  -4 -11   14.50    8.20
   9   4  11   -1.00    6.90
   9   4  11   -1.70    6.70
   4 -13  11    4.70   10.20
 -13   9  11   17.50   12.20
   4 -13  11    0.30    9.20
 -13   9  11  -21.40   11.50
 -13   9  11   12.80   16.50
  -9  -1 -11   -5.10   15.60
  10  -9 -11   26.50   10.90
  -9  -1 -11   18.20    9.60
  10  -9 -11   15.60    9.40
  -1  10 -11   20.00   10.30
 -10   9  11   13.40   16.20
   1 -10  11    2.40   12.20
 -10   9  11   -4.40   20.60
   9   1  11   18.60    6.70
   9   1  11   23.70    6.00
   1 -10  11   27.60   10.80
  -9   2 -11  -33.70   15.90
   2   7 -11   -0.40    7.10
   2   7 -11  -10.40   18.10
  -9   2 -11   -2.50    7.50
   7  -9 -11   -1.80    7.30
  -2  -7  11    0.30   10.10
   9  -2  11   -2.60    6.10
  -7   9  11    2.60   12.20
  -7   9  11    3.00   15.90
   9  -2  11   -9.10   11.80
  -2  -7  11   -6.20    8.70
   5   4 -11   28.70   12.00
   5   4 -11    7.20    7.70
  -9   5 -11    7.80    7.30
  -5  -4  11   16.30    7.80
   9  -5  11   14.10    9.70
  -4   9  11   12.60   12.40
   9  -5  11    9.20    7.00
  -4   9  11    4.30   12.10
   8   1 -11   37.60   16.00
   1  -9 -11   33.30    9.20
   8   1 -11   24.40   12.20
  -9   8 -11   25.20    8.40
  -9   8 -11   36.00    6.60
  -1   9  11   24.70   13.70
   9  -8  11   24.20    8.40
  -8  -1  11   13.80    7.90
  11  -2 -11  -13.00   10.50
  -9  11 -11    4.80   10.60
  11  -2 -11  -12.30   14.70
  -2  -9 -11   -7.00    9.10
  -9  11 -11   -3.70    8.30
  -2  -9 -11   20.70   17.70
   2   9  11   -2.70   18.80
   2   9  11  -11.00    8.30
 -11   2  11  -10.10    9.40
   2   9  11    5.40    6.80
   2   9  11    5.00    8.10
   9 -11  11   -6.90   14.10
   9 -11  11    8.20    7.70
  -9  14 -11   14.90   20.70
  14  -5 -11   18.90   11.00
  -9  14 -11    5.40   10.70
  -5  -9 -11  -29.30   22.70
  14  -5 -11    8.70   18.60
  -9  14 -11   18.20   11.00
   9 -14  11    5.80   12.00
   5   9  11   18.70    8.30
 -14   5  11   26.00   11.10
 -14   5  11   -1.10   19.40
   5   9  11    6.20    7.60
   9 -14  11    3.20    7.50
  -8  -9 -11   15.60   15.00
  -9  17 -11   14.00   14.50
  -8  -9 -11   -0.80   13.10
  17  -8 -11   -9.60   27.30
  -9  17 -11   17.90   11.20
   8   9  11   -0.50    8.70
   8   9  11    0.10    8.20
   9 -17  11   10.80    7.50
  -8  18 -11  -12.30   14.10
  18 -10 -11   26.10   13.60
  10   8  11   15.20    8.60
  10   8  11   11.90   12.90
  10   8  11   17.70   10.00
 -18  10  11    1.30   13.50
  10   8  11   -1.20    8.50
  -5  15 -11   22.50    8.70
  -5  15 -11   -1.70   10.80
 -10  -5 -11   29.10    8.80
  15 -10 -11   -1.50   12.00
  15 -10 -11   -2.40   11.10
 -10  -5 -11   17.30   12.50
  10   5  11    7.10    7.80
  10   5  11   15.00    6.90
 -15  10  11   23.80   13.10
  10   5  11   25.70    8.50
   5 -15  11   20.90   11.60
 -15  10  11   -5.20   20.30
  10   5  11    5.00   10.00
 -15  10  11   19.70   19.90
 -10  -2 -11    7.10    9.60
 -10  -2 -11   10.30    8.80
  12 -10 -11    5.80    9.70
 -10  -2 -11    5.50   10.90
  12 -10 -11   13.00   12.80
  -2  12 -11  -11.00    9.10
  10   2  11  -12.20    9.00
 -12  10  11   -0.40   16.70
  10   2  11    8.80    7.50
   2 -12  11   -0.20   10.20
   2 -12  11   -6.20   10.80
  10   2  11   -5.30    5.80
 -10   1 -11    7.80    7.40
   1   9 -11    6.80    7.30
   9 -10 -11  -11.60   11.60
   9 -10 -11   13.90    8.90
  -9  10  11   12.00   19.10
  -9  10  11   11.60    7.10
  -1  -9  11    3.50    9.20
  10  -1  11   -2.00    6.70
  -9  10  11   -4.10    7.80
   4   6 -11   11.00   15.90
   6 -10 -11   22.90    9.20
   4   6 -11    8.50    8.00
   4   6 -11   20.10    6.60
 -10   4 -11   12.70    7.30
  10  -4  11    2.70   10.80
  -4  -6  11    7.50    7.40
  -6  10  11    8.50   13.00
  -6  10  11  -23.10   17.20
  -4  -6  11   -6.20    9.00
  -6  10  11   -2.50    8.10
  -6  10  11   14.40   16.30
 -10   7 -11   87.29   16.30
   7   3 -11  121.79    9.90
  -7  -3  11  131.79   10.50
  -3  10  11  102.79   15.40
  10   0 -11   17.10   14.70
  10   0 -11    6.40   13.70
 -10  10 -11    7.90    8.40
 -10  10 -11   -7.60    8.60
   0 -10 -11    0.80   10.20
  10 -10  11   -2.60    7.50
 -10   0  11   -3.40    7.90
   0  10  11   15.30    7.50
   0  10  11  -15.80    7.70
   0  10  11   -2.00   14.40
   0  10  11   -6.60    7.10
  10 -10  11   -7.20    6.90
 -10  13 -11    6.10    8.80
  13  -3 -11  -22.30   15.50
  -3 -10 -11   18.90   10.20
  -3 -10 -11   -4.60   19.70
 -10  13 -11   27.70   10.90
 -13   3  11   12.30   10.80
   3  10  11  -19.60   27.40
   3  10  11   -0.20    6.40
   3  10  11    9.60    8.20
   3  10  11   -4.60    7.10
  10 -13  11  -13.50   14.60
  10 -13  11   17.50    7.60
  16  -6 -11   -0.20   21.40
  16  -6 -11   30.60   11.10
 -10  16 -11   17.80   12.10
   6  10  11   17.40    8.70
  10 -16  11   28.10    6.90
   6  10  11   18.70    9.00
 -16   6  11    8.40   10.80
   6  10  11   13.40    7.50
  10 -16  11    8.60   10.40
  19  -9 -11   -0.10   15.40
  -9 -10 -11  -20.50   15.70
 -10  19 -11   25.40   20.60
  -9 -10 -11   -1.20   14.40
 -10  19 -11   11.60   14.70
 -19   9  11  -11.60   14.60
   9  10  11  -16.50   10.40
   9  10  11  -16.60   12.20
  10 -19  11   12.70    8.40
   9  10  11   -5.60    9.00
   9  10  11  -15.80   12.10
  17 -11 -11   12.30   12.10
 -11  -6 -11   -1.90   13.20
  17 -11 -11   -2.90   13.20
 -11  -6 -11  -12.90    8.60
  -6  17 -11    4.80   11.10
  11   6  11  -13.40    8.90
  11   6  11   -2.00   11.60
 -17  11  11    8.60   25.10
  11   6  11   -0.40    9.00
  11   6  11   14.50   10.50
  -3  14 -11   12.70   11.70
  14 -11 -11   16.10   11.80
 -11  -3 -11    0.20    8.50
 -11  -3 -11   -6.60   12.70
  14 -11 -11    5.30   10.30
  -3  14 -11   11.40    8.70
  11   3  11    5.40    7.40
 -14  11  11   -0.70   12.00
 -14  11  11   -6.90   21.50
 -14  11  11   13.90   26.90
   3 -14  11   20.00   12.10
  11   3  11   -0.70    6.70
   3 -14  11   -7.20   10.20
   0  11 -11   -1.00    8.20
 -11   0 -11    7.80    8.70
 -11   0 -11   14.60   10.20
  11 -11 -11    3.30   10.20
 -11   0 -11   10.00    8.20
   0  11 -11    8.70    9.60
  11 -11 -11    3.70   11.00
   0 -11  11   -1.10   10.70
   0 -11  11    3.20   13.00
 -11  11  11    3.40    8.70
 -11  11  11   -6.50   18.70
 -11  11  11   -5.80    9.30
 -11  11  11    4.50   23.00
  11   0  11    2.00    7.00
   8 -11 -11   -5.50   13.60
   8 -11 -11   -7.20    8.20
 -11   3 -11   14.80    7.90
   3   8 -11    2.40   15.60
   3   8 -11   -1.30    7.30
 -11   3 -11  -10.00    8.90
  -8  11  11   -9.10   14.40
  -3  -8  11    4.70    8.90
  -8  11  11   24.40   18.30
  11  -3  11    3.70    6.20
  -8  11  11   -2.50    7.40
  11  -3  11    7.10   11.00
  -3  -8  11   16.10    9.20
   6   5 -11    5.70    6.90
   6   5 -11   -6.20    7.30
   6   5 -11  -15.30   13.60
 -11   6 -11   -0.40    8.40
  11  -6  11    2.70    9.40
  -5  11  11   -9.30    6.40
  11  -6  11   -8.60    6.00
  -6  -5  11   -1.80    7.50
  -5  11  11   23.70   14.30
  -5  11  11  -16.20   17.00
   9   2 -11   -6.30   16.10
 -11   9 -11   10.70    8.70
   2 -11 -11   -9.20    8.60
 -11   9 -11   -5.40    8.60
  -9  -2  11    5.20    8.00
  -2  11  11    2.70    7.00
  -2  11  11    7.20    8.90
  11  -9  11   10.40    8.00
  11  -9  11    5.30    7.60
  -2  11  11  -19.10   14.60
  12  -1 -11   12.10   16.30
  12  -1 -11   14.80   13.70
 -11  12 -11   -1.60    8.40
  -1 -11 -11    9.80   19.30
   1  11  11    5.20    8.30
  11 -12  11    3.30    6.40
  11 -12  11   -2.60    6.30
   1  11  11    2.10   20.00
 -12   1  11   10.20    9.50
  15  -4 -11  -12.60   10.90
  -4 -11 -11  -21.30   27.20
  -4 -11 -11   -7.50   11.90
 -11  15 -11   -7.00   10.90
  15  -4 -11   22.70   17.60
 -11  15 -11   13.60   10.80
   4  11  11  -11.90    8.70
   4  11  11   16.90    8.20
  11 -15  11    3.50    6.10
  11 -15  11   -2.00   12.20
   4  11  11   14.30    7.70
  -7 -11 -11    6.90   12.50
 -11  18 -11   -3.20   14.20
  -7 -11 -11   25.50   15.50
  18  -7 -11    1.50   11.40
   7  11  11    7.90   10.30
 -18   7  11   25.10   12.20
   7  11  11   -8.70    8.80
   7  11  11   19.90    9.60
  11 -18  11    7.70    8.40
   7  11  11    6.10   10.70
 -12  -7 -11   -4.60   14.80
  19 -12 -11   12.80   17.30
  12   7  11  -19.10   11.20
  12   7  11   -1.60    9.40
 -19  12  11  -10.00   15.70
  16 -12 -11   16.50   11.20
  -4  16 -11   -8.20   10.60
  -4  16 -11   -5.20   11.70
 -12  -4 -11    9.50   13.40
  -4  16 -11   16.60   10.10
  16 -12 -11    6.10   12.60
   4 -16  11   20.30   12.90
  12   4  11    2.00    8.10
  12   4  11  -10.60   11.20
   4 -16  11    0.90   10.50
 -16  12  11   23.30   13.90
 -16  12  11  -26.00   22.50
 -16  12  11   -7.00   26.10
 -16  12  11    9.90   15.20
  12   4  11    7.20    8.10
  -1  13 -11   16.80    8.80
  13 -12 -11   15.60   12.70
 -12  -1 -11   21.10   10.80
  -1  13 -11   10.70    9.40
  13 -12 -11   20.10    9.70
 -12  -1 -11   28.40    7.90
  -1  13 -11   11.20   10.20
 -13  12  11    8.90   13.30
 -13  12  11   34.40   13.00
  12   1  11   14.40    6.10
  12   1  11    0.10   10.50
 -13  12  11   30.20   10.70
 -13  12  11    3.10    9.90
 -13  12  11   23.40   11.50
   1 -13  11   18.30   12.90
   1 -13  11   24.00   12.00
  12   1  11   13.10    6.70
  12   1  11   25.90    7.80
 -12   2 -11   19.80    9.70
   2  10 -11   10.80    9.30
 -12   2 -11   -6.50   11.30
 -12   2 -11  -11.40    8.70
  10 -12 -11    0.30    9.40
  12  -2  11   -2.10    6.60
  -2 -10  11  -14.50   10.40
  -2 -10  11    2.80    8.80
 -10  12  11    6.20   10.90
 -10  12  11    8.80   10.00
 -10  12  11    0.70   11.40
 -10  12  11   17.80   22.50
 -12   5 -11    4.10    7.20
   5   7 -11   -0.30   16.10
   7 -12 -11   27.90    9.70
   5   7 -11   22.90    7.70
  -7  12  11   19.10   21.90
  -7  12  11   25.00   14.10
  12  -5  11   11.00   11.50
  -7  12  11   10.80    7.70
  12  -5  11   22.40    6.80
  -5  -7  11   -4.60    8.10
  -7  12  11   -1.80    8.90
  -7  12  11   -6.20   22.60
   8   4 -11   -5.20   11.10
   8   4 -11   -2.80   16.10
 -12   8 -11  -11.70    8.30
   8   4 -11    9.30    7.30
   8   4 -11   17.50    7.80
  -4  12  11   20.60   14.90
  12  -8  11   -2.90    6.90
  -4  12  11    9.40    9.30
  -8  -4  11    1.90    6.70
  -4  12  11    6.10    7.10
  12  -8  11    3.20    8.60
  -4  12  11    7.00   17.80
 -12  11 -11    7.10    9.30
  11   1 -11   11.00   13.30
 -12  11 -11   19.00    9.20
  11   1 -11    8.10   14.30
 -11  -1  11   -6.90    8.20
  -1  12  11   -5.80    6.60
  -1  12  11   25.10   19.50
  12 -11  11   -1.40    7.10
  12 -11  11    0.00    6.10
 -12  14 -11   19.80   12.30
 -12  14 -11   -1.30   10.10
  14  -2 -11   -3.50   12.10
  -2 -12 -11   25.20   25.20
  14  -2 -11    9.40   14.20
  -2 -12 -11   19.30   11.90
  12 -14  11   31.30    6.70
   2  12  11   19.60    7.40
  12 -14  11    6.70   14.20
 -14   2  11   37.00   10.10
   2  12  11    7.50    8.00
   2  12  11   22.80    9.60
  -5 -12 -11   31.50   15.40
 -12  17 -11   -4.70   11.30
 -12  17 -11   -2.30   14.60
  17  -5 -11   -2.90   12.50
   5  12  11   13.30   18.30
  12 -17  11    3.50    7.70
   5  12  11   -2.40    8.00
   5  12  11  -10.50    8.80
  -8 -12 -11   26.80   15.20
 -13  -5 -11    7.80   10.70
  18 -13 -11  -20.80   14.00
  18 -13 -11   -8.40   13.80
 -13  -5 -11   -3.60   13.10
 -18  13  11    0.20   15.30
 -18  13  11    5.30   17.40
  13   5  11   -8.70    8.30
  13   5  11    5.00    9.10
 -18  13  11   18.80   15.70
  -2  15 -11   -7.20   10.60
  -2  15 -11    3.20   10.70
 -13  -2 -11   -8.10   13.20
 -13  -2 -11   12.30    8.90
  -2  15 -11    9.50    9.40
 -13  -2 -11   13.30   11.50
  13   2  11    0.60   11.20
 -15  13  11    8.90   14.10
 -15  13  11    4.60   13.80
   2 -15  11    1.10   11.60
 -15  13  11  -16.00   11.20
 -15  13  11   -6.30   11.30
 -15  13  11    2.00   12.30
  13   2  11   -0.10    7.40
 -13   1 -11   15.30   11.80
   1  12 -11  -12.80    8.90
 -13   1 -11    8.20    8.50
 -13   1 -11    7.70    9.40
 -12  13  11   -7.10    9.40
  13  -1  11    4.50    6.30
 -12  13  11   21.70   13.70
  -1 -12  11   -0.50    7.80
  13  -1  11    7.20    5.90
 -12  13  11   -2.10    8.90
 -12  13  11  -16.40   11.10
  13  -1  11   13.40    6.60
   9 -13 -11   -6.70    9.90
 -13   4 -11   -4.70    9.30
   9 -13 -11  -16.40   12.80
   4   9 -11    8.90    7.40
   4   9 -11   -8.20    8.40
   4   9 -11    0.10    6.90
  -9  13  11  -31.70   23.10
  13  -4  11   14.40    6.00
  -9  13  11    7.80   10.80
  -9  13  11   19.70    8.50
  13  -4  11    2.90    5.70
  -4  -9  11    6.30    9.20
  -9  13  11  -21.00   24.00
   7   6 -11   14.80   14.50
 -13   7 -11    5.30    8.60
   7   6 -11   20.90    8.50
 -13   7 -11    6.20   12.10
   6 -13 -11   15.20   10.50
   7   6 -11    7.10    7.80
  13  -7  11   -6.10    9.40
  -6  13  11    0.20   16.10
  -6  13  11   -9.90   22.60
  13  -7  11   12.10    6.80
  -6  13  11    8.60    7.00
  -6  13  11    4.50    9.00
  -7  -6  11   -2.40    8.50
  10   3 -11   10.70   14.70
 -13  10 -11   -0.10    9.60
  10   3 -11   -9.90   16.00
   3 -13 -11    9.60   10.90
 -13  10 -11   -7.80    9.60
  -3  13  11  -10.30    8.20
  -3  13  11    4.60    7.60
  -3  13  11    5.60   22.40
  13 -10  11   -9.40    6.90
 -10  -3  11   -8.30    8.60
   0 -13 -11  -19.30   21.70
  13   0 -11    3.50    7.20
  13   0 -11   -9.20   12.10
 -13  13 -11   19.00   11.40
   0 -13 -11   22.50   11.60
  13 -13  11   16.80    8.50
   0  13  11    9.50    9.60
   0  13  11    4.20    7.50
  13 -13  11    9.30    6.30
 -13   0  11   10.70    8.50
   0  13  11   -3.30    7.90
  -3 -13 -11   -7.90   14.50
  -3 -13 -11  -17.90   14.20
  16  -3 -11    1.10   13.90
 -13  16 -11    3.30   11.20
   3  13  11    4.50    8.80
   3  13  11   15.20   10.00
  13 -16  11   14.90    7.20
  13 -16  11   12.40   15.30
   3  13  11    7.90    8.50
  -6 -13 -11   -5.70   18.00
 -13  19 -11    9.20   15.70
  19  -6 -11  -13.10   15.20
  -6 -13 -11  -18.90   13.60
  13 -19  11  -14.30    9.30
   6  13  11  -14.20   10.40
   6  13  11   -7.30    9.80
  17 -14 -11   -6.20   11.80
  -3  17 -11  -12.30   12.10
  -3  17 -11   21.40   12.50
 -14  -3 -11  -13.40   13.90
  14   3  11  -19.20    9.80
  14   3  11    0.00    7.90
 -17  14  11  -16.50   12.80
 -17  14  11   31.00   14.30
   3 -17  11   21.00   13.20
 -17  14  11  -18.20   15.80
 -17  14  11    4.90   11.80
  14 -14 -11  -12.10   11.00
   0  14 -11  -14.00    9.80
 -14   0 -11   25.60   13.00
 -14   0 -11  -12.90   12.00
   0  14 -11   12.20    9.70
  14 -14 -11    3.20   14.20
 -14  14  11   -8.00   13.80
 -14  14  11   26.00   10.30
 -14  14  11   13.30   10.10
   0 -14  11    5.40    6.70
  14   0  11    7.50   12.50
   0 -14  11   29.30   14.30
 -14  14  11  -11.70   11.30
  14   0  11    2.30    7.00
  11 -14 -11   22.10   13.70
  11 -14 -11   14.50   11.00
   3  11 -11    2.40    8.80
 -14   3 -11    7.00   10.40
   3  11 -11   23.30    9.10
   3  11 -11   24.60    7.90
 -14   3 -11   -6.20    9.70
 -14   3 -11   17.50   13.40
 -11  14  11   20.90    9.70
  14  -3  11   11.80    6.10
  14  -3  11   -0.30    5.70
 -11  14  11   -0.30    9.40
  -3 -11  11    3.70    8.50
 -11  14  11    2.20   11.10
 -11  14  11   11.00   10.20
 -11  14  11   11.70   14.10
  -3 -11  11   -5.90   11.20
 -14   6 -11   18.20    9.70
   6   8 -11   14.30    9.40
   8 -14 -11    9.30   10.50
   6   8 -11    2.80   16.70
  -8  14  11   25.90    8.80
  -8  14  11   15.60   15.50
  -6  -8  11    6.70    8.50
   5 -14 -11   10.60   11.80
   9   5 -11   13.30   13.70
   9   5 -11   -2.20    8.40
   9   5 -11  -17.80   17.80
   9   5 -11   11.20    7.60
 -14   9 -11   20.30   10.00
  -5  14  11   16.30    8.50
  -5  14  11  -19.40   26.30
  -5  14  11   11.30   15.60
  14  -9  11   11.20    5.50
  14  -9  11   11.90    6.40
  14  -9  11    7.50    9.10
  -5  14  11   20.40    7.90
 -14  12 -11   27.00   10.50
  12   2 -11    6.30    8.40
 -14  12 -11    1.10   10.40
   2 -14 -11   -5.00   11.10
  12   2 -11    2.80   11.60
  -2  14  11   -8.70    7.60
  -2  14  11    7.40    8.10
  14 -12  11    8.30    6.60
  -2  14  11   -3.80    8.90
 -12  -2  11    7.80    9.50
  14 -12  11   16.50    7.80
  15  -1 -11    8.00   15.50
 -14  15 -11   14.60   11.30
  -1 -14 -11   25.70   11.60
 -14  15 -11   -3.10   10.20
  14 -15  11    2.30    9.10
   1  14  11   16.50    9.40
  14 -15  11   10.10    6.90
   1  14  11   23.00    8.30
 -15   1  11    4.60   10.90
 -18   4  11   24.20   14.00
   4  14  11    9.70   11.70
  14 -18  11   32.40    9.20
 -15  -4 -11    9.30   11.30
 -19  15  11    4.70   17.00
  15   4  11   20.60   10.70
   4 -19  11   -5.40   15.80
  -1  16 -11   14.80    9.60
  -1  16 -11    3.10   11.70
  16 -15 -11   24.00   12.70
 -15  -1 -11    3.80    9.20
  16 -15 -11   -6.20   13.90
 -15  -1 -11   -2.90   11.80
 -15  -1 -11   13.90   14.50
  -1  16 -11   10.60   10.70
  15   1  11  -14.10    7.80
 -16  15  11    0.40   11.20
  15   1  11    5.10    9.00
   1 -16  11   -1.10   12.50
  15   1  11   14.00    8.20
 -16  15  11   -5.40   15.40
 -16  15  11   30.30   13.90
 -16  15  11   -7.50   10.80
  15   1  11   12.80   13.50
   1 -16  11  -12.10   19.90
 -15   2 -11   17.40    9.60
  13 -15 -11    6.00   11.30
   2  13 -11   12.70   10.50
 -15   2 -11   -2.40   10.40
  13 -15 -11   -1.20   14.40
   2  13 -11    0.80    8.60
 -15   2 -11  -14.40   12.60
   2  13 -11   -7.60    9.30
 -13  15  11   -2.40    9.10
  15  -2  11   15.80    7.80
  15  -2  11   17.40   11.70
  15  -2  11   -4.20    6.50
  -2 -13  11   -3.30    8.40
  15  -2  11   10.00    6.90
 -13  15  11   13.90   11.10
 -13  15  11   16.20   10.70
 -13  15  11   -9.70    9.60
  10 -15 -11   16.00   11.50
   5  10 -11    6.40    9.70
   5  10 -11   -5.80    7.00
 -15   5 -11  -16.10   10.40
  15  -5  11    1.30    6.60
 -10  15  11    0.90   12.10
 -10  15  11    6.30   25.30
 -10  15  11  -11.70    9.30
 -10  15  11    3.30    9.10
  -5 -10  11    5.80    8.90
  15  -5  11   -1.80    4.90
  15  -5  11    2.80    6.90
   8   7 -11   13.70    6.90
 -15   8 -11    6.70    9.70
   8   7 -11   13.10    8.80
   8   7 -11   -7.60   16.20
   7 -15 -11   -5.10   11.10
 -15   8 -11  -13.70   11.20
  -7  15  11   -3.80    8.50
  15  -8  11    6.30    6.60
  -8  -7  11    1.20    8.50
  15  -8  11    5.40   11.10
  -7  15  11   -5.30    8.40
  -7  15  11   12.00   15.90
 -15  11 -11  -17.00    9.40
   4 -15 -11  -11.30    9.70
  11   4 -11   -4.60   18.20
  11   4 -11   -7.30    8.20
  11   4 -11   -8.20   16.10
  15 -11  11    0.30    7.00
  -4  15  11    1.50    8.40
  -4  15  11    0.50   22.90
  -4  15  11  -13.50    7.80
 -15  14 -11   17.00    9.60
  14   1 -11   18.80   16.20
  14   1 -11   -7.20   10.80
 -15  14 -11   10.70   11.50
   1 -15 -11    2.50   13.60
 -14  -1  11   12.10    9.20
  -1  15  11    6.80    8.70
  15 -14  11   20.70    7.00
  15 -14  11    2.90    8.20
  -1  15  11   -4.70    9.40
  17  -2 -11  -23.90   15.70
 -15  17 -11    4.10   11.20
 -15  17 -11    2.80   12.00
  -2 -15 -11    5.50   14.00
   2  15  11    7.70    9.20
   2  15  11   -1.10    8.90
  -2  18 -11  -18.00   13.20
 -16  -2 -11  -11.70    9.90
   2 -18  11   -3.80   16.40
  16   2  11  -19.50   12.10
 -18  16  11   -4.60   11.90
 -18  16  11   -8.70   17.00
 -18  16  11   -3.50   15.20
 -18  16  11   -5.60   10.90
  16   2  11   -3.40    8.90
 -16   1 -11   13.80   12.40
  15 -16 -11   30.70   10.20
  15 -16 -11   28.80   17.30
 -16   1 -11   -1.10   13.00
   1  15 -11   18.40   11.10
   1  15 -11   22.90   11.50
 -16   1 -11   34.00   14.90
  16  -1  11    8.90    8.00
 -15  16  11   -2.50   11.00
 -15  16  11   16.80   10.40
  16  -1  11   13.40    9.20
  -1 -15  11   18.90    8.20
  16  -1  11   17.60    8.10
 -15  16  11    1.30   10.40
  12 -16 -11    2.70   12.20
 -16   4 -11   12.50   11.00
   4  12 -11   24.70    8.20
 -16   4 -11   12.00   10.00
   4  12 -11   17.80    9.70
 -16   4 -11   34.10   13.90
  12 -16 -11   10.50   14.00
   4  12 -11    0.60    9.80
  16  -4  11   25.90   24.50
  -4 -12  11   24.80    9.80
  -4 -12  11   19.80   11.00
 -12  16  11   34.80   11.60
 -12  16  11   27.40   14.50
  16  -4  11   11.00    7.50
 -16   7 -11  -12.90    9.60
   7   9 -11   -7.30   10.50
   9 -16 -11    6.60   10.80
   7   9 -11    9.20    7.50
 -16   7 -11    0.70   10.70
   7   9 -11    7.20    9.50
  16  -7  11   -0.90   14.10
  -9  16  11  -17.60   11.90
  -9  16  11   28.30   10.80
  16  -7  11   12.00    7.40
  16  -7  11    0.70    5.20
  -9  16  11  -16.90   17.50
  -7  -9  11    8.50    9.10
  10   6 -11   -5.40   20.40
  10   6 -11   19.90    8.50
  10   6 -11   13.80   14.50
  10   6 -11   -6.60    8.70
 -16  10 -11   12.20   13.40
  -6  16  11    7.60    9.90
  16 -10  11   19.00    8.30
  16 -10  11   -7.40    5.60
  -6  16  11   -0.40    8.60
  -6  16  11    1.70   15.60
   3 -16 -11  -13.50   11.10
  13   3 -11  -31.70   19.20
  -3  16  11   -8.80    9.30
  -3  16  11   -8.60    9.50
 -13  -3  11    3.80   11.30
  -3  16  11    2.70    8.90
  16 -13  11    1.70    7.10
  16 -13  11  -12.50   10.20
 -16  16 -11   11.20   12.30
 -16  16 -11   35.80   10.70
   0  16  11    8.10    9.30
 -16   0  11   25.70   11.40
   0  16  11   13.20   11.30
  16 -16  11   18.10    8.10
   0  16  11    5.40   12.30
  16 -16  11   20.50   12.60
   0  17 -11  -10.70   13.60
  17 -17 -11  -26.70   17.60
 -17   0 -11    6.30   10.90
 -17   0 -11  -17.20   13.90
  17 -17 -11    6.10   12.40
 -17  17  11    0.50   10.20
 -17  17  11   13.70   16.80
   0 -17  11   21.60   14.60
  17   0  11   -0.40    9.80
 -17  17  11    6.80   10.90
 -17  17  11    3.20   13.90
  17   0  11    0.10    9.20
  17   0  11    9.90   10.80
  14 -17 -11   21.90   10.60
 -17   3 -11   -3.80    9.90
 -17   3 -11  -15.90   13.20
   3  14 -11  -16.60   10.80
 -17   3 -11  -20.60   12.90
   3  14 -11   -9.60   10.50
  -3 -14  11   26.30   14.70
 -14  17  11  -13.50    9.90
 -14  17  11   15.70   11.90
 -14  17  11   25.90   12.50
  -3 -14  11    1.00    9.30
 -14  17  11   15.30    9.80
 -14  17  11   -7.50   14.40
  17  -3  11   -2.60    8.60
   6  11 -11   28.10   10.80
  11 -17 -11    9.00   12.40
   6  11 -11   21.50    8.80
 -17   6 -11   15.80   10.20
 -17   6 -11   37.30   12.80
 -11  17  11   38.80   11.30
 -11  17  11   31.20   12.00
 -11  17  11   26.90   12.10
  17  -6  11   31.10    9.40
 -11  17  11   12.30   18.20
  -6 -11  11   19.10   11.70
  17  -6  11   25.40    9.00
 -11  17  11   16.80   18.10
   9   8 -11  -12.30    9.10
   9   8 -11    1.00    7.50
   9   8 -11   10.70   18.50
   8 -17 -11   15.60   13.00
 -17   9 -11   -2.30   11.40
 -17   9 -11   -2.00   11.10
  -8  17  11    1.70   13.40
  17  -9  11    6.30    6.90
  17  -9  11   -3.80    9.50
  -8  17  11  -15.80    8.90
  -8  17  11   10.70   10.80
  -9  -8  11  -13.70    9.00
  -8  17  11   -0.90   15.30
  12   5 -11    8.70   10.20
 -17  12 -11   21.40   13.70
  12   5 -11   -8.30   21.10
   5 -17 -11  -13.40   12.30
  12   5 -11   -6.40    9.30
  -5  17  11   -6.30   10.70
  17 -12  11   -5.30   11.00
 -12  -5  11   -2.00    9.10
  17 -12  11    7.20    6.40
  -5  17  11    4.90   17.10
 -17  15 -11   -0.70   14.60
 -17  15 -11   11.10   11.30
  15   2 -11    6.00   20.20
   2 -17 -11   13.20   14.50
  17 -15  11   -2.30    8.30
  -2  17  11   15.60    9.40
  17 -15  11   29.70   12.50
  -2  17  11  -10.30    9.90
 -18   2 -11  -23.30   15.20
   2  16 -11   -1.40   13.30
  16 -18 -11  -15.90   13.00
  16 -18 -11    6.70   18.20
   2  16 -11   22.10   12.00
 -18   2 -11   -0.30   11.70
 -16  18  11  -16.80   14.70
  18  -2  11    9.60    9.00
 -16  18  11   18.60   12.00
  -2 -16  11    7.40   18.10
  -2 -16  11    0.70    8.40
 -16  18  11    7.50   13.70
   5  13 -11   20.40   12.00
   5  13 -11   -0.10   11.20
 -18   5 -11  -10.90    9.80
 -18   5 -11   -1.90   13.10
 -18   5 -11    1.40   12.50
   5  13 -11    7.40    9.70
  18  -5  11   15.90    8.60
 -13  18  11   16.80   12.60
 -13  18  11   14.30   11.10
 -13  18  11   12.50   13.10
  -5 -13  11   26.90   12.20
 -13  18  11   38.80   17.40
  18  -5  11    7.40    8.20
   8  10 -11   -4.80    8.20
 -18   8 -11   16.80   12.80
   8  10 -11   -9.30   10.60
   8  10 -11    0.50   10.80
  10 -18 -11  -19.90   12.10
 -18   8 -11   25.10   13.00
 -10  18  11   23.30   11.60
  18  -8  11   -1.70   10.70
  18  -8  11   -2.30    6.40
 -10  18  11   18.60   10.80
 -10  18  11  -18.60   13.10
  -8 -10  11   13.80   10.50
  11   7 -11    4.70   10.20
   7 -18 -11    7.90   12.70
  11   7 -11  -29.70   22.60
 -18  11 -11   22.90   13.40
 -18  11 -11    3.50   13.20
  -7  18  11   12.30   10.60
  -7  18  11   11.60   14.90
  18 -11  11    3.10    6.70
  -7  18  11  -12.20   12.10
  18 -11  11  -10.30   12.00
  14   4 -11    0.40   11.60
 -18  14 -11    7.50   13.50
  14   4 -11   23.20   23.10
  14   4 -11   19.60    9.40
  18 -14  11   44.20   12.30
 -14  -4  11   -5.20   15.20
  -4  18  11   35.10   11.80
  -4  18  11   -2.90   15.80
  18 -14  11   21.10    7.90
 -19   4 -11   19.50   12.10
 -15  19  11  -13.20   16.50
  -4 -15  11  -31.70   15.70
   7  12 -11   36.30   12.60
   7  12 -11   18.40   11.50
 -19   7 -11   12.40   15.50
   7  12 -11    4.60   14.30
 -19   7 -11    1.50   12.60
  -7 -12  11   17.80   14.40
  19  -7  11   12.10    6.50
  19  -7  11   26.70    9.90
 -12  19  11  -17.00   14.60
 -12  19  11   -6.00   18.50
 -12  19  11   -7.90   13.50
 -12  19  11   -6.10   12.30
  10   9 -11   22.70   10.80
  10   9 -11   -5.30   11.60
 -19  10 -11    7.50   15.10
 -19  10 -11  -10.10   12.20
  -9  19  11   20.50   13.10
  -9  19  11    1.20   15.60
  19 -10  11    3.00    8.80
  -9  19  11  -19.20   12.50
  13   6 -11   19.50   10.00
  13   6 -11    3.50   11.20
 -19  13 -11   -1.10   15.50
 -19  13 -11   10.30   15.30
   6 -19 -11   11.30   12.30
  13   6 -11   16.90   25.20
  -6  19  11   23.40   13.00
 -13  -6  11    0.80   10.90
  -6  19  11   -6.60   11.80
  -6  19  11  -26.50   17.10
  19 -13  11   24.90   12.40
 -20   9 -11  -18.40   12.10
  20  -9  11   -2.60   11.70
  -9 -11  11   -5.70   13.00
 -20  12 -11  -12.60   13.20
 -12  -8  11    2.40   12.40
   0   0 -12   14.00   17.00
   0   0 -12   43.30   12.00
   0   0 -12   33.70   12.60
   0   0  12   15.90   12.70
   0   0  12   21.40   17.20
   0   0  12   19.30   11.00
  -1   2 -12   74.99   14.00
  -1  -1 -12   47.90   18.50
  -1   2 -12   42.80   11.30
   2  -1 -12   59.69   17.50
   2  -1 -12   58.29   12.10
  -1   2 -12   74.89   13.80
  -1  -1 -12   46.00   13.70
   2  -1 -12   62.09   12.10
  -1  -1 -12   36.70   10.40
  -2   1  12   78.99   12.60
   1  -2  12   67.79   11.40
  -2   1  12   63.19   13.20
   1   1  12   37.70   16.60
   1  -2  12   58.19   15.80
  -2   1  12   40.50   14.00
  -2   1 -12    3.20   13.90
   1   1 -12   -0.30   10.80
   1   1 -12   11.20   15.70
   1  -2 -12  -21.90   17.80
   1  -2 -12   14.30    8.20
   1  -2 -12   -3.40   13.20
   1   1 -12   14.80   13.10
  -1   2  12   -7.70   10.00
  -1  -1  12   -3.30   14.30
  -1   2  12   -3.20   16.80
  -1  -1  12    4.50   14.50
   2  -1  12   -6.80   14.90
   2  -1  12   -3.20   10.50
  -1  -1  12    5.60   11.60
  -1   2  12   -7.50   11.70
  -2  -2 -12   41.20   13.20
   4  -2 -12   64.69   11.20
  -2  -2 -12   72.79    9.50
  -2   4 -12   42.20   14.50
  -2   4 -12   63.49    7.40
   4  -2 -12   59.49   11.60
  -2  -2 -12   59.99    9.60
   4  -2 -12   74.39   17.00
   2   2  12   41.20   12.10
   2   2  12   69.49   16.30
   2  -4  12   56.29   16.40
  -4   2  12   57.89   13.40
  -4   2  12   81.09   12.00
   3  -3 -12   20.80   10.30
   3  -3 -12    2.80   19.00
   0   3 -12   -0.60   12.20
  -3   0 -12    7.00   11.70
  -3   0 -12   14.70   14.50
   3  -3 -12   14.40   11.50
  -3   0 -12   15.60   17.10
   0   3 -12   13.40   15.80
   3   0  12   22.00   13.30
   0  -3  12    7.90   10.90
  -3   3  12   19.90    9.90
   0  -3  12   34.70   16.10
  -3   3  12   17.40   11.10
   0  -3  12   -0.40   17.90
   3   0  12   22.10   10.00
  -3   3  12   17.60   15.70
   0  -3 -12   25.50   14.80
   3   0 -12   16.20   14.20
  -3   3 -12    3.80   14.70
   0  -3 -12   -6.90   16.70
   3   0 -12   -6.10   12.40
  -3   3 -12    2.80   15.40
   3   0 -12   -3.20   16.00
   3   0 -12   22.40   10.70
  -3   3 -12   23.00   12.50
   0   3  12   25.50   12.80
  -3   0  12    1.80   13.30
  -3   0  12    0.20   12.30
   0   3  12   11.80    9.50
   3  -3  12    0.30    8.80
  -3   6 -12   24.60    7.20
   6  -3 -12   24.30   15.50
  -3  -3 -12   28.70    9.00
   6  -3 -12    4.00   10.60
   6  -3 -12   29.10   16.90
   3   3  12   24.40    6.10
   3  -6  12   38.80   19.20
  -6   3  12   36.10    8.00
   3  -6  12   22.10    9.70
  -6   3  12    3.90   12.80
  -6   3  12   27.80   13.30
  -1   5 -12    9.30   14.20
  -4  -1 -12   16.40   12.00
  -1   5 -12   13.60    5.90
  -4  -1 -12    9.80    6.90
   5  -4 -12   31.10   14.70
  -4  -1 -12   30.50   28.70
   5  -4 -12   35.60   13.40
   4   1  12   16.00   10.20
  -5   4  12    7.80   11.50
   1  -5  12    8.20   10.90
  -5   4  12   25.40   14.10
   1  -5  12   -2.50   19.20
  -5   4  12   10.90    8.10
   4   1  12   18.00    6.00
  -4   2 -12    3.40   16.20
   2   2 -12   13.70   15.20
   2   2 -12   15.60   11.50
  -4   2 -12    4.30   13.30
   2   2 -12   36.50   16.60
   4  -2  12   20.20   12.50
  -2  -2  12    1.90   13.80
  -2  -2  12   19.40   10.40
  -2   4  12   20.50   11.90
  -2  -2  12   -8.20   15.20
   4  -2  12    3.30   10.60
  -1  -4 -12   25.70    7.30
   5  -1 -12   37.00   13.90
   5  -1 -12   16.40   14.00
   5  -1 -12   52.99   16.60
  -4   5 -12   19.50    4.80
  -4   5 -12   20.40    5.30
   5  -1 -12   20.00    9.30
   1   4  12   21.50    5.50
  -5   1  12   30.90   11.40
   4  -5  12   37.20   10.60
  -5   1  12   44.80   15.20
  -4  -4 -12   -8.90    9.20
  -4   8 -12    0.40    9.60
   8  -4 -12   -0.50   16.60
  -4  -4 -12   -0.90   11.30
   8  -4 -12   -8.40   11.60
  -4  -4 -12   -3.20    7.00
   4  -8  12    0.80    9.80
  -8   4  12   -8.00   11.30
  -8   4  12    1.70   15.50
   4   4  12   -4.70    6.30
  -5  -2 -12    5.80    7.70
  -5  -2 -12  -11.20    7.80
   7  -5 -12    2.10   11.60
  -2   7 -12   -0.60    6.60
   7  -5 -12   -9.20   12.40
  -5  -2 -12    9.80   13.00
   7  -5 -12   -0.60   17.60
  -7   5  12   23.10   13.30
  -7   5  12  -12.60    7.30
   5   2  12    4.00    5.80
  -7   5  12   -5.90   14.30
   2  -7  12   16.40   10.80
   5   2  12   -0.20    5.60
   2  -7  12   10.70    9.00
   1   4 -12    1.90   12.70
  -5   1 -12    0.40    6.90
   1   4 -12   10.30    6.40
  -4   5  12   14.80   11.10
  -1  -4  12   11.90   17.50
  -1  -4  12   10.00   12.20
  -4   5  12   38.30   18.90
  -4   5  12   -9.70    8.80
   5  -1  12   -5.20   11.50
   5  -1  12   -1.10    4.70
  -1  -4  12    1.20   17.90
   4   1 -12   19.70   11.80
  -5   4 -12   -2.10   20.90
  -5   4 -12    3.70   17.50
   1  -5 -12    9.00    7.30
   4   1 -12   21.00   10.00
   5  -4  12    6.00   10.40
  -4  -1  12   -6.80   14.40
   5  -4  12   18.00   12.40
  -1   5  12   17.50    7.10
  -4  -1  12   -7.30   11.90
  -1   5  12   -2.50   10.20
  -4  -1  12   24.20    7.20
   7  -2 -12    0.20   12.30
   7  -2 -12  -13.30   16.00
  -5   7 -12   15.90    7.60
   5  -7  12    6.10   11.00
  -7   2  12   -4.20   15.80
  -7   2  12   -1.00   10.00
  -7   2  12    5.30    9.20
   2   5  12    9.20    6.90
   5  -7  12   -0.20   13.30
   2   5  12   15.50    7.10
  -5  -5 -12   14.60    9.30
  10  -5 -12   -1.90   10.60
  -5  10 -12    6.00    9.70
  10  -5 -12    3.10   15.90
  -5  -5 -12   -3.90   13.70
   5 -10  12    1.30   10.80
 -10   5  12   12.60   10.20
 -10   5  12    4.30   10.20
   5   5  12   -3.10    6.90
   5   5  12   -3.00    6.40
   9  -6 -12   11.80    6.80
  -6  -3 -12   16.70   14.80
  -3   9 -12   18.70    9.50
   9  -6 -12    5.40   11.10
  -6  -3 -12   17.70   11.20
  -6  -3 -12   10.00    8.10
   3  -9  12    9.00    8.90
  -9   6  12   11.00    9.10
  -9   6  12   -1.70   18.10
   3  -9  12   17.20   10.70
   6   3  12    0.80    6.20
  -9   6  12   -7.40   12.90
  -6   0 -12   12.80    7.90
  -6   0 -12   -0.70    7.40
  -6   0 -12  -10.20   14.70
   6  -6 -12   -6.50    7.50
   0   6 -12   21.20   17.00
   6   0  12    9.40    5.60
  -6   6  12  -17.90   17.20
   0  -6  12    6.10   12.40
  -6   6  12   -1.70   12.60
   3   3 -12   -0.80   10.90
   3  -6 -12    3.60    7.50
   3   3 -12    9.90    5.50
   6  -3  12   11.80   10.80
  -3  -3  12   27.10   14.80
   6  -3  12   11.00    4.60
  -3   6  12   17.40   11.20
  -3   6  12   13.90    8.00
  -3  -3  12   14.60   16.80
  -3  -3  12    2.10    5.60
   0  -6 -12    3.90    8.80
   6   0 -12   16.10   16.40
   6   0 -12   -0.50    7.40
  -6   6 -12   -4.30    6.20
  -6   6 -12    7.40    9.20
   6   0 -12  -11.70   11.30
   6   0 -12   -3.20   11.10
  -6   0  12  -12.10    7.30
  -6   0  12   11.50   10.50
   6  -6  12   -0.80   10.60
   0   6  12   -9.90    7.40
   0   6  12    3.60    5.50
  -6   0  12   -4.80   17.80
  -3  -6 -12   -4.90   12.30
  -6   9 -12    0.60    7.30
   9  -3 -12   -6.10   15.30
   9  -3 -12   -0.70   10.50
  -3  -6 -12    7.50    8.10
   6  -9  12   13.10   12.00
   3   6  12   -4.10    6.20
   3   6  12   -2.10    6.00
  -9   3  12    0.60    6.80
   6  -9  12  -11.60   10.10
  -6  -6 -12   10.70    9.80
  -6  -6 -12  -19.50   18.80
  12  -6 -12   24.10   24.50
  -6  12 -12  -10.50    8.20
   6 -12  12  -12.00   11.80
   6   6  12   -7.90    6.60
   6   6  12   -5.90    9.40
   6   6  12  -12.90    6.80
  -4  11 -12    5.00    8.00
  11  -7 -12    8.30    8.70
  -7  -4 -12   27.30    9.70
  -7  -4 -12   23.60   15.90
  11  -7 -12   16.20   11.90
  -7  -4 -12   12.10    7.90
 -11   7  12   14.40   10.80
   7   4  12   19.40    6.80
 -11   7  12  -12.00   13.00
   4 -11  12    5.60   10.10
   4 -11  12   21.70   10.20
   7   4  12    5.80    5.60
 -11   7  12   13.40   13.50
   8  -7 -12   41.60   11.80
  -1   8 -12   12.30    6.10
  -1   8 -12   12.20   10.30
  -7  -1 -12   20.10   15.40
   1  -8  12   23.00   12.00
   1  -8  12   21.40   10.40
  -8   7  12    7.80   18.70
  -8   7  12   19.80    7.90
  -8   7  12    3.40   16.90
   5  -7 -12  -13.70    8.10
   2   5 -12   15.90    7.20
  -7   2 -12   15.90    8.50
   2   5 -12   13.30   12.90
  -5   7  12   -8.30   10.80
   7  -2  12   -9.90    6.00
  -2  -5  12   -4.30   19.70
   7  -2  12  -12.30   11.50
  -2  -5  12   -8.10    8.10
  -7   5 -12   31.30    8.30
   5   2 -12   11.90    9.80
   5   2 -12   26.60    5.50
  -7   5 -12   -5.20   12.10
   2  -7 -12    5.10    8.60
  -5  -2  12   13.90    9.90
  -2   7  12   18.20    7.80
   7  -5  12   18.40    5.20
  -5  -2  12   18.00   12.50
   7  -5  12   19.90   11.10
  -2   7  12   30.40   12.70
   8  -1 -12   -2.40   12.00
  -1  -7 -12   -8.70    8.30
  -7   8 -12  -13.20    7.30
  -7   8 -12   -1.50    8.00
   8  -1 -12   -0.40   13.40
   8  -1 -12    8.40   16.20
   7  -8  12   -6.00   10.00
   1   7  12   -6.20    6.80
   7  -8  12    4.80   11.50
  -8   1  12    9.50    7.50
   1   7  12   -1.20    5.90
  11  -4 -12    3.30   10.80
  -7  11 -12   12.90   10.90
  -4  -7 -12    8.50    9.10
  -7  11 -12    2.10    7.60
  11  -4 -12   -5.00   16.90
  -4  -7 -12   10.40   17.50
 -11   4  12   -7.60    9.10
   4   7  12   11.00    7.10
   7 -11  12    2.40   13.20
   4   7  12    9.60    7.80
   4   7  12   -4.60    7.30
  14  -7 -12   26.70   12.50
  -7  14 -12    7.10   10.40
  -7  -7 -12    9.10   22.30
  -7  14 -12   14.70    9.60
  -7  -7 -12   -1.10   12.10
   7   7  12   21.10    7.50
   7   7  12   18.30    7.90
   7 -14  12   24.40   13.50
 -14   7  12   20.20   10.50
  -5  13 -12    1.00    9.20
  -5  13 -12   -5.70   10.70
  -8  -5 -12   -4.20   16.00
  -8  -5 -12  -16.20   12.40
   8   5  12   10.30    8.90
 -13   8  12   -3.50   11.40
   8   5  12   -4.30    6.70
   8   5  12   -0.90    7.20
 -13   8  12    7.10   12.20
 -13   8  12  -13.90   14.00
   5 -13  12   -5.20   11.00
 -13   8  12   14.80   14.60
  -2  10 -12    9.10   10.00
  10  -8 -12    5.20    9.10
  -8  -2 -12   11.50    8.60
  -8  -2 -12    4.70   10.50
  -8  -2 -12   36.30   17.10
 -10   8  12   -8.30   14.20
 -10   8  12   26.50    8.80
 -10   8  12    0.20   21.20
   8   2  12   12.60    5.90
   2 -10  12   12.90   11.40
   8   2  12    5.50    6.10
 -10   8  12    8.30   19.90
  -8   1 -12   12.10    8.40
  -8   1 -12   -8.80   17.30
   1   7 -12    7.00   17.20
  -7   8  12   -0.60    9.20
  -7   8  12   -2.10   15.30
   8  -1  12    9.60    6.00
   8  -1  12  -10.40    5.10
  -1  -7  12   -4.20    5.90
   4   4 -12   16.50   11.30
   4   4 -12    8.40    6.50
   4  -8 -12   13.20    8.60
  -4  -4  12    3.70    7.50
   8  -4  12   -0.90   10.30
  -4  -4  12   12.90    8.00
  -4  -4  12   25.50   15.80
  -4   8  12   29.40   12.00
  -4   8  12   15.60    7.20
   8  -4  12   15.70    6.20
   7   1 -12   20.00   12.90
   1  -8 -12   25.10    9.20
  -8   7 -12   11.50    7.70
   7   1 -12   31.40   16.80
   8  -7  12   16.40   10.20
  -1   8  12   17.50    5.70
  -7  -1  12   27.80    9.50
  10  -2 -12  -23.60   11.50
  -2  -8 -12   -0.40   14.10
  -2  -8 -12    3.90    9.80
  10  -2 -12    1.00   15.50
  -8  10 -12  -11.60    7.20
   2   8  12  -12.60    6.80
   2   8  12  -12.80    6.20
   2   8  12   -0.30    7.90
   2   8  12   -5.90   17.30
 -10   2  12   13.70    9.80
   8 -10  12    7.70   13.80
   8 -10  12   -1.30    8.70
  -8  13 -12    4.80    9.70
  -5  -8 -12   -9.30   19.70
  -5  -8 -12   -8.60    9.80
  13  -5 -12    7.10   20.10
  13  -5 -12   -4.90   12.20
   5   8  12    6.40    7.20
   5   8  12    8.60    8.60
   5   8  12    8.60    8.00
   5   8  12  -34.40   35.40
   8 -13  12    0.00   13.90
  -8  16 -12   11.10   10.30
  -8  -8 -12   16.80   14.30
  -8  -8 -12   -0.70   13.40
  16  -8 -12    9.40   13.90
 -16   8  12   17.50   12.10
   8 -16  12   18.40   12.60
   8   8  12    6.60    7.50
   8   8  12   -2.90   10.10
   8   8  12   -3.10    8.30
  -9  -6 -12   27.70   13.00
  15  -9 -12   28.20   12.00
  15  -9 -12   55.19   11.60
  -9  -6 -12   48.70   10.90
  -6  15 -12   78.79   13.80
  -6  15 -12   74.49   12.00
   9   6  12   57.49    8.40
   9   6  12   33.10   10.30
   9   6  12   50.19    9.20
   6 -15  12   50.09   12.60
  -9  -3 -12    3.60   12.00
  -9  -3 -12   -0.90    9.60
  -3  12 -12   12.70   10.60
   3 -12  12   15.80   11.10
   9   3  12   -2.70    6.70
 -12   9  12   26.40   10.50
 -12   9  12   -1.50   12.50
 -12   9  12   13.20   15.60
   9   3  12  -13.10    8.80
   3 -12  12    4.80   10.90
 -12   9  12   34.50   20.70
   9  -9 -12   21.70    9.30
  -9   0 -12    7.60   16.70
   0   9 -12   22.10    7.40
   9  -9 -12   14.00   14.50
  -9   9  12   16.80   10.50
   9   0  12    9.20    6.40
   0  -9  12    1.30   10.20
  -9   9  12   18.80   19.30
  -9   3 -12  -13.90    8.00
   6  -9 -12  -10.80    7.80
   3   6 -12   -1.90    6.50
  -9   3 -12   -2.30   13.50
   3   6 -12    7.90   16.00
   9  -3  12   -8.90    6.00
  -3  -6  12    4.60    8.60
  -6   9  12   12.60    8.10
   9  -3  12    3.20   12.60
  -3  -6  12    0.50    7.90
  -6   9  12    5.80   14.30
  -9   6 -12   23.80    7.60
   3  -9 -12   19.40    7.60
  -9   6 -12   14.70    6.20
   6   3 -12    1.00    9.60
   6   3 -12   25.40    7.40
   9  -6  12   15.70    6.90
   9  -6  12   15.00   10.20
  -6  -3  12   21.70    7.90
  -3   9  12   11.10    6.50
   9   0 -12    9.20    5.80
   0  -9 -12   20.90    9.30
   9   0 -12   16.70   15.80
  -9   9 -12   12.10    8.40
   0   9  12   11.50    7.00
   9  -9  12   11.00    9.60
  -9   0  12   11.70    8.00
   9  -9  12   15.90    5.80
  -9  12 -12   15.10    8.40
  12  -3 -12   -3.10   16.20
  -3  -9 -12    2.70   18.40
  -3  -9 -12   21.70   10.50
   3   9  12    6.00   23.60
   3   9  12   -1.90    8.30
   9 -12  12    7.40   14.80
 -12   3  12   13.10    9.60
   9 -12  12   -0.30    9.00
   3   9  12    4.60    7.80
   3   9  12   12.40    8.50
  15  -6 -12   -5.70   22.40
  -9  15 -12  -13.70   12.10
  -9  15 -12  -12.20   10.00
  -6  -9 -12   29.30   13.90
  15  -6 -12    0.00   11.30
 -15   6  12   -5.80   10.60
   9 -15  12    2.40   13.20
   6   9  12    9.00    7.00
   6   9  12   -7.90    7.80
  -9  -9 -12   15.90   16.00
  18  -9 -12  -14.70   14.30
  -9  18 -12  -19.60   13.10
  -9  18 -12   -4.80   13.30
  18  -9 -12   27.60   13.60
  -9  -9 -12   22.20   13.30
   9   9  12   -2.90    7.90
   9   9  12    2.30    9.50
   9   9  12   -9.70   10.40
   9   9  12   19.90   11.50
 -10  -7 -12   19.30   11.60
  17 -10 -12   26.20   14.30
 -10  -7 -12   45.90   14.90
  17 -10 -12  -10.20   13.10
  -7  17 -12   19.00   13.10
  10   7  12    6.60    7.70
  10   7  12   36.20   12.20
 -17  10  12   18.80   12.40
  10   7  12   10.60    8.70
  10   7  12   -5.60   10.00
  14 -10 -12   49.70   10.30
 -10  -4 -12   41.50   10.20
  -4  14 -12   26.80   12.50
  14 -10 -12   31.70   12.80
  -4  14 -12   59.39    9.90
 -10  -4 -12   42.70   13.70
  10   4  12   39.10    9.70
  10   4  12   46.00    7.50
  10   4  12   45.30    8.30
 -14  10  12   15.40   18.70
 -14  10  12   37.10   13.30
 -14  10  12   45.90   14.00
   4 -14  12   36.50   11.10
  -1  11 -12   15.90    9.80
 -10  -1 -12   -3.20   12.70
  -1  11 -12   -4.70    8.30
  11 -10 -12   10.30    8.70
  11 -10 -12   -4.40   12.50
 -10  -1 -12   15.60    9.60
 -10  -1 -12    5.00    9.20
   1 -11  12  -14.20    9.80
  10   1  12    2.30    6.00
 -11  10  12   10.60   20.90
 -11  10  12    2.50    8.40
 -11  10  12   -5.10   18.90
  10   1  12   -9.10    6.20
   1 -11  12  -16.10   10.90
 -11  10  12   -3.20   11.00
 -10   2 -12   -9.60    7.90
   8 -10 -12   -8.30   13.50
   2   8 -12   11.90    6.90
   8 -10 -12   -0.40    8.30
  -2  -8  12   -7.70    8.90
  -8  10  12    2.90    7.70
  -8  10  12    0.10    7.60
  -8  10  12   -9.00   17.70
  -2  -8  12   13.20    8.40
  10  -2  12   -6.30    5.70
   5 -10 -12    8.70    8.60
   5   5 -12    3.50   13.80
 -10   5 -12   21.70    8.00
  -5  10  12   28.30   13.60
  -5  -5  12    7.60    7.60
  -5  10  12   11.90    7.00
  -5  10  12  -16.10   13.80
  -5  -5  12   -5.50    8.90
  10  -5  12   31.70   11.10
   8   2 -12  -19.70   14.00
   8   2 -12   18.10    7.50
   2 -10 -12    3.00    9.00
 -10   8 -12   -1.80    9.30
   8   2 -12   25.00   18.30
  -2  10  12    8.20    8.80
  10  -8  12    6.20    8.90
  -1 -10 -12   -7.30    8.80
  11  -1 -12    2.60   12.70
 -10  11 -12    1.80    9.10
 -10  11 -12   11.00    9.20
  -1 -10 -12  -12.70   15.20
  11  -1 -12  -16.60   14.30
   1  10  12  -14.40    7.00
 -11   1  12    2.40    7.80
  10 -11  12    2.20    8.90
  10 -11  12    0.40    5.90
   1  10  12  -12.80    7.60
   1  10  12   14.40   17.70
  10 -11  12   -3.40    7.70
  -4 -10 -12   21.60   22.60
 -10  14 -12   18.00   11.50
  14  -4 -12   31.40   17.60
  14  -4 -12   -5.10   12.40
  -4 -10 -12   32.70   12.20
  10 -14  12    5.80   16.50
   4  10  12   -5.40    8.00
   4  10  12    9.20    7.80
  17  -7 -12  -19.90   24.80
  -7 -10 -12  -20.90   15.10
  -7 -10 -12    6.30   13.20
 -10  17 -12   15.40   12.40
 -10  17 -12  -11.50   12.40
  17  -7 -12   -1.90   12.90
   7  10  12    0.70    9.60
 -17   7  12   20.10   12.20
   7  10  12    5.30    8.30
  10 -17  12  -12.50    7.50
   7  10  12    8.60   10.00
   7  10  12    1.40    9.30
  19 -11 -12   16.70   14.70
 -11  -8 -12   13.70   15.60
 -11  -8 -12  -13.30   15.40
  11   8  12   15.90   11.40
  11   8  12   26.80   13.10
 -19  11  12   31.50   17.10
  11   8  12   13.80   10.30
 -11  -5 -12    6.20    9.40
  16 -11 -12    6.60   12.90
  16 -11 -12    3.00   11.60
 -11  -5 -12    8.10   13.90
  -5  16 -12    1.10    9.90
  -5  16 -12   31.90   13.20
  11   5  12   -7.80    7.90
  11   5  12   17.30   10.20
 -16  11  12   31.80   14.70
  11   5  12   -4.50   11.40
 -16  11  12  -10.60   22.80
   5 -16  12   21.20   12.80
 -16  11  12    5.70   13.60
  11   5  12    6.10    7.50
 -16  11  12  -17.50   23.30
  13 -11 -12   28.20   14.50
 -11  -2 -12   -5.90    8.60
  -2  13 -12    6.10    8.60
  -2  13 -12    0.10   10.50
 -11  -2 -12  -11.20   12.20
  13 -11 -12   11.80   10.00
 -11  -2 -12    9.90   10.00
  11   2  12   -1.30   10.60
 -13  11  12  -11.20   21.10
 -13  11  12   13.60   12.70
  11   2  12    6.30    6.50
 -13  11  12   24.00   10.30
   2 -13  12  -14.30   10.50
 -13  11  12   -4.40   12.70
   2 -13  12    7.50   11.90
 -13  11  12    9.10   13.20
 -11   1 -12   -7.10   12.70
 -11   1 -12    7.40    8.80
   1  10 -12   -9.10   10.40
  10 -11 -12   14.70   10.20
   1  10 -12   -1.70    8.40
  10 -11 -12    8.70   13.50
 -11   1 -12   -4.10    8.70
 -10  11  12  -11.20    9.70
  11  -1  12    3.30    6.90
 -10  11  12    2.00   22.90
  -1 -10  12   -5.40    6.90
 -10  11  12   -1.40    9.20
  -1 -10  12    7.50   12.10
  11  -1  12  -12.60    6.10
 -10  11  12   -1.40    8.30
 -11   4 -12    0.60   11.00
   4   7 -12    7.70   18.40
  -7  11  12    9.50   17.20
  -7  11  12  -21.30   20.40
  11  -4  12    8.50   12.10
  11  -4  12   11.60    5.90
  -7  11  12   -2.20    8.20
  -7  11  12   11.20    7.10
  -4  -7  12   18.80    8.90
  -4  -7  12   17.00    7.30
   7   4 -12   18.70   10.70
 -11   7 -12    4.30    8.80
  -4  11  12   17.70    6.40
  11  -7  12   12.80    6.70
  11  -7  12   21.60    9.70
  -4  11  12   21.00    7.30
  -4  11  12    1.50    8.50
  -4  11  12   21.80   14.90
  10   1 -12  -12.20   15.50
  10   1 -12   20.90   13.70
  10   1 -12  -11.70    7.40
   1 -11 -12   -5.50    8.70
 -11  10 -12   10.40    9.40
 -11  10 -12   -5.80   10.70
  11 -10  12  -10.20    6.90
  -1  11  12  -10.60    7.80
  11 -10  12    8.70    7.30
  -1  11  12    2.10    8.40
  -1  11  12   -9.00    6.80
 -10  -1  12    1.20    8.20
  -1  11  12    9.60   13.90
  11 -10  12   12.80    8.20
  13  -2 -12   12.00   14.80
  13  -2 -12   -3.00   12.70
 -11  13 -12   -6.70    9.40
  -2 -11 -12  -11.20    9.70
   2  11  12    0.70   37.70
   2  11  12   -2.10    8.50
   2  11  12   -2.30    8.30
  11 -13  12   11.10    8.20
 -13   2  12    0.60   10.50
  11 -13  12   -6.10    8.50
  -5 -11 -12  -24.10   13.60
 -11  16 -12   22.00   14.30
  16  -5 -12    9.70   21.20
   5  11  12    2.40    9.90
  11 -16  12   -9.50   12.70
  11 -16  12   16.70    7.40
   5  11  12  -12.30    7.60
  -8 -11 -12   29.00   17.00
 -11  19 -12   -0.60   15.10
  -8 -11 -12    3.40   12.30
 -11  19 -12   14.30   15.60
 -19   8  12    3.40   13.40
   8  11  12   18.60    9.90
   8  11  12   -8.10    8.50
   8  11  12  -17.60   11.80
 -12  -6 -12   -6.50   11.30
 -12  -6 -12   -2.40   13.00
  18 -12 -12   15.40   15.20
  -6  18 -12    5.10   14.50
  -6  18 -12  -22.00   13.00
  18 -12 -12  -24.90   14.20
  12   6  12   -8.60    9.20
 -18  12  12    8.10   15.50
 -18  12  12   -2.50   17.80
  12   6  12   -3.80   10.30
  12   6  12   -8.80    8.60
  15 -12 -12   -9.20   12.20
  -3  15 -12   -7.80   11.50
  15 -12 -12   12.70   14.40
 -12  -3 -12   -6.60   13.40
 -12  -3 -12  -12.20    8.60
 -15  12  12    2.40   12.80
  12   3  12  -12.10    6.80
   3 -15  12  -18.50   12.00
 -15  12  12   -1.00   14.60
   3 -15  12   15.70   11.60
 -15  12  12    6.20   13.10
 -15  12  12   -3.40   13.00
  12   3  12    8.60   11.00
  12   3  12   -8.80    7.20
  12   3  12   16.40    8.80
 -15  12  12   -7.40   25.30
  12 -12 -12   -8.00   10.00
 -12   0 -12  -18.40   13.10
   0  12 -12    5.60   10.30
 -12   0 -12   -4.20    8.60
   0 -12  12    3.90    6.60
 -12  12  12    7.90   14.40
 -12  12  12   -7.60    8.80
   0 -12  12   11.00   13.30
  12   0  12   10.60    6.30
 -12  12  12   -0.40   11.30
 -12  12  12    0.70   11.10
 -12   3 -12   -3.50    8.60
 -12   3 -12    1.80    8.60
   3   9 -12   -6.60    8.20
   3   9 -12   -2.60    7.70
   9 -12 -12   16.20    9.50
  -9  12  12    2.50   10.40
  -3  -9  12  -10.00    8.70
  -9  12  12   17.20   19.50
  12  -3  12   -3.90    6.50
  -3  -9  12  -12.30    8.30
 -12   6 -12  -15.10    8.70
 -12   6 -12   13.40   11.20
   6   6 -12   -4.80   15.10
   6 -12 -12   -2.60    9.20
  -6  12  12   12.90    8.20
  -6  -6  12  -12.20    8.30
  -6  12  12    4.20   18.90
  12  -6  12   -5.00   10.20
  -6  12  12    9.40    7.30
  -6  12  12  -16.80    8.50
  -6  12  12    3.80   18.80
   3 -12 -12   11.00    9.00
 -12   9 -12   -1.40   10.60
 -12   9 -12  -10.70   10.10
   9   3 -12   22.50   19.20
   9   3 -12  -17.70   15.20
  -9  -3  12    5.50   10.30
  12  -9  12    7.70    8.40
  -3  12  12   16.40    8.30
  12  -9  12    8.70    6.30
  -3  12  12    4.70    8.50
  -3  12  12   15.90   15.60
  12   0 -12    3.10   13.40
  12   0 -12  -25.30   13.40
 -12  12 -12  -16.10    8.90
  12   0 -12   -1.50    9.00
 -12  12 -12   -9.20    9.20
  12 -12  12   -8.80    7.80
   0  12  12   11.60    8.60
  12 -12  12   11.70    6.90
   0  12  12   -6.30    8.80
   0  12  12   -7.70    8.30
   0  12  12  -21.80   21.00
 -12   0  12   -2.20    9.70
  15  -3 -12    7.70   16.00
  15  -3 -12  -10.10   13.20
  -3 -12 -12  -12.20   26.20
  12 -15  12    9.80    6.70
   3  12  12    9.50    8.90
  12 -15  12   20.70   21.10
   3  12  12    3.50    7.50
 -15   3  12   27.90   12.20
  18  -6 -12   53.19   20.40
  -6 -12 -12   35.20   16.60
 -12  18 -12   28.70   12.50
   6  12  12    9.50   11.20
   6  12  12   11.90   12.20
   6  12  12   22.00    9.30
  -4  17 -12    0.20   13.10
  17 -13 -12   21.10   11.60
 -13  -4 -12    0.40   13.50
  17 -13 -12   -4.90   14.70
  -4  17 -12   -3.30   10.90
 -13  -4 -12  -16.00   10.00
 -17  13  12  -12.40   14.60
 -17  13  12   -8.10   14.40
  13   4  12  -13.30    7.60
 -17  13  12  -14.20   14.60
  13   4  12   -9.10   10.60
 -17  13  12    1.80   32.40
  13   4  12   15.20   12.50
 -17  13  12  -24.60   14.90
  13   4  12   10.00    8.40
  -1  14 -12  -12.60   11.40
  14 -13 -12   -8.80   10.40
  14 -13 -12    3.40   14.50
  -1  14 -12    0.70    9.60
 -13  -1 -12   -1.30   12.60
 -13  -1 -12    0.20   10.80
 -14  13  12   -8.40   13.90
  13   1  12   -6.50    6.70
 -14  13  12   -4.00   10.20
   1 -14  12  -17.70   10.20
 -14  13  12   -3.30   12.90
  13   1  12  -10.00    7.20
 -14  13  12   21.80   11.70
  13   1  12   -7.60    6.00
 -13   2 -12    4.10   14.10
  11 -13 -12   10.90   14.50
  11 -13 -12    4.30   11.40
   2  11 -12   10.30    8.50
   2  11 -12  -15.60    9.70
   2  11 -12    0.90    8.50
 -13   2 -12  -11.50    9.00
  -2 -11  12   -1.40   10.90
 -11  13  12   47.20   32.30
  -2 -11  12    5.20    7.60
  13  -2  12   -0.90    6.10
 -11  13  12    5.80    9.10
 -11  13  12    0.60    9.00
  13  -2  12   13.70    6.30
 -13   5 -12    9.40    9.30
 -13   5 -12  -13.10    9.90
   5   8 -12   13.20    8.20
   5   8 -12  -28.40   16.00
   5   8 -12   -1.00    7.30
  -5  -8  12    7.00    8.70
  -8  13  12  -19.70   30.10
  -8  13  12   12.60   10.20
  13  -5  12   -7.20   10.90
  -8  13  12    4.40    7.50
  13  -5  12   -4.50    7.70
  -8  13  12  -20.80   20.50
   8   5 -12   29.50    7.10
   8   5 -12   10.70   12.90
  -5  13  12   29.70    8.20
  13  -8  12   13.40    9.90
  -5  13  12   35.00    9.80
  -5  13  12   30.30    8.30
  -5  13  12   34.10   21.90
   2 -13 -12    3.00   10.90
  11   2 -12    2.20   15.00
 -13  11 -12   21.30    9.90
 -13  11 -12    3.20    9.90
  -2  13  12  -14.30   32.40
  13 -11  12   13.80    7.40
  -2  13  12   10.00    7.50
  13 -11  12    8.70    7.00
  -2  13  12   -2.40    8.60
 -11  -2  12   14.00    9.90
  14  -1 -12    2.80   15.80
 -13  14 -12   -1.30    9.60
 -13  14 -12    4.90   10.70
  -1 -13 -12   -0.80   22.60
  14  -1 -12  -12.40    8.50
  -1 -13 -12   28.10   12.10
  14  -1 -12   32.40   14.20
 -14   1  12    6.00   10.00
   1  13  12   10.70    8.70
  13 -14  12    3.10    8.40
  13 -14  12   11.10    6.80
 -13  17 -12   -8.60   13.00
  17  -4 -12   34.00   15.60
  -4 -13 -12   14.60   15.40
   4  13  12    3.20    9.60
   4  13  12    2.10    9.30
  13 -17  12    6.10    8.10
   4  13  12   22.00   10.90
 -17   4  12   19.30   12.70
 -14  -5 -12   -0.80   11.80
 -19  14  12    7.50   17.70
  -2  16 -12  -12.00   12.30
 -14  -2 -12    7.30    9.30
 -14  -2 -12   27.70   13.80
  -2  16 -12   -9.50   11.50
  16 -14 -12   22.60   11.60
   2 -16  12   22.00   13.70
  14   2  12   -7.50    7.80
  14   2  12   -6.70   13.00
 -16  14  12  -17.20   13.50
 -16  14  12   -5.70   11.60
 -16  14  12  -11.20   14.30
 -16  14  12   -2.80   11.00
  14   2  12    0.60    8.70
   2 -16  12   26.30   13.20
 -16  14  12   -4.70   12.50
   1  13 -12  -11.50    8.80
   1  13 -12   -3.40    9.90
 -14   1 -12    2.00   13.50
  13 -14 -12    6.10   13.00
  13 -14 -12   15.50   11.60
 -14   1 -12   -3.00   10.80
 -14   1 -12    4.00    9.30
   1  13 -12    7.60   10.40
  14  -1  12   14.50    8.10
  -1 -13  12  -16.20   10.80
 -13  14  12   10.70   10.00
 -13  14  12    9.00   14.20
 -13  14  12   -7.90    9.50
  14  -1  12    1.90    6.60
  14  -1  12    7.50   12.80
 -13  14  12  -11.80   11.60
   4  10 -12    2.20   10.00
   4  10 -12    6.00    8.00
 -14   4 -12   11.50   10.40
  10 -14 -12  -10.00   10.80
 -14   4 -12   15.30    9.10
   4  10 -12   10.00    8.50
  -4 -10  12  -13.40    9.10
 -10  14  12   11.50   27.90
 -10  14  12   -4.20    9.00
 -10  14  12   -1.80    9.60
  14  -4  12   -3.10    6.30
 -10  14  12    7.00   11.40
  14  -4  12   -3.50    5.60
   7   7 -12   -9.80    8.00
   7 -14 -12   18.40   11.20
   7   7 -12   -4.40   18.30
 -14   7 -12   10.10   12.00
   7   7 -12   -4.50    7.50
  -7  14  12   14.50    8.70
  -7  14  12  -67.29   38.60
  -7  -7  12   -6.80    8.50
  14  -7  12   -1.60    7.10
  -7  14  12  -12.00    9.40
  14  -7  12   -7.40   11.10
  14  -7  12    1.00    6.10
  -7  14  12   24.00   11.30
 -14  10 -12   27.20   11.50
   4 -14 -12   -9.40    9.80
  10   4 -12   -7.00   18.90
  10   4 -12   10.80    8.30
  10   4 -12   31.10   19.30
  14 -10  12    5.60    6.70
  -4  14  12    2.30    8.40
 -10  -4  12    1.70    8.10
  -4  14  12    2.70    7.50
  14 -10  12    9.50    6.10
  14 -10  12   -7.80    8.10
  13   1 -12   25.30   10.40
  13   1 -12   11.40   12.30
  13   1 -12   43.80   17.00
 -14  13 -12   -5.50   10.50
 -14  13 -12   -0.40   10.30
   1 -14 -12   15.80   12.60
  14 -13  12   -0.10    6.80
  14 -13  12   27.40    8.60
  -1  14  12    7.70    9.00
  -1  14  12   12.80    8.40
  -1  14  12   -6.70    8.60
 -13  -1  12   -6.00    9.90
  -2 -14 -12   22.70   13.70
  -2 -14 -12  -17.40   12.90
 -16   2  12  -15.90   11.70
  14 -16  12   -2.00    9.00
  14 -16  12    3.50    8.00
   2  14  12   -1.90    9.30
   2  14  12   -7.40    9.60
   2  14  12   16.30    8.90
 -19   5  12   31.00   16.70
 -15  -3 -12   16.50   12.10
  18 -15 -12  -29.20   14.60
  -3  18 -12    5.50   13.60
  -3  18 -12   -9.50   15.20
  18 -15 -12    3.50   18.10
  15   3  12    1.20    9.10
 -18  15  12    9.80   16.50
  15   3  12   -2.50    9.30
 -18  15  12  -25.40   13.90
   0  15 -12   10.40   10.70
 -15   0 -12   -0.30   13.40
  15 -15 -12   14.70   10.50
 -15   0 -12  -10.60    9.20
 -15   0 -12    6.40   12.30
  15 -15 -12   33.40   15.80
   0  15 -12   -4.60   11.10
   0 -15  12  -12.10    7.70
  15   0  12   16.00    8.60
 -15  15  12   -4.60    9.70
  15   0  12    1.00   12.20
 -15  15  12   -0.10   11.70
 -15  15  12  -16.90   15.00
  15   0  12   -3.00    7.20
  15   0  12   -2.30    7.70
 -15  15  12   -5.30    9.70
  12 -15 -12    0.50   10.80
   3  12 -12   -0.50    9.40
 -15   3 -12  -18.10   12.70
 -15   3 -12   -9.00   10.60
 -15   3 -12   -1.10   11.40
   3  12 -12    2.60    8.80
  15  -3  12   -5.60    7.70
 -12  15  12   -2.70    9.30
 -12  15  12   20.70   11.40
  15  -3  12    9.10    7.30
 -12  15  12   10.80   15.30
 -12  15  12   -4.00    9.40
 -12  15  12   17.60   12.00
  15  -3  12    7.80    6.00
  -3 -12  12    1.60   11.00
  -3 -12  12    3.30    8.60
   6   9 -12   -6.30    8.10
 -15   6 -12  -15.00    9.30
   6   9 -12   10.30   10.30
   6   9 -12   -2.00    9.00
 -15   6 -12    0.40   12.00
   9 -15 -12   11.10   10.60
  -9  15  12   -2.80   29.00
  -9  15  12    9.10    9.40
  15  -6  12    0.80    5.80
  15  -6  12   -9.20    8.00
  -9  15  12    9.70   10.60
  -6  -9  12    4.10    9.80
   6 -15 -12   46.50   12.50
 -15   9 -12   15.50   10.90
   9   6 -12   29.50    8.70
 -15   9 -12   27.80   13.50
   9   6 -12   27.10   14.90
   9   6 -12   23.70    8.40
  -6  15  12   52.59   15.30
  -9  -6  12   21.00    8.30
  -6  15  12   13.50    8.50
  15  -9  12   20.50    7.20
  -6  15  12   20.60    9.20
  15  -9  12   16.10    5.80
  15  -9  12   28.30   10.80
  12   3 -12   17.40    8.50
  12   3 -12  -15.00   12.80
 -15  12 -12   18.40   11.00
   3 -15 -12   27.60   12.70
  12   3 -12   -4.50   18.70
  -3  15  12    4.80    9.40
  -3  15  12   -5.60    8.70
  15 -12  12    4.90    8.20
 -12  -3  12    7.60   11.10
  15 -12  12    1.00    6.20
  15   0 -12   16.20   10.70
 -15  15 -12    6.00   11.70
  15   0 -12   12.30   18.10
 -15  15 -12   27.50   11.20
   0  15  12   26.70    8.40
  15 -15  12   25.50    9.00
  15 -15  12   17.60    7.10
 -15  18 -12  -25.00   14.60
   3  15  12   11.50   10.50
   3  15  12   -3.80   11.80
  15 -18  12   16.10   10.00
  -1  17 -12   29.00   12.10
  -1  17 -12   28.70   13.70
 -16  -1 -12   20.50   10.50
  17 -16 -12   21.00   12.20
  -1  17 -12   -0.80   14.10
  17 -16 -12  -21.30   18.50
 -17  16  12    9.60   10.90
   1 -17  12    4.40   13.80
  16   1  12   -0.40   11.30
 -17  16  12  -13.20   15.80
 -17  16  12   15.80   12.30
 -17  16  12   24.10   11.50
 -17  16  12   26.30   13.70
  16   1  12   10.60    9.30
  14 -16 -12   17.20   12.20
 -16   2 -12  -18.60   13.50
   2  14 -12    6.20   11.20
  14 -16 -12    9.70   16.10
 -16   2 -12    7.40   12.10
   2  14 -12    6.00   11.10
   2  14 -12   -0.70   10.00
  16  -2  12   -9.90   12.60
 -14  16  12   11.10   11.70
 -14  16  12   19.40   12.00
  16  -2  12    4.90    7.90
  16  -2  12    6.30    8.10
  -2 -14  12  -18.90   14.10
  -2 -14  12   12.10    8.70
 -14  16  12    6.00    9.90
 -14  16  12   15.90   14.30
   5  11 -12   14.60   10.00
 -16   5 -12   -1.80   10.30
 -16   5 -12  -11.30   10.40
   5  11 -12   -9.60   10.00
   5  11 -12    7.30    8.60
  11 -16 -12   11.80   11.30
 -11  16  12   -9.60   11.20
 -11  16  12   -9.80   12.50
 -11  16  12   20.10   10.10
  16  -5  12    7.90    7.10
  -5 -11  12   28.00   11.30
  16  -5  12   -5.40    7.00
 -11  16  12   22.20   10.30
  16  -5  12    3.10    6.70
 -11  16  12   24.60   17.50
 -16   8 -12   11.10   10.90
   8   8 -12    8.90   20.00
   8   8 -12   -9.70    8.60
   8   8 -12   16.10    9.10
 -16   8 -12  -14.20   10.50
  16  -8  12   -0.80    5.40
  -8  16  12    6.60    9.50
  -8  16  12   -9.80   10.30
  16  -8  12    6.80   12.50
  11   5 -12   15.60   22.50
  11   5 -12   -4.80   18.30
  11   5 -12    1.60    8.90
 -16  11 -12   12.80   11.40
  11   5 -12    8.10    9.60
 -11  -5  12  -11.30    8.10
  16 -11  12    4.50    7.60
  -5  16  12   -4.10    9.20
  -5  16  12    3.60    8.70
  -5  16  12    8.10   10.20
  16 -11  12    5.60    6.00
  14   2 -12   -0.90   18.20
 -16  14 -12   20.10   10.40
 -16  14 -12    6.00   12.60
   2 -16 -12    1.90   12.60
  -2  16  12    0.80   10.10
  -2  16  12   10.00    9.50
  -2  16  12   -2.60    9.20
 -14  -2  12   -6.00   10.80
  16 -14  12   -2.50    8.50
  17  -1 -12    0.00   19.80
 -16  17 -12   14.90   11.40
 -16  17 -12   -2.00   13.40
   1  16  12    4.90   12.60
   1  16  12  -11.00    9.40
   1  16  12   19.20   10.60
  16 -17 -12  -18.00   17.00
  16 -17 -12   -8.40   13.40
   1  16 -12    6.70   12.80
 -17   1 -12  -16.20   15.40
 -17   1 -12    4.60   10.90
  17  -1  12  -16.10    8.40
 -16  17  12   20.10   12.50
  -1 -16  12  -20.80   15.00
 -16  17  12   32.80   16.00
  17  -1  12   -1.40    9.30
 -16  17  12    2.20   10.90
  17  -1  12   18.90    8.90
 -16  17  12   -2.10    9.80
  -1 -16  12    0.90    6.90
  13 -17 -12   -6.50   10.60
  13 -17 -12  -32.70   15.70
 -17   4 -12  -12.10   13.10
   4  13 -12    1.70   10.30
   4  13 -12    2.00   10.90
   4  13 -12    1.30   10.90
 -17   4 -12  -23.90   12.80
 -13  17  12  -17.10    9.40
 -13  17  12   13.30   16.00
 -13  17  12    2.00   11.50
  -4 -13  12  -15.30   13.40
 -13  17  12    0.00   10.90
  17  -4  12  -10.10    8.00
  -4 -13  12   20.00   10.80
 -13  17  12   13.90   12.40
  17  -4  12    0.30    6.70
  10 -17 -12   14.30   13.30
   7  10 -12   -5.10   10.70
 -17   7 -12    9.40   14.20
 -17   7 -12  -12.70   10.20
   7  10 -12   19.10    9.30
 -10  17  12  -26.60   18.90
  17  -7  12    4.70    8.00
 -10  17  12    8.20   10.60
 -10  17  12   -3.20   10.80
  -7 -10  12   29.50   10.90
 -10  17  12   12.80   14.10
   7 -17 -12   11.40   11.60
 -17  10 -12   10.30   12.20
 -17  10 -12   -6.30   13.10
  17 -10  12    3.10    7.40
  -7  17  12    4.60   10.40
  -7  17  12    2.60   21.60
 -10  -7  12   -1.20   11.00
  17 -10  12   -0.40    6.10
  -7  17  12  -15.30   10.40
  13   4 -12  -28.40   21.60
   4 -17 -12   11.50   11.30
 -17  13 -12    3.40   13.20
  -4  17  12   11.00   11.40
  17 -13  12    9.10    8.00
  -4  17  12   15.40   10.20
 -17  16 -12   10.40   20.80
   1 -17 -12   -5.80   14.70
  16   1 -12   14.90   22.90
 -17  16 -12  -13.10   12.00
  -1  17  12   -8.60   13.70
  17 -16  12   -1.10   12.00
  -1  17  12   -3.40    9.10
  -1  17  12  -15.50   10.30
 -18   3 -12    9.10   12.50
  15 -18 -12   21.00   11.60
   3  15 -12    7.80   12.50
 -18   3 -12   38.20   15.20
  18  -3  12    1.40   11.10
 -15  18  12   16.00   11.70
 -15  18  12  -14.60   15.80
  18  -3  12  -11.80   10.10
  -3 -15  12   -9.70    9.80
  -3 -15  12   29.80   17.00
 -15  18  12    5.50   13.50
   6  12 -12  -20.70   11.60
 -18   6 -12    9.90   12.40
   6  12 -12   -4.80   11.40
 -18   6 -12    5.50   13.20
  12 -18 -12   26.20   14.00
 -18   6 -12  -12.40   13.50
   6  12 -12   -6.90    9.20
 -12  18  12   -7.30   13.70
  18  -6  12    4.90    8.20
 -12  18  12    6.30   17.40
 -12  18  12    2.50   12.20
  18  -6  12  -14.20    7.40
 -12  18  12   21.10   12.60
  -6 -12  12   21.40   14.70
 -12  18  12   20.00   11.50
   9 -18 -12   10.10   13.20
   9   9 -12   -7.40   11.20
   9   9 -12   -8.90    8.50
   9   9 -12   18.00   10.80
 -18   9 -12    7.80   13.50
  -9  18  12   17.90   11.80
  18  -9  12    0.50    6.20
  -9  -9  12   10.30   11.20
  18  -9  12   19.10   10.30
  -9  18  12  -22.80   15.60
   6 -18 -12   18.40   12.70
  12   6 -12   33.80   23.20
  12   6 -12   -9.80   10.70
 -18  12 -12   14.10   15.40
  -6  18  12   -7.20    9.90
  18 -12  12    4.90   10.80
  -6  18  12  -18.10   11.10
  18 -12  12    3.20    6.60
  15   3 -12   35.90   25.40
   3 -18 -12  -17.60   16.80
 -15  -3  12    8.40   13.50
  18 -15  12   12.10    9.60
  -3  18  12   11.90   11.50
  18 -15  12   19.70   13.00
 -19   5 -12    0.00   11.80
 -14  19  12   -0.20   17.00
  -5 -14  12   -8.90   16.30
   8  11 -12  -16.00   11.30
   8  11 -12  -19.20    9.00
  11 -19 -12  -11.50   13.70
 -19   8 -12    4.30   11.10
   8  11 -12  -12.70    9.90
  19  -8  12   -1.30   11.10
  19  -8  12   -7.80    7.00
 -11  19  12   -5.80   12.60
 -11  19  12  -24.70   14.90
 -11  19  12   11.00   19.10
 -11  19  12  -18.00   12.70
   8 -19 -12    4.50   14.30
 -19  11 -12  -18.80   14.60
  11   8 -12    4.10    9.70
  19 -11  12   10.20    6.90
  -8  19  12   -7.50   13.40
  -8  19  12   30.50   19.40
 -11  -8  12   13.60   11.10
 -19  14 -12  -25.40   16.60
 -14  -5  12  -10.10   10.70
   1  -1 -13   11.60   10.90
   1  -1 -13   28.80   23.60
  -1   0 -13    0.30   13.00
   1  -1 -13   13.70   12.20
   0   1 -13    1.70   13.40
  -1   0 -13   -9.60   11.50
   0   1 -13    9.50   12.40
   0  -1  13   26.80   15.70
   1   0  13   17.50   16.70
  -1   1  13    6.70   13.20
   3  -2 -13   27.00   11.10
  -1   3 -13   20.50   15.80
  -1   3 -13    4.40   14.50
   3  -2 -13   22.10   12.30
  -2  -1 -13   12.30   10.40
  -3   2  13   23.10   17.90
   1  -3  13   32.50   17.60
   2   1  13   23.10    5.10
   1  -3  13   39.50   11.10
  -3   2  13   30.20   12.10
   2   0 -13   -0.40    5.40
   0  -2 -13   10.80   14.60
   2   0 -13    6.10   15.30
  -2   2 -13   37.30   14.50
   0  -2 -13    0.60    9.00
  -2   2 -13   -2.40   14.80
   2   0 -13   -5.90   12.60
   0  -2 -13   18.50    7.30
   2   0 -13   20.70   11.90
  -2   0  13   10.90    4.40
  -2   0  13   12.00   14.40
   0   2  13   20.10    6.70
  -2   0  13   -1.60   15.10
  -3  -2 -13    1.00   10.60
  -3  -2 -13  -10.30    7.80
  -2   5 -13    1.70   17.40
  -3  -2 -13   14.10   10.00
  -2   5 -13    4.70    6.30
  -3  -2 -13   23.40   10.30
   3   2  13    0.60    5.80
   3   2  13   -1.90    6.30
   2  -5  13    7.10   20.40
  -5   3  13   10.90    6.60
  -5   3  13  -16.20   14.70
  -5   3  13   17.30   14.00
   2  -5  13    5.00   10.00
   2  -3 -13   13.40    6.80
   1   2 -13   -8.50   15.30
   1   2 -13    1.90    5.30
   2  -3 -13   -6.10   12.30
   1   2 -13    7.20   11.50
  -3   1 -13    0.30   13.30
   2  -3 -13   -4.20    9.50
  -1  -2  13   11.90   17.70
   3  -1  13   14.80   15.90
  -2   3  13    8.50    5.10
  -2   3  13  -14.70    7.80
  -1  -2  13   -1.00   17.60
  -2   3  13  -13.10   10.10
   3  -1  13    0.20    4.10
  -3   4 -13   -1.20   21.60
  -1  -3 -13    2.40    9.10
  -3   4 -13    6.90    6.10
   4  -1 -13   19.30   19.00
   4  -1 -13   14.50   13.60
  -3   4 -13   -9.20    6.60
   4  -1 -13    1.20   11.30
  -4   1  13    4.10   12.80
  -4   1  13  -18.20   13.50
   1   3  13   -0.60    6.80
  -4   1  13    5.90    5.80
   3  -4  13    2.10    9.30
   1   3  13    8.40    5.90
  -3   7 -13    2.70    6.80
  -4  -3 -13   23.90   10.20
  -3   7 -13  -14.00    7.90
  -4  -3 -13   14.30    7.40
   7  -4 -13    8.00   17.70
   7  -4 -13    3.30   10.70
  -4  -3 -13   19.60   11.20
   7  -4 -13    1.20    7.30
  -7   4  13    3.40   13.10
   3  -7  13    2.90    9.00
   4   3  13   16.40    6.40
  -7   4  13  -12.50    7.50
   3  -7  13   14.30   10.70
  -7   4  13    2.00   14.90
  -4   0 -13   21.70   13.40
  -4   0 -13   -8.00    8.60
   0   4 -13   10.00   13.40
   4  -4 -13   10.10   12.00
   0   4 -13    1.10    6.20
  -4   0 -13   14.00    7.00
   4  -4 -13    9.00    7.10
  -4   4  13   18.60   20.20
   0  -4  13   10.40   22.40
   4   0  13    2.30    5.90
  -4   4  13   -3.30    5.60
  -4   4  13   -1.30   11.10
   1  -4 -13    9.40   13.30
   1  -4 -13   18.30    9.80
  -4   3 -13   21.20    6.80
   3   1 -13   15.30   11.50
  -4   3 -13   24.50   16.60
   3   1 -13    8.60    5.00
  -4   3 -13    3.70    5.60
   3   1 -13  -17.50   17.10
  -1   4  13   20.30    4.30
  -3  -1  13  -18.00   14.50
  -3  -1  13   21.00   14.70
   4  -3  13   12.60    4.50
  -3  -1  13   12.20    6.40
   4  -3  13    9.30   15.10
  -1   4  13    5.70    6.70
   6  -2 -13   -3.80   16.70
  -2  -4 -13   -5.80    9.00
  -4   6 -13    0.00    6.80
   6  -2 -13    7.80   18.60
  -2  -4 -13    2.30    7.90
  -6   2  13  -10.40   14.90
  -6   2  13   -0.60   11.80
   2   4  13   12.00    6.50
  -6   2  13    4.50    8.00
   2   4  13    1.80    5.80
  -4   9 -13   -5.00    7.40
  -4   9 -13   -1.80    9.50
  -5  -4 -13    0.30    7.30
   9  -5 -13    6.70    7.30
  -5  -4 -13   17.10   13.30
  -5  -4 -13   -9.70    8.60
   5   4  13    5.50    6.00
  -9   5  13   16.20   12.40
   4  -9  13  -12.80    9.20
  -9   5  13    1.80    8.70
   4  -9  13  -11.50    9.80
  -9   5  13  -17.10   19.90
  -5  -1 -13   15.20    9.30
  -5  -1 -13  -14.80   12.90
  -5  -1 -13   18.80    7.50
   6  -5 -13    2.20   15.40
   6  -5 -13    6.40    8.30
   1  -6  13   -2.60   17.60
   1  -6  13    1.90    8.90
   5   1  13    7.40    6.70
  -6   5  13   -9.40   15.90
  -6   5  13    2.30    7.20
   5   1  13    8.00    5.80
  -6   5  13   -8.80   13.30
   2   3 -13    7.70   11.50
   3  -5 -13   11.00    7.90
  -5   2 -13   43.20   17.10
   2   3 -13   19.30    6.30
  -3   5  13    4.40    8.70
   5  -2  13   21.60    6.50
  -2  -3  13    3.40   18.10
  -3   5  13   15.70    4.80
  -2  -3  13  -10.40   17.20
  -2  -3  13   21.30    5.80
   5  -2  13   12.80   13.60
  -5   5 -13   13.90    7.70
   5   0 -13   22.40    5.60
   0  -5 -13   37.00    9.60
   5   0 -13   16.80    9.80
   5   0 -13    8.60   16.90
  -5   5 -13   20.80    9.90
  -5   0  13   23.50   14.90
   5  -5  13   19.80    4.80
   0   5  13   23.50    6.60
  -5   0  13   -0.90   13.30
  -5   0  13   22.30    7.30
  -5   8 -13   -4.70    6.90
  -3  -5 -13    8.40    8.10
  -5   8 -13    2.00    7.50
   8  -3 -13   15.30   15.70
   5  -8  13   -9.60   10.10
  -8   3  13  -12.30   17.30
   3   5  13    4.30    5.40
  -8   3  13    3.90   10.50
  -6  -5 -13    0.70    9.80
  -5  11 -13   -9.20    8.10
  -6  -5 -13  -14.30   15.60
  -5  11 -13   16.70    8.70
  11  -6 -13  -12.50    8.90
  11  -6 -13  -24.30   11.40
   6   5  13  -15.70    7.30
 -11   6  13  -12.10   11.50
 -11   6  13  -10.00   11.50
   6   5  13    0.90    5.90
 -11   6  13  -11.00   11.30
   5 -11  13   -3.50   12.20
  -2   8 -13   14.20   10.60
  -6  -2 -13   -3.40   15.50
  -6  -2 -13    1.80    7.80
  -2   8 -13    5.20    6.20
   8  -6 -13    0.50    9.40
   8  -6 -13   -7.80   12.20
   6   2  13    7.20    6.50
  -8   6  13   -6.00   16.40
   2  -8  13   -5.10   11.70
   6   2  13    9.40    6.50
  -8   6  13   -5.50    7.20
  -8   6  13    3.70   15.00
  -6   1 -13   14.90    7.30
   5  -6 -13    7.90    7.60
   1   5 -13   11.10    6.40
   1   5 -13    2.30   14.20
   6  -1  13   14.90    6.20
  -5   6  13   -6.30   11.20
  -5   6  13   12.70    9.90
  -1  -5  13    6.60    8.10
   4   2 -13    8.00    6.40
  -6   4 -13   -3.60    7.40
   4   2 -13    2.80   10.50
   6  -4  13    4.00   12.20
  -2   6  13   13.30    5.10
  -2   6  13    9.20    8.10
  -4  -2  13   -4.30   16.50
  -4  -2  13   12.80    8.90
   6  -4  13   11.90    5.50
   7  -1 -13    6.50   18.20
  -6   7 -13   -4.50    8.10
   7  -1 -13   -1.30   12.30
  -1  -6 -13   10.80    8.50
  -6   7 -13    8.40    6.80
   6  -7  13    8.20    4.80
  -7   1  13    2.20   16.20
   1   6  13    5.00    6.70
   1   6  13    1.30    5.70
  -7   1  13    2.20   10.90
  -4  -6 -13  -10.60    8.90
  -6  10 -13  -12.00    8.20
  10  -4 -13  -22.00   15.50
  -4  -6 -13  -18.30   14.40
   6 -10  13  -12.70   11.50
   4   6  13   -2.30    6.60
 -10   4  13   -6.80    8.80
 -10   4  13   16.70   10.80
   4   6  13    4.60    7.40
  13  -7 -13   -2.10    9.30
  -6  13 -13   -4.50   11.70
  -7  -6 -13   -1.00   22.20
  13  -7 -13  -22.50   12.10
 -13   7  13  -16.40   12.00
   6 -13  13   -2.60   14.00
   7   6  13   14.00   10.30
 -13   7  13    3.60   10.60
  -7  -3 -13    9.40   16.50
  -3  10 -13   15.90    8.20
  -3  10 -13   29.00   10.50
  10  -7 -13    5.10   13.60
  -7  -3 -13   13.80    7.60
  -7  -3 -13   13.60    9.50
 -10   7  13    9.50   15.20
   7   3  13   10.80    7.00
 -10   7  13   16.60    8.70
 -10   7  13   -0.60   21.20
   3 -10  13    2.90   10.20
  -7   0 -13  -18.70   15.50
  -7   0 -13    5.40   10.10
   0   7 -13   11.30    6.30
   7  -7 -13    4.20    7.90
   0   7 -13   20.80    7.20
  -7   0 -13    9.20    7.20
   7   0  13   11.00    7.00
   0  -7  13    6.90    9.60
   7   0  13    9.30    5.90
  -7   7  13  -16.90   14.80
   0  -7  13    8.60    5.90
  -7   7  13   -1.20    7.40
   3   4 -13   13.20   12.90
  -7   3 -13    3.50    7.40
   3   4 -13   18.10    6.70
  -3  -4  13   13.50    8.20
   7  -3  13   12.80   12.60
  -3  -4  13   20.90   18.60
  -4   7  13   12.80    7.40
   6   1 -13   22.30   18.40
   1  -7 -13   -7.80    8.30
   6   1 -13    2.20    7.20
   6   1 -13   -0.60    8.60
  -7   6 -13   13.40    8.90
  -6  -1  13    6.00    8.50
  -1   7  13   18.80    7.60
   7  -6  13    5.60   12.10
  -6  -1  13   11.80   12.40
  -6  -1  13    1.50    6.50
   9  -2 -13  -21.30   12.80
  -7   9 -13  -14.20    6.90
  -7   9 -13   19.10    8.90
  -2  -7 -13   14.90    9.90
   9  -2 -13  -12.70   17.10
   2   7  13   -3.00    6.60
  -9   2  13  -16.80    7.80
  -9   2  13    8.30    9.10
   7  -9  13   -8.90    7.30
   2   7  13    3.80    6.70
  -5  -7 -13   17.80   10.00
  -5  -7 -13  -11.00   18.10
  12  -5 -13    5.00   12.40
   5   7  13    3.20    7.00
   7 -12  13   -6.30   13.70
   5   7  13    0.30    6.80
   5   7  13    8.40    8.70
  -7  15 -13   13.10   11.00
  -8  -7 -13   48.90   13.60
  -8  -7 -13    6.20   12.50
  -7  15 -13   13.90   12.30
   7 -15  13   46.70   15.20
   8   7  13    6.80   10.40
 -15   8  13   27.00   12.20
   8   7  13   31.90    7.30
   8   7  13   23.00    9.10
  12  -8 -13   10.20   10.30
  12  -8 -13   -3.20   12.20
  -4  12 -13   -3.30   10.30
  -8  -4 -13   28.30   18.70
  -8  -4 -13   12.40   11.90
   8   4  13   14.20    7.10
 -12   8  13   12.70   15.90
   8   4  13   10.90    6.40
   4 -12  13    2.30   10.60
   4 -12  13   13.90   11.00
 -12   8  13    3.10   14.80
 -12   8  13   -1.10   10.30
   9  -8 -13   -0.80    8.10
  -1   9 -13   10.30    6.90
  -8  -1 -13    2.50   10.90
  -8  -1 -13    3.80   17.60
   9  -8 -13   -8.80   12.40
  -8  -1 -13    0.00    7.70
  -9   8  13  -15.90   18.30
   8   1  13    4.10    6.40
   1  -9  13    1.00   10.50
   1  -9  13   -6.20    4.90
   8   1  13    4.30    6.50
   2   6 -13    3.10    6.90
   2   6 -13   -4.60   15.00
  -8   2 -13  -30.20   21.80
  -8   2 -13   -4.20    7.70
  -2  -6  13   12.30    8.90
  -6   8  13  -17.50   13.20
  -2  -6  13   13.20    7.70
  -6   8  13    0.40    8.10
  -6   8  13   13.90    7.00
   8  -2  13   -9.90    5.70
   3  -8 -13    7.20    7.40
  -8   5 -13    6.20    7.10
   5   3 -13    6.60   11.00
   5   3 -13    1.50    7.00
  -5  -3  13   30.60   15.80
  -3   8  13    0.50    6.30
  -5  -3  13    7.90    8.90
  -5  -3  13    5.10    6.50
   8  -5  13    1.30   11.30
   8   0 -13   -4.80   18.40
   0  -8 -13   -1.20    8.20
  -8   8 -13    8.40    7.40
   0   8  13    3.30    7.00
  -8   0  13  -10.70    8.90
   8  -8  13   -2.60    6.80
   0   8  13   -6.10    6.20
   8  -8  13    5.20   11.70
  -3  -8 -13    1.20   14.70
  -8  11 -13   14.70    9.90
  11  -3 -13    9.60   18.60
  11  -3 -13  -10.00   12.70
   3   8  13    3.70    8.20
   3   8  13    5.80    7.70
   3   8  13    0.60    6.90
  14  -6 -13   47.40   13.00
  -8  14 -13   15.70   10.00
  -6  -8 -13   27.90   22.70
  -6  -8 -13    3.60   11.40
  14  -6 -13   15.20   12.80
  -8  14 -13    1.10   11.50
   6   8  13   25.20    8.80
   6   8  13   28.10    9.90
   8 -14  13   29.70   16.30
  -8  17 -13  -17.80   12.50
  -9  -8 -13   20.80   13.10
  17  -9 -13  -11.90   13.90
   9   8  13    7.80    9.60
 -17   9  13    3.30   12.00
   9   8  13   12.90    9.50
  14  -9 -13   52.19   11.00
  -9  -5 -13   31.60   13.40
  -9  -5 -13   36.10   10.60
  -5  14 -13   16.10    9.10
  -5  14 -13   14.70   10.60
 -14   9  13   56.59   14.00
   9   5  13   27.20    7.10
   9   5  13   44.40    8.80
   5 -14  13   36.90   12.90
 -14   9  13   19.90   17.60
  -9  -2 -13   10.80    9.10
  -2  11 -13    9.00   10.10
  -9  -2 -13  -19.70   17.70
  -9  -2 -13  -18.70   16.60
  -2  11 -13   -8.10    7.80
   9   2  13    3.20    6.50
   9   2  13   20.40    8.20
   2 -11  13   -0.40   12.10
 -11   9  13  -12.70   33.00
 -11   9  13    6.70   16.00
 -11   9  13   10.40    8.60
  -9   1 -13   -4.00   11.40
   8  -9 -13   13.80    9.10
   1   8 -13    1.10    9.20
   1   8 -13   -5.30    6.80
  -9   1 -13   -2.70   14.60
  -9   1 -13    1.30    7.70
  -8   9  13  -15.80    9.10
  -8   9  13   -7.70   17.30
   9  -1  13   -6.90    6.00
  -8   9  13   -9.50    6.90
  -1  -8  13    6.20   10.40
  -1  -8  13   -5.10    7.40
   5  -9 -13  -12.20    9.50
   4   5 -13    5.80    7.00
   4   5 -13    9.10   12.80
  -9   4 -13   -7.90    7.40
  -4  -5  13   -4.40    8.50
   9  -4  13    0.00    6.10
  -5   9  13    9.50    7.00
  -4  -5  13   -5.50   22.30
  -4  -5  13   -1.80    8.20
  -5   9  13   -6.00    7.00
   9  -4  13    0.70   12.40
   7   2 -13   12.10   20.00
   7   2 -13    1.40    7.10
   7   2 -13   -0.70    9.00
  -9   7 -13   14.50    8.50
  -9   7 -13   13.80    8.90
  -7  -2  13    1.20    9.30
   9  -7  13   16.30    7.60
  -2   9  13   14.80    8.30
  -2   9  13    2.30    6.70
   9  -7  13   15.80    9.90
  10  -1 -13   16.00   16.20
  10  -1 -13  -12.20    7.70
  -9  10 -13   -2.00    7.80
   9 -10  13   -5.30   12.20
   9 -10  13    6.70    6.90
   1   9  13    0.80    7.60
   1   9  13  -14.70    7.00
   9 -10  13  -19.40    9.20
   1   9  13   -3.00    7.70
 -10   1  13   -8.50    8.10
  -4  -9 -13    0.00   11.30
  -4  -9 -13   19.90   18.60
  -9  13 -13   12.60    9.60
  13  -4 -13  -11.00   19.10
   4   9  13  -55.89   34.00
   9 -13  13   10.80   20.20
 -13   4  13   -4.90   10.00
   4   9  13   -7.10    8.40
   4   9  13   -0.60    7.80
   4   9  13   -9.00    7.50
  -7  -9 -13   19.30   13.20
  -9  16 -13   -7.30   13.20
  -9  16 -13  -20.00   11.20
  16  -7 -13    8.60   13.00
  16  -7 -13   -7.80   13.80
   7   9  13  -19.80    9.80
 -16   7  13   -4.40   12.20
   7   9  13   16.70    8.00
   7   9  13   -4.70    9.20
 -10  -9 -13   -2.30   16.90
 -10  -9 -13    6.50   13.40
  -9  19 -13   12.30   15.80
  10   9  13  -13.20   10.30
  10   9  13   13.10   11.70
  10   9  13    5.20    8.50
 -19  10  13   21.50   15.40
  16 -10 -13   17.00   11.80
  -6  16 -13    4.50   12.10
 -10  -6 -13    2.30   11.40
 -10  -6 -13   25.10   13.80
  10   6  13  -17.20   11.10
  10   6  13    7.10    8.30
 -16  10  13   32.80   14.20
 -16  10  13    9.60   15.40
  10   6  13   -4.50    7.90
   6 -16  13    6.20   13.30
 -10  -3 -13   19.90   12.60
 -10  -3 -13   30.40   10.20
  13 -10 -13   35.60   13.90
 -10  -3 -13   12.40   11.10
  13 -10 -13   29.80    9.90
  10   3  13   32.70    7.40
 -13  10  13   14.30   18.10
   3 -13  13   22.00   12.70
  10   3  13   11.30    9.40
   3 -13  13   26.50   11.90
 -13  10  13   20.10   12.70
 -13  10  13   11.30   10.90
  10 -10 -13   12.00    9.40
  10 -10 -13    6.30   14.50
   0  10 -13   -4.40    7.50
 -10   0 -13   -6.30    9.20
   0  10 -13  -16.70    9.10
 -10   0 -13   -4.30   11.70
 -10   0 -13   16.70    9.00
  10   0  13   -3.80    6.40
   0 -10  13  -18.60   10.30
 -10  10  13   -3.80   22.10
  10   0  13   10.80    7.10
 -10  10  13   -4.10    6.70
   0 -10  13  -10.30    6.60
 -10   3 -13   19.00   11.80
 -10   3 -13    4.00    8.80
   7 -10 -13    4.30    8.00
   3   7 -13  -20.40   18.60
  -3  -7  13   18.70    8.10
  -7  10  13   16.20    7.60
  -7  10  13   -4.00    7.60
  -7  10  13   -2.50   17.30
  -3  -7  13   16.60    9.60
 -10   6 -13    3.40    8.40
   6   4 -13    1.00   11.90
   4 -10 -13    9.40    8.90
   6   4 -13   12.30    7.40
  -4  10  13   -1.50    6.90
  10  -6  13    2.20   11.00
  -6  -4  13   -1.60    8.10
  10  -6  13    4.60    6.70
  -4  10  13   10.40    7.70
   1 -10 -13    7.30   10.20
 -10   9 -13    5.00    9.50
   9   1 -13   -7.80   18.30
   9   1 -13  -21.00   13.30
 -10   9 -13   -7.20    8.70
   9   1 -13    6.90    8.20
  -1  10  13    2.00    8.00
  -9  -1  13   14.30    9.40
  10  -9  13    3.00    7.30
  10  -9  13    8.60    9.70
  -1  10  13    4.20    7.70
 -10  12 -13    0.00    8.70
  -2 -10 -13    9.40   10.40
  -2 -10 -13  -14.20   15.60
 -10  12 -13  -10.70    9.20
  12  -2 -13  -16.80   15.90
   2  10  13   11.60    8.00
  10 -12  13   -9.40    7.90
   2  10  13   -9.50    7.40
 -12   2  13   -7.90    8.40
   2  10  13   23.40   24.50
   2  10  13    0.80    7.90
  10 -12  13   -0.30   11.70
  15  -5 -13    1.80   21.80
  -5 -10 -13  -13.80   11.90
  15  -5 -13   24.40   12.60
 -10  15 -13  -10.70   10.50
  -5 -10 -13  -12.90   25.00
   5  10  13   -4.10    9.30
   5  10  13   -8.80    8.50
   5  10  13   -8.10    6.80
  10 -15  13    0.20   16.40
 -15   5  13  -13.30   12.00
  -8 -10 -13   30.30   12.90
  18  -8 -13    3.20   21.40
 -10  18 -13   32.30   14.50
  -8 -10 -13  -26.40   15.80
   8  10  13   21.60   10.70
 -11  -7 -13   31.00   15.40
  -7  18 -13   29.20   19.70
  18 -11 -13   58.39   13.60
 -11  -7 -13    6.00   13.20
  -7  18 -13   24.90   15.90
 -18  11  13    5.40   17.60
  11   7  13   55.19   13.10
 -18  11  13   41.80   15.60
  -4  15 -13   -9.20    9.90
 -11  -4 -13   17.10   11.10
  15 -11 -13   24.50   14.20
 -15  11  13   -0.70   13.40
 -15  11  13   16.20   13.70
  11   4  13    8.70    7.40
  11   4  13    6.90    6.40
  11   4  13    6.40   15.20
 -15  11  13  -23.70   22.80
   4 -15  13   13.80   12.60
 -15  11  13    3.50   12.90
   4 -15  13   -7.60   11.90
 -11  -1 -13  -10.60   11.70
  12 -11 -13   -4.40    8.80
 -11  -1 -13   -0.40   10.20
  -1  12 -13   -9.30    8.70
  12 -11 -13    0.90   14.90
 -12  11  13   -1.70   10.90
 -12  11  13   18.20   12.80
   1 -12  13   -3.80    6.50
   1 -12  13    0.00   11.10
 -12  11  13  -12.60   14.20
 -12  11  13   18.10   19.40
 -11   2 -13  -24.90   15.70
   9 -11 -13   -3.30    9.10
 -11   2 -13    8.00    8.40
   2   9 -13   -0.80    7.40
   2   9 -13  -13.70   10.10
 -11   2 -13   15.10    8.90
  -9  11  13    5.40    9.10
  -9  11  13  -12.20   19.60
  -2  -9  13   -4.40    7.80
  11  -2  13   -4.60    6.30
  11  -2  13   -9.00    6.60
  -9  11  13  -15.20    7.90
   5   6 -13   14.10   15.10
   6 -11 -13   14.70   10.00
  -5  -6  13   29.00    9.00
  11  -5  13   18.30    5.90
  -6  11  13   25.00    8.20
  -6  11  13   -0.90   16.00
  -6  11  13   18.50    7.50
  -6  11  13    6.00   15.70
   8   3 -13    8.20    7.80
 -11   8 -13   -1.90    9.70
   8   3 -13    0.20   15.30
 -11   8 -13   -6.60    9.60
   8   3 -13    9.10   21.40
   8   3 -13   -4.00    8.10
   3 -11 -13   -8.60    8.20
  -3  11  13    4.40    8.80
  11  -8  13   10.10   10.10
  -3  11  13   -0.70    8.10
  11  -8  13   12.80    7.00
  -8  -3  13   -2.70    7.40
  -3  11  13   -9.80    6.40
  11   0 -13    1.20   15.50
   0 -11 -13   15.80   11.20
 -11  11 -13    8.90    9.40
 -11  11 -13   -1.80    8.70
  11   0 -13    1.50    7.60
 -11   0  13  -10.40    8.80
  11 -11  13   -4.70    7.30
   0  11  13    7.50    9.20
  11 -11  13   -1.00    8.70
   0  11  13   -9.90    8.30
  11 -11  13    1.90    7.10
  -3 -11 -13   21.90   20.50
 -11  14 -13   -0.70    9.70
  -3 -11 -13  -10.70   10.30
  14  -3 -13   -5.50   13.30
  14  -3 -13   -5.90   17.90
  11 -14  13    7.40    9.80
   3  11  13    5.00    9.00
   3  11  13   10.50    7.20
   3  11  13    6.20    8.20
 -11  17 -13   21.40   12.80
  -6 -11 -13   25.80   16.60
  17  -6 -13    1.70   14.10
  -6 -11 -13   -4.40   14.40
   6  11  13    2.90    8.40
  11 -17  13   -5.80    8.00
   6  11  13  -21.20   10.20
   6  11  13   -8.60   10.40
  -5  17 -13    9.50   15.90
 -12  -5 -13   28.20   13.00
 -12  -5 -13   -1.70   11.40
  12   5  13    4.30   10.30
 -17  12  13    1.40   14.90
  12   5  13   -2.60    9.30
  12   5  13    1.40    7.60
 -17  12  13    0.20   15.40
  -2  14 -13    8.50    9.20
  14 -12 -13   -4.00    9.80
 -12  -2 -13   -2.10    9.60
  -2  14 -13   21.60   11.60
  14 -12 -13  -18.40   15.00
 -12  -2 -13  -13.10    9.20
  12   2  13    2.20    6.80
 -14  12  13   -6.90   10.90
 -14  12  13   -1.30   14.40
  12   2  13    1.30   11.00
 -14  12  13  -21.20   12.70
   2 -14  13    4.60    5.80
   2 -14  13   19.90   13.40
 -14  12  13    2.90   11.50
 -12   1 -13   -8.20    8.50
 -12   1 -13   -2.50   12.80
  11 -12 -13   20.70   14.80
   1  11 -13    5.40    8.20
   1  11 -13   -7.50   10.70
 -12   1 -13  -14.70    9.50
 -11  12  13    3.60    8.20
  -1 -11  13    9.60    6.70
 -11  12  13   14.00    8.80
 -11  12  13   -4.30   24.70
 -11  12  13    1.10   10.80
  12  -1  13   -5.30    7.20
  12  -1  13    7.50    7.20
 -11  12  13   15.50   12.60
   8 -12 -13    8.70    9.60
   4   8 -13    7.70    7.70
 -12   4 -13    0.60    9.50
   4   8 -13   18.20    8.00
 -12   4 -13    9.30    8.50
  -8  12  13   -1.80    8.00
  -8  12  13   24.30   24.60
  -8  12  13    7.80    9.40
  12  -4  13   -1.50    6.20
  -8  12  13   14.60    8.00
  -8  12  13  -15.20   20.10
  -4  -8  13   -3.90    9.00
  12  -4  13    7.40    6.00
   5 -12 -13  -11.00    8.90
   7   5 -13   -6.70    7.60
   7   5 -13    9.60   12.50
 -12   7 -13    6.20    8.80
  12  -7  13    9.40   10.20
  -5  12  13    2.60    6.50
  -5  12  13   30.30   16.70
  -5  12  13    2.50   16.30
  -5  12  13    6.20    9.30
  -5  12  13   14.40    9.50
  10   2 -13   -9.50   18.30
 -12  10 -13    6.50    9.80
  10   2 -13   -0.90    7.20
 -12  10 -13   15.20   10.00
   2 -12 -13    6.10    9.90
  10   2 -13   -3.10   18.10
  12 -10  13   -7.70    9.30
  12 -10  13   -1.90    7.00
  -2  12  13    9.60    7.90
  -2  12  13   -4.00    9.40
 -10  -2  13   -4.90   10.00
  13  -1 -13   18.10   15.80
  13  -1 -13    4.10    9.60
 -12  13 -13   24.70    9.40
 -12  13 -13   -5.30    9.40
   1  12  13    4.50    8.40
 -13   1  13  -13.70    9.80
   1  12  13    6.30    9.10
  12 -13  13  -10.00    7.20
 -12  16 -13  -24.50   13.20
  -4 -12 -13  -11.90   14.00
  -4 -12 -13   23.10   31.10
  16  -4 -13   -1.30   13.90
  12 -16  13    0.00    7.40
 -16   4  13    4.40   11.50
   4  12  13   -8.50   10.10
   4  12  13   14.40   10.50
   7  12  13   -2.80   12.10
  -3  16 -13   10.40   10.40
 -13  -3 -13   18.50   10.10
  16 -13 -13    1.50   11.80
  -3  16 -13    9.40   12.60
  16 -13 -13  -27.50   15.60
 -13  -3 -13    5.50   13.00
   3 -16  13  -20.70   12.50
 -16  13  13   30.20   13.10
   3 -16  13  -10.30   14.40
  13   3  13   -3.00    8.60
 -16  13  13   11.60   15.10
 -16  13  13   16.40   14.80
  13   3  13   -2.30    9.20
  13 -13 -13   -6.40   10.10
   0  13 -13    5.60    9.30
  13 -13 -13  -29.00   13.90
 -13   0 -13    2.00   12.20
 -13  13  13  -12.20   13.60
  13   0  13  -10.50    6.60
  13   0  13    1.80    7.10
 -13  13  13   17.20   12.40
 -13  13  13    1.10    8.80
   0 -13  13   27.40   12.70
 -13  13  13   23.80   10.60
  13   0  13    5.40    7.30
  13   0  13  -14.20   11.10
 -13  13  13   -5.70   10.60
 -13   3 -13   16.60    9.90
   3  10 -13  -11.10    8.70
 -13   3 -13    4.40   13.20
 -13   3 -13   -7.70    9.00
   3  10 -13    8.60   10.30
  13  -3  13   -1.20    6.10
  13  -3  13   -8.30    6.90
 -10  13  13   22.30   10.90
 -10  13  13   -1.10    8.70
  -3 -10  13    5.10    7.70
  -3 -10  13   15.00   11.00
 -10  13  13    8.70    9.20
 -10  13  13  -12.00   25.10
   6   7 -13    8.00    8.20
   6   7 -13  -18.70   17.80
  -7  13  13   -7.10   22.60
  -6  -7  13   -6.30    8.60
  -7  13  13   -8.60    8.90
  13  -6  13    3.30    6.70
  -7  13  13    1.60   20.40
  -6  -7  13    6.90    9.50
  -7  13  13    2.00    9.90
  -7  13  13  -10.60    7.70
  13  -6  13    8.00   12.80
   9   4 -13    8.10    9.30
   4 -13 -13   13.80   10.50
   9   4 -13   -4.60    7.40
  -4  13  13    0.30    9.40
  13  -9  13   -3.20    9.20
  -4  13  13   -2.90   19.10
  13  -9  13   -0.70    6.60
  -4  13  13    1.80    9.30
   1 -13 -13   -5.90   10.60
  12   1 -13    8.50    9.00
 -13  12 -13   11.50   10.40
  12   1 -13  -17.90   15.70
  12   1 -13    0.10   14.80
 -13  12 -13   -6.60   10.70
 -12  -1  13   -0.80    9.70
  13 -12  13   -9.00    7.90
  13 -12  13    0.30    6.70
  -1  13  13    7.00    9.10
  -1  13  13  -12.40    7.40
  -2 -13 -13   -8.30   12.70
 -13  15 -13  -17.30   10.60
 -13  15 -13  -11.90   11.20
  -2 -13 -13   -8.20   23.10
  15  -2 -13   13.30   16.30
   2  13  13    0.50    9.40
  13 -15  13   17.50    8.90
   2  13  13   -4.00   10.20
 -15   2  13   13.90   10.20
 -13  18 -13   -3.70   13.70
  -5 -13 -13    6.30   16.50
  13 -18  13   15.80    9.60
 -18   5  13   18.60   14.40
   5  13  13   -6.60    9.10
   5  13  13    4.50   11.50
 -14  -4 -13    5.50   12.10
  18 -14 -13   10.50   15.00
 -14  -4 -13    8.00   15.10
  18 -14 -13  -37.00   24.90
 -18  14  13   12.00   16.60
  14   4  13    0.20    8.60
 -18  14  13   -8.60   14.10
 -18  14  13   23.70   15.20
  14   4  13  -10.00   11.60
  -1  15 -13  -23.90   12.10
 -14  -1 -13   -9.70   11.90
 -14  -1 -13   -2.80   10.30
  15 -14 -13  -30.70   16.10
 -14  -1 -13  -22.30   12.70
  15 -14 -13    0.40   11.80
  -1  15 -13   -2.30   10.10
  14   1  13   -8.40    8.00
 -15  14  13    1.80   12.10
  14   1  13    1.60    8.60
   1 -15  13    0.10   12.90
 -15  14  13  -10.30   14.50
 -15  14  13    7.10   11.70
   1 -15  13   15.10    7.30
 -15  14  13  -16.60   12.20
  14   1  13   -5.90    8.00
 -15  14  13  -10.60   12.10
   2  12 -13    7.10    8.90
 -14   2 -13  -19.40    9.10
   2  12 -13   15.00   10.10
 -14   2 -13    9.40   13.10
 -14   2 -13   18.40   10.80
  12 -14 -13  -26.70   15.40
  -2 -12  13   -4.40   12.10
 -12  14  13   -2.50   11.80
 -12  14  13    2.60   10.90
 -12  14  13  -12.60   16.10
  14  -2  13   -0.60    6.60
 -12  14  13    7.10    9.60
  14  -2  13   -2.70    6.30
  14  -2  13    9.30    6.00
 -12  14  13   -5.10    9.10
  -2 -12  13   -1.80    7.70
   5   9 -13    5.40   11.40
   5   9 -13    2.80    8.40
 -14   5 -13   -7.40    9.80
   9 -14 -13    9.90   11.60
   5   9 -13   -5.90    8.20
  14  -5  13  -11.70    6.10
  -9  14  13   -6.30   10.70
  -5  -9  13   -6.60   10.10
  14  -5  13    6.70    6.30
  -9  14  13   17.10   23.40
  -9  14  13  -19.70    8.90
  -5  -9  13  -12.70    9.10
  -9  14  13   -6.70    8.80
   6 -14 -13   26.10   10.50
 -14   8 -13   18.70    9.30
   8   6 -13    4.70   15.10
 -14   8 -13   13.30   13.40
  14  -8  13   23.40    7.30
  -6  14  13    4.70   10.30
  -6  14  13   14.10    8.80
  14  -8  13   -1.60   10.60
  -8  -6  13   18.70   10.00
  -6  14  13   25.10    9.90
 -14  11 -13   -7.00   10.70
  11   3 -13   10.30   17.70
 -14  11 -13   12.40   10.00
  11   3 -13   10.80   21.40
  14 -11  13    4.40    7.50
  -3  14  13    6.10    8.60
  -3  14  13   -5.70    8.90
  -3  14  13   -8.20    8.40
  14 -11  13    4.30    7.40
  14   0 -13    6.90   10.00
   0 -14 -13   -5.00   12.80
 -14  14 -13    0.40   11.20
 -14  14 -13    0.00   10.70
  14 -14  13    0.50    7.00
   0  14  13   10.90    8.90
   0  14  13   -9.40    8.10
 -14   0  13   -6.00   11.00
   0  14  13   19.00   10.00
  14 -14  13    3.60    8.90
  17  -3 -13   -6.80   18.00
  -3 -14 -13   37.60   17.80
 -14  17 -13   27.50   14.90
 -17   3  13  -10.30   13.30
  14 -17  13   -6.60    8.60
   3  14  13  -15.70    9.90
  17 -15 -13   11.40   16.80
  -2  17 -13   -7.90   14.20
  17 -15 -13   20.00   11.90
 -17  15  13   -2.10   13.80
 -17  15  13   16.60   14.50
 -17  15  13   24.10   15.60
  15   2  13    5.90   14.10
  15   2  13    4.10    8.60
  15   2  13   12.20    8.90
 -17  15  13   15.00   12.00
 -15   1 -13   -4.60   11.50
 -15   1 -13  -13.50    9.90
  14 -15 -13    1.60   12.10
   1  14 -13   -3.50   10.80
   1  14 -13   21.10   11.40
 -15   1 -13  -24.10   13.10
  15  -1  13   11.30    6.90
 -14  15  13  -14.30    9.70
 -14  15  13   -1.40   11.10
 -14  15  13   -3.80   10.50
  15  -1  13    0.50    8.30
  -1 -14  13  -14.40    7.10
 -14  15  13  -14.10   12.40
 -14  15  13  -25.90   14.30
  15  -1  13    5.40    7.10
  15  -1  13   27.30   12.80
 -15   4 -13   14.50   13.50
  11 -15 -13   -1.10   10.10
 -15   4 -13   15.60   10.70
   4  11 -13   -3.50    8.60
   4  11 -13   11.60    9.90
 -15   4 -13   20.60   10.90
 -11  15  13   -8.90   11.10
 -11  15  13   -5.90   12.70
  15  -4  13    6.20    6.30
  15  -4  13   -9.50    6.90
  15  -4  13   12.10    7.30
 -11  15  13    9.80   10.30
 -11  15  13    3.60    9.40
  -4 -11  13  -10.30   11.30
   8 -15 -13   -2.20    9.80
   7   8 -13   10.90   19.80
   7   8 -13    7.70    9.30
   7   8 -13    3.00    8.30
  -8  15  13  -18.10   25.70
  -8  15  13   -5.30   10.30
  15  -7  13  -10.80    8.10
  15  -7  13   12.00   13.50
  -8  15  13   -0.30    8.40
  -7  -8  13  -10.70    8.80
  -8  15  13   15.60   10.90
 -15  10 -13  -10.40   11.50
  10   5 -13   30.80   23.20
   5 -15 -13    7.20   10.30
  -5  15  13   -1.90    8.60
  -5  15  13    6.20    9.10
  15 -10  13   -3.20    9.00
  15 -10  13   13.20    8.00
  -5  15  13  -10.00   10.00
 -10  -5  13    8.60   10.10
  13   2 -13  -10.80   19.50
   2 -15 -13    0.60   12.40
 -15  13 -13    9.50   12.30
 -15  13 -13    1.70   10.30
 -13  -2  13  -17.20   11.40
  -2  15  13   10.60    8.40
  15 -13  13   -2.40    7.00
  -2  15  13  -15.90    8.40
  15 -13  13   10.10    8.80
  16  -1 -13    2.00   18.60
 -15  16 -13   -3.20   20.00
  -1 -15 -13   -8.20   15.70
 -15  16 -13   -9.60   10.80
  15 -16  13   18.10    8.20
 -16   1  13   15.60   12.90
   1  15  13    6.30   10.10
  15 -16  13  -16.80    9.20
   0  16 -13   -9.10   13.40
 -16   0 -13  -10.50   15.90
 -16   0 -13  -17.00   11.70
   0  16 -13   28.40   14.50
   0  16 -13   15.40   10.70
  16   0  13   15.90   13.10
 -16  16  13    1.60   12.80
 -16  16  13   23.90   11.60
  16   0  13   16.30   10.30
   0 -16  13  -18.00   12.40
 -16  16  13   -7.60   13.90
  16   0  13   -2.90    7.40
 -16  16  13   -1.40   12.30
 -16   3 -13   10.40   13.20
   3  13 -13   23.80   11.30
   3  13 -13   -1.40   11.70
  13 -16 -13   -7.90   16.00
  13 -16 -13  -12.70   12.30
 -16   3 -13    9.00   12.80
   3  13 -13   -5.20   11.10
 -13  16  13   -7.50   11.80
  16  -3  13   11.80    7.30
  16  -3  13   -2.50    7.40
 -13  16  13    1.20   15.00
  -3 -13  13  -16.10    9.00
 -13  16  13  -11.70   11.70
  -3 -13  13   22.10   14.50
 -13  16  13   -3.00   10.80
   6  10 -13  -10.70    8.50
 -16   6 -13  -15.80   11.50
 -16   6 -13  -11.30   10.10
  10 -16 -13  -18.30   11.90
   6  10 -13   15.80    9.20
  16  -6  13   -7.00    7.60
  -6 -10  13   15.70   11.40
 -10  16  13  -12.70   31.90
  -6 -10  13  -12.90   10.60
  16  -6  13    6.80    6.10
 -10  16  13   -6.90    9.70
 -10  16  13   14.60   13.40
 -10  16  13   18.30   10.50
 -10  16  13   16.90   10.70
  16  -6  13   -4.20    7.90
   7 -16 -13   -6.50   10.50
   9   7 -13   17.50   16.40
   9   7 -13   15.70    8.80
 -16   9 -13    8.60   11.80
  16  -9  13    3.20   11.30
  16  -9  13   12.20    6.40
  -7  16  13   -3.10   10.10
  -7  16  13   15.20   10.50
  -9  -7  13   27.80   10.30
  16  -9  13   -2.20    8.00
  -7  16  13   -4.70   10.20
   4 -16 -13   17.90   12.90
 -16  12 -13    0.90   12.30
  12   4 -13  -26.80   22.70
  -4  16  13  -10.70    9.40
 -12  -4  13   19.00   10.40
  16 -12  13   -5.60    6.00
  -4  16  13    0.90   10.20
  -4  16  13   -6.30    9.30
  16 -12  13   -5.60    8.60
   1 -16 -13   11.00   14.10
  15   1 -13  -45.80   21.20
 -16  15 -13   -3.70   11.50
 -16  15 -13   19.10   14.00
  15   1 -13   -7.10    9.70
  16 -15  13   -0.30    8.00
 -15  -1  13    3.80   12.20
  -1  16  13   -4.70   10.10
  -1  16  13  -14.00    9.60
   2  15 -13    8.40   13.30
  15 -17 -13   12.70   18.90
   2  15 -13   -0.50   11.40
  15 -17 -13    8.60   11.00
 -17   2 -13    4.20   13.90
   2  15 -13   -1.10   12.30
 -17   2 -13  -14.30   11.10
 -17   2 -13   -7.70   15.10
 -15  17  13   22.70   17.00
 -15  17  13   -7.10   11.70
  -2 -15  13    7.20    8.40
  -2 -15  13   -1.40   16.50
  17  -2  13  -10.40    8.30
  17  -2  13   12.90    9.00
 -15  17  13  -16.80   12.50
   5  12 -13  -15.10   11.70
   5  12 -13    3.30   10.30
 -17   5 -13   -1.30   12.80
 -17   5 -13   24.60   11.60
 -17   5 -13   -0.90   13.20
 -12  17  13   11.20   13.00
  -5 -12  13  -17.10   12.30
  17  -5  13   -0.70    8.00
 -12  17  13   12.90   17.30
  17  -5  13   -3.40    8.30
 -12  17  13   20.30    9.30
  17  -5  13    6.10    6.20
 -12  17  13    0.50   11.10
 -12  17  13   16.00   12.10
  -5 -12  13   24.90   10.60
   8   9 -13   10.50    9.00
 -17   8 -13   34.50   14.60
   9 -17 -13   17.00   11.60
 -17   8 -13    3.10   11.10
   8   9 -13   -5.70    9.90
  17  -8  13   22.40   17.50
  -9  17  13   38.40   14.70
  -8  -9  13   16.70   11.90
  -9  17  13    6.10   10.60
  -9  17  13    6.60   35.50
  -9  17  13   28.40   12.30
  17  -8  13   -2.10    7.00
  -9  17  13    0.60   10.20
  11   6 -13  -15.40   10.30
   6 -17 -13   10.30   13.40
 -17  11 -13    3.70   14.10
 -17  11 -13   -1.10   15.20
  17 -11  13   -7.40    6.40
 -11  -6  13  -17.00    9.60
  -6  17  13   -8.30    9.50
  17 -11  13   -8.60    8.10
  -6  17  13    6.40   10.70
  14   3 -13   48.80   23.40
   3 -17 -13    1.90   13.30
 -17  14 -13  -20.90   13.40
  14   3 -13   -1.50   10.60
 -17  14 -13   24.60   11.40
  -3  17  13   -4.40   11.60
  -3  17  13   -7.00    9.20
  17 -14  13   -0.50    7.60
  17 -14  13    9.90    9.50
  -3  17  13   -3.00   10.10
 -18   4 -13  -12.40   13.70
   4  14 -13   14.60   13.40
 -18   4 -13    6.40   11.90
 -18   4 -13  -22.10   15.40
  14 -18 -13   36.90   18.70
  -4 -14  13   39.20   17.30
 -14  18  13   -5.20   13.80
  18  -4  13    1.30    9.00
  18  -4  13   11.50    9.40
  -4 -14  13    3.30   10.70
  18  -4  13    0.40    8.40
 -14  18  13   24.40   16.00
 -14  18  13  -17.20   10.80
   7  11 -13   18.50   11.30
 -18   7 -13   37.50   15.70
 -11  18  13  -17.80   11.70
 -11  18  13   -2.70   13.10
  18  -7  13   17.20   10.20
  -7 -11  13    3.60   11.90
 -11  18  13    6.30   13.50
 -11  18  13    6.40   15.30
  18  -7  13   -7.40    6.80
  10   8 -13   10.60   10.50
 -18  10 -13   -2.40   13.60
 -18  10 -13  -13.20   12.30
  18 -10  13   -7.20    6.80
 -10  -8  13  -11.40   15.00
  -8  18  13    0.60   11.60
  -8  18  13    1.30   11.90
  13   5 -13    0.40   11.70
 -18  13 -13   18.90   14.50
  13   5 -13    2.60   25.60
   5 -18 -13   18.40   15.30
  -5  18  13  -11.00   13.50
  -5  18  13  -17.00   11.60
 -13  -5  13   -0.10   11.00
   9  10 -13   23.20   11.00
 -19   9 -13    9.90   15.60
 -19   9 -13   27.90   14.90
 -10  19  13    6.40   15.60
  -9 -10  13   18.30   12.70
  19  -9  13   22.80   11.20
  19  -9  13    2.40    7.60
 -10  19  13    1.00   17.60
 -19  12 -13  -15.50   15.50
 -12  -7  13  -14.20   12.90
  19 -12  13  -21.70   13.60
  -1   1 -14   17.10   14.20
   0  -1 -14   20.20   11.50
   1   0 -14   19.30    9.10
   1   0 -14   13.10   13.60
   1   0 -14    6.30   14.10
  -1   1 -14   22.90   14.70
   0  -1 -14    8.50   14.30
   0   1  14    3.60    5.20
  -1   0  14   -8.60    5.70
   1  -1  14    1.50    5.10
  -1   0  14  -17.70   16.40
   0   2 -14    6.40    7.10
   2  -2 -14   25.10   13.60
  -2   0 -14    4.80    9.40
   2  -2 -14   -5.10    9.80
   2  -2 -14    8.90    9.20
  -2   0 -14   12.90   11.60
   0   2 -14    7.40   15.00
   0   2 -14    9.70   16.30
   0  -2  14   -4.20    6.20
   2   0  14    5.40    5.10
   0  -2  14   -0.80   16.70
  -2   2  14   -7.40   13.10
  -2   3 -14   13.50    6.60
  -1  -2 -14    6.30    9.60
  -2   3 -14   27.20   17.30
   3  -1 -14   -2.40    7.80
  -2   3 -14   12.80    6.60
  -1  -2 -14   12.70    9.80
  -3   1  14   -3.90   15.40
  -3   1  14    7.90   17.90
  -3   1  14    8.90    6.60
  -1   4 -14    8.40    6.50
  -3  -1 -14   14.70   11.60
  -3  -1 -14   12.60   10.30
   4  -3 -14   14.30   12.60
   4  -3 -14   26.80    9.90
  -1   4 -14    7.90   12.10
   3   1  14    3.60    7.10
   3   1  14    5.80    6.60
  -4   3  14   -6.60   19.50
  -4   3  14   18.80   13.70
  -4   3  14    7.10    6.60
   1  -4  14   18.00    5.30
   1  -4  14   15.40   21.20
  -3   2 -14  -22.10   14.40
  -3   2 -14   -8.00    6.40
   2   1 -14    9.70   17.70
   2   1 -14   -9.20   13.40
   2   1 -14   -8.50    6.40
   1  -3 -14   -7.40   13.50
   3  -2  14   -7.10   24.20
  -2  -1  14  -27.00   18.10
  -1   3  14    7.50    8.40
  -2  -1  14  -11.40    6.10
  -2  -1  14  -20.00   16.10
  -1   3  14   -3.70    5.90
  -3   5 -14   20.90    9.30
  -3   5 -14   22.10    7.80
  -2  -3 -14   -9.10    8.20
  -2  -3 -14  -10.30    9.40
   5  -2 -14    9.20   15.40
   5  -2 -14  -10.90   11.30
   2   3  14   11.00    6.40
   2   3  14   -4.30    6.50
  -5   2  14    7.20    5.90
  -5   2  14    9.10   14.50
   3  -5  14    1.40    5.00
  -4  -2 -14   -8.40    7.50
  -4  -2 -14   -6.40    9.80
   6  -4 -14  -21.90   15.20
  -4  -2 -14   12.40   12.90
  -2   6 -14   -6.40    6.00
   6  -4 -14   -8.40    8.70
  -6   4  14   -6.10   14.10
   4   2  14   -0.80    6.00
   2  -6  14    1.00   10.60
  -6   4  14  -26.00   15.50
   4   2  14    0.40    6.80
  -6   4  14  -11.30    6.30
   3  -4 -14   -8.80    8.80
   1   3 -14   -6.40   14.40
   1   3 -14   -8.00    6.50
  -4   1 -14    3.80   14.40
   4  -1  14   -3.60    6.30
  -3   4  14   -3.30    6.40
   4  -1  14   -4.10    5.30
  -3   4  14   16.70   10.90
  -3   4  14  -13.10    9.30
  -1  -3  14  -23.30   20.60
  -1  -3  14    1.70    6.00
  -4   4 -14   39.90    7.60
   4   0 -14   27.60    7.40
   4   0 -14   25.60    7.90
  -4   4 -14   26.00    8.00
   0  -4 -14   27.40   10.10
   4   0 -14   25.40   11.50
   4  -4  14   20.80    5.60
   0   4  14   32.90    8.10
  -4   0  14   17.40   16.00
  -4   0  14   17.70   15.10
  -4   0  14   21.80    6.60
  -3  -4 -14    1.40    7.90
  -4   7 -14  -11.80    5.90
  -7   3  14  -20.90   16.20
   4  -7  14    3.80    5.10
  -7   3  14   -7.60   13.30
   3   4  14   -0.90    6.50
   3   4  14   11.00    6.40
  -3   8 -14   -4.80    6.50
  -5  -3 -14  -13.40   13.20
   8  -5 -14   -8.60   12.30
  -5  -3 -14    4.50    9.70
  -3   8 -14    5.90    9.50
  -8   5  14   -7.80   17.40
  -8   5  14   27.80   16.20
   5   3  14   -6.40    5.90
   3  -8  14    2.30    5.10
  -8   5  14  -16.20    7.70
   5  -5 -14   -8.30    8.20
  -5   0 -14    7.20    9.90
   0   5 -14    0.60   14.10
  -5   0 -14   -1.20    7.80
   0   5 -14   13.70    6.00
   0  -5  14   10.50    7.00
  -5   5  14   -7.80   13.20
  -5   5  14    6.30    5.90
   0  -5  14   22.00    8.60
  -5   3 -14   36.20   20.70
   3   2 -14    7.40   12.60
   3   2 -14   23.10    6.60
  -5   3 -14   10.70    7.50
   2  -5 -14   16.00    8.10
   5  -3  14   24.40    5.40
  -2   5  14   15.50    6.30
  -3  -2  14   26.60    7.50
  -2   5  14   18.70    7.60
   5  -3  14   19.30   12.60
  -3  -2  14   -2.30   17.00
  -3  -2  14    2.40   18.50
   6  -1 -14    6.10   12.20
  -5   6 -14   17.40    7.20
   6  -1 -14   -3.80   10.00
  -5   6 -14    6.60    6.70
  -6   1  14   14.40   16.20
   1   5  14   13.90    6.90
  -6   1  14    0.60   13.90
  -6   1  14    2.40    7.30
   1   5  14   -1.60    6.10
  -4  -5 -14   -3.50   12.20
   9  -4 -14   -2.60    8.20
  -5   9 -14   11.60    8.00
   9  -4 -14  -13.60   11.30
  -4  -5 -14    4.30    9.50
   4   5  14    9.70    7.10
  -9   4  14   11.40   26.70
  -9   4  14   -3.90   11.50
  -9   4  14   21.50    8.90
   4   5  14    8.60    6.20
  10  -6 -14   35.00   14.10
  -4  10 -14   -2.10    9.50
  -6  -4 -14   15.40   15.10
  -6  -4 -14   16.40    9.80
  -6  -4 -14    7.10   10.00
  -4  10 -14   -4.80    7.80
 -10   6  14    0.00   14.80
 -10   6  14   15.70   28.30
   6   4  14    6.30    5.90
  -1   7 -14    4.40    8.50
  -6  -1 -14   17.30    7.90
  -1   7 -14   -1.80    6.20
  -6  -1 -14    5.20   10.70
  -6  -1 -14   14.10   15.60
   6   1  14    7.40    6.20
  -7   6  14   10.30    6.80
   6   1  14   -5.60    6.80
   1  -7  14   12.60   10.00
  -7   6  14  -11.40   21.00
  -7   6  14   10.40   15.50
   2   4 -14   -7.50    5.90
  -6   2 -14   -4.70    8.10
  -6   2 -14  -31.40   20.50
   2   4 -14   -6.70   13.50
   4  -6 -14   -9.90    7.80
   6  -2  14    2.50    6.00
  -2  -4  14   14.60    8.20
  -4   6  14   -2.80    9.50
  -2  -4  14    2.70    6.70
   6  -2  14   -2.40    5.20
  -6   5 -14   16.90    7.60
   5   1 -14    7.90   11.30
  -6   5 -14    9.20    8.30
   1  -6 -14    7.40    8.80
  -5  -1  14  -11.60   14.30
   6  -5  14   14.20    6.30
  -1   6  14    5.90    6.60
  -5  -1  14   21.90   16.40
   6  -5  14    9.20   15.20
  -1   6  14    0.30    6.10
  -6   8 -14   14.40    7.30
   8  -2 -14   13.60   11.90
   8  -2 -14   16.90   11.50
  -2  -6 -14    1.80    9.20
  -8   2  14   13.70    7.80
  -8   2  14   26.50    8.80
  -8   2  14    4.60   11.10
   6  -8  14   17.60    6.00
  11  -5 -14   14.40    8.60
  -6  11 -14   30.20   10.30
  -5  -6 -14   21.50   17.20
  -5  -6 -14   27.30    9.80
   5   6  14   17.20    7.50
 -11   5  14   14.00   10.80
 -11   5  14   21.00    9.90
   6 -11  14   14.70    5.30
   5   6  14   14.30    7.10
  -5  12 -14   -9.70    8.70
  -7  -5 -14  -12.10   17.10
  12  -7 -14   -1.70   12.90
  -5  12 -14   17.70   11.60
  -7  -5 -14   18.20   10.60
  12  -7 -14   12.40    9.30
   7   5  14    2.60    7.20
   7   5  14    0.00    7.30
   5 -12  14    1.70    7.30
 -12   7  14  -12.80   13.50
 -12   7  14   -3.10   15.20
  -7  -2 -14   -7.10    8.20
  -7  -2 -14   22.70   11.70
   9  -7 -14   17.10   12.60
  -2   9 -14   -0.50    7.20
  -2   9 -14   -2.40    9.40
  -7  -2 -14   -2.80   17.00
   7   2  14    2.90    6.20
  -9   7  14    1.70   18.70
  -9   7  14   -1.60   19.40
   2  -9  14   -3.30    6.20
   2  -9  14   12.90   10.70
  -7   1 -14  -10.80   19.20
   1   6 -14   10.50   12.50
   1   6 -14   -3.90    7.10
  -7   1 -14    0.80    9.40
   6  -7 -14   -7.30    8.80
   7  -1  14    5.50    6.50
  -1  -6  14   18.70   11.50
  -6   7  14  -10.20    6.60
  -1  -6  14    4.50    7.70
  -6   7  14    2.80   13.00
  -7   4 -14    2.10    6.20
   4   3 -14   -1.50   13.30
   4   3 -14    6.90    6.30
  -4  -3  14   27.10   17.10
  -3   7  14    6.70    6.20
   7  -4  14   10.60    6.60
  -3   7  14   22.40    8.30
   7  -4  14    0.30   13.20
  -7   7 -14   12.30    8.70
   7   0 -14   18.60   18.70
   7   0 -14    0.30    8.60
   0  -7 -14    4.20    9.00
  -7   7 -14    1.60    8.10
   7   0 -14   10.00    7.20
  -7   0  14   -0.30    9.00
  -7   0  14  -17.50   12.20
  -7   0  14    2.60    9.90
   7  -7  14   12.00    6.70
   0   7  14  -10.50    6.60
   0   7  14    1.30    5.80
   7  -7  14    9.70   14.90
  -3  -7 -14   17.80   10.70
  -7  10 -14   -4.40    8.60
   3   7  14    0.70    6.10
 -10   3  14    2.30    8.90
 -10   3  14   -6.70   10.00
   3   7  14   -3.20    6.60
  -7  13 -14   21.40   11.80
  13  -6 -14   17.70   13.00
  -6  -7 -14   -3.00   11.50
  -6  -7 -14  -18.10   19.40
 -13   6  14    4.90   11.60
   6   7  14  -10.10    7.50
  -6  14 -14   27.20   11.50
  -8  -6 -14    3.40   12.20
  14  -8 -14   38.50   14.70
  14  -8 -14    9.90   10.90
   8   6  14   10.10    8.00
   6 -14  14  -16.20   16.90
 -14   8  14   -9.30   12.00
 -14   8  14   21.10   13.30
   8   6  14   17.00   10.70
  -8  -3 -14  -16.70   18.40
  -3  11 -14   15.10   11.70
  -8  -3 -14    7.80   10.50
  11  -8 -14    2.30   14.60
  -8  -3 -14    2.70    9.50
  -3  11 -14   12.50    7.20
 -11   8  14   18.80   16.10
 -11   8  14  -20.50   17.40
   8   3  14   -0.80    7.00
   8   3  14    7.10    6.30
   3 -11  14   -5.30   10.90
 -11   8  14   10.10   10.20
  -8   0 -14   16.80    8.60
  -8   0 -14  -12.40   18.10
   0   8 -14   19.00   10.90
  -8   0 -14    9.10   10.90
   8  -8 -14  -10.70    8.90
  -8   8  14    7.40   17.30
  -8   8  14    9.60   10.40
   0  -8  14  -11.40   10.30
  -8   8  14    4.60    7.10
   8   0  14    5.10    5.60
   5  -8 -14  -17.20    9.00
   3   5 -14   11.40    7.20
  -8   3 -14   13.40    8.40
   3   5 -14   -8.30   15.30
  -3  -5  14   -0.60    9.20
  -5   8  14  -14.70    7.30
   8  -3  14    2.10    5.40
   8  -3  14   -8.30    5.50
  -3  -5  14  -10.40    7.40
  -5   8  14   12.20    6.70
   6   2 -14   -3.30    8.00
   2  -8 -14   -4.80    8.40
   6   2 -14  -10.80   16.10
   6   2 -14    1.50   10.20
  -8   6 -14    5.90    7.90
   8  -6  14   13.10   12.80
  -2   8  14   -4.80    6.70
  -6  -2  14   -1.80   14.80
  -6  -2  14   -2.70    8.40
  -6  -2  14   -1.00    8.20
   8  -6  14  -15.40    7.00
  -8   9 -14   16.10    7.60
   9  -1 -14   -1.10   17.20
   8  -9  14   13.20    7.30
   8  -9  14    7.40   14.30
   1   8  14   24.40    7.70
  -9   1  14   13.40    8.90
  -4  -8 -14  -21.70   16.10
  12  -4 -14   10.70    8.50
  -4  -8 -14    8.40   11.10
  12  -4 -14    8.10   12.90
 -12   4  14    1.70   11.20
   8 -12  14   19.60    7.00
   4   8  14   16.90    8.20
   4   8  14   -6.30    8.00
  15  -7 -14  -20.10   15.20
  -8  15 -14   16.70   10.20
  -8  15 -14    3.70   11.50
  15  -7 -14   23.00   12.40
  -7  -8 -14   -3.90   23.30
   8 -15  14    0.50   16.60
   7   8  14   -0.70    8.60
   7   8  14  -10.60   11.10
   7   8  14    2.90    9.10
  -7  16 -14    7.00   13.20
  -9  -7 -14   -3.20   20.40
  16  -9 -14    9.20   12.90
  -9  -7 -14    5.40   14.20
  -7  16 -14  -16.30   10.20
   9   7  14    4.30    8.90
   9   7  14    9.00   12.60
   7 -16  14    3.40   16.60
 -16   9  14   23.30   14.30
  -9  -4 -14   17.30    8.90
  13  -9 -14   21.40    9.40
  -4  13 -14    0.20    8.20
  -4  13 -14    4.30   11.20
  -9  -4 -14   13.00   12.10
  13  -9 -14   19.20   14.20
 -13   9  14   -2.20   14.00
   9   4  14   10.60    7.60
   4 -13  14    5.40    5.40
 -13   9  14   -8.30   17.60
   9   4  14    2.10    9.60
   4 -13  14   -4.60   11.70
  10  -9 -14   -6.50    8.40
  10  -9 -14   -8.90   14.50
  -9  -1 -14   -3.40    9.20
  -9  -1 -14   22.70   12.20
  -1  10 -14    3.70    8.00
  -9  -1 -14    7.00   17.30
   1 -10  14    8.20   11.40
   9   1  14   16.50    6.90
 -10   9  14    4.60    7.20
 -10   9  14    2.30   22.60
   9   1  14   15.90    7.30
 -10   9  14   -6.10   10.80
  -9   2 -14   17.00    7.00
   7  -9 -14    3.60    7.70
   2   7 -14   14.20    7.70
  -9   2 -14   -0.30    8.30
   2   7 -14   15.00    7.60
   9  -2  14   -4.30    6.90
  -2  -7  14   -2.70    7.10
  -2  -7  14   18.80   10.30
  -7   9  14    4.30    6.80
  -7   9  14   -4.20   15.30
  -7   9  14   -5.60    8.00
   9  -2  14   20.00    7.10
   5   4 -14   11.30   12.80
   4  -9 -14   -1.40    8.70
  -9   5 -14  -13.60    7.00
  -5  -4  14    1.20    8.30
  -5  -4  14   39.70   20.10
   9  -5  14    3.00    5.90
  -4   9  14   -6.30    6.50
   9  -5  14  -16.50   12.20
  -4   9  14   -5.90    6.80
  -9   8 -14   12.60    8.80
   8   1 -14   16.30   19.50
   1  -9 -14   14.70    9.30
   8   1 -14    1.80    7.70
   8   1 -14  -10.40   12.50
  -9   8 -14    6.60    9.30
   9  -8  14    4.80    6.90
  -1   9  14    0.10    7.70
   9  -8  14    0.10   11.70
  -8  -1  14   16.60    9.80
  -9  11 -14    3.80    9.00
  11  -2 -14   -6.20   17.90
  11  -2 -14   18.90   15.20
  -2  -9 -14    3.40   10.70
   9 -11  14   13.40    7.50
 -11   2  14   14.90   10.10
   2   9  14   -1.50    6.00
   2   9  14   13.10   10.00
   2   9  14  -12.50    7.60
  -9  14 -14   10.60   10.60
  14  -5 -14   28.40   11.00
  14  -5 -14   -2.80   13.30
  -5  -9 -14   25.20   14.50
  -5  -9 -14    0.00   19.50
  -9  14 -14   24.60   13.50
   9 -14  14    4.10    8.70
   5   9  14   12.90    8.10
 -14   5  14   -7.00   10.90
   5   9  14    2.90    7.50
   5   9  14   15.00    9.40
  -8  -9 -14   -3.50   16.40
  -9  17 -14   11.00   13.60
  17  -8 -14  -10.50   15.10
  17  -8 -14    1.00   13.40
  -9  17 -14    2.80   13.30
  -8  -9 -14   -5.60   12.90
 -17   8  14    5.60   13.60
   8   9  14    0.50   10.70
   8   9  14    1.60    7.50
  18 -10 -14   19.20   16.70
  18 -10 -14    5.10   13.30
 -10  -8 -14   -5.70   16.40
 -10  -8 -14   14.40   13.30
  -8  18 -14    7.60   16.10
  10   8  14    8.40   10.20
 -18  10  14   23.20   18.80
 -18  10  14   25.10   15.30
  10   8  14   -6.10   11.20
 -10  -5 -14   -9.10   11.30
  15 -10 -14   -4.30   10.90
 -10  -5 -14   22.70   13.60
  15 -10 -14    9.70   14.40
  -5  15 -14    1.10    9.40
   5 -15  14  -21.40   14.90
  10   5  14   -4.80   10.50
  10   5  14    6.20    8.60
  10   5  14    3.90    8.10
 -15  10  14   10.00   13.90
 -15  10  14  -24.60   14.00
 -10  -2 -14    5.40    9.80
  -2  12 -14   -7.70    7.80
 -10  -2 -14   -3.30   11.60
 -10  -2 -14   -8.50    8.50
  12 -10 -14    7.60    9.00
   2 -12  14   12.00    6.40
 -12  10  14   13.30   20.60
  10   2  14    0.60    6.50
   2 -12  14  -14.10   11.20
 -12  10  14   17.20   14.30
   1   9 -14   -4.20    7.80
 -10   1 -14    6.40    9.50
   9 -10 -14    1.70    8.60
  -9  10  14   -7.00   19.30
  -1  -9  14    8.50   11.10
  -9  10  14    1.40    7.30
  -9  10  14    5.50    9.10
  10  -1  14    2.50    6.20
  10  -1  14   -7.20    6.30
   4   6 -14   14.00   15.10
   4   6 -14   13.80    7.60
   6 -10 -14   27.70    9.90
  10  -4  14   14.00    6.30
  -6  10  14    7.20   13.00
  -6  10  14    7.60    7.70
  -6  10  14  -11.10   13.50
  -4  -6  14   11.00    8.40
  -4  -6  14    2.90    9.20
   7   3 -14    0.70    6.60
 -10   7 -14   -7.10    9.20
   7   3 -14    6.40    9.80
   3 -10 -14  -11.10    8.60
  10  -7  14   -0.80   11.10
  -7  -3  14   -1.00    9.20
  10  -7  14    6.10    6.50
  -7  -3  14    6.10    7.90
  -3  10  14    4.20    7.60
  -3  10  14   11.50    7.60
   0 -10 -14    0.20    9.50
  10   0 -14    2.10    8.20
  10   0 -14  -22.10   14.70
 -10  10 -14    9.30    9.70
  10   0 -14  -13.10   19.10
 -10  10 -14   10.10    9.90
   0  10  14    2.60    7.30
   0  10  14  -11.50    9.30
  10 -10  14    6.60    7.50
  10 -10  14    5.20   10.70
 -10   0  14    9.30   10.10
   0  10  14   -9.60    6.70
  13  -3 -14   13.10   19.80
  -3 -10 -14   -0.10   16.90
  -3 -10 -14   -4.50   12.10
  13  -3 -14  -12.20   14.20
   3  10  14   -1.10    8.50
  10 -13  14   -1.80    8.90
   3  10  14   15.40    8.80
   3  10  14   -4.00    8.10
  -6 -10 -14   -7.50   13.80
 -10  16 -14  -17.70   11.10
  -6 -10 -14    9.30   28.50
  16  -6 -14   19.70   15.90
   6  10  14   15.70    8.30
  10 -16  14    6.30   17.40
   6  10  14   -8.70   10.70
 -16   6  14   13.80   14.30
  -6  17 -14   13.60   11.80
  17 -11 -14   16.30   15.30
 -11  -6 -14   -9.70   14.20
  -6  17 -14   13.10   15.30
  11   6  14   13.00   13.30
 -17  11  14   34.30   15.20
  11   6  14    1.50    7.80
  11   6  14   -7.80   10.50
  14 -11 -14   19.10   11.10
  -3  14 -14   -6.00   12.00
  -3  14 -14    1.20    9.60
 -11  -3 -14   -0.20   13.10
  14 -11 -14  -16.30   14.70
 -11  -3 -14  -10.70    9.60
  11   3  14   -5.20    6.80
   3 -14  14  -12.10    6.90
 -14  11  14    3.20   22.50
   3 -14  14  -15.90   12.40
 -14  11  14    6.20   11.70
   0  11 -14   13.70    8.50
  11 -11 -14    8.30    9.10
 -11   0 -14   17.50   11.90
  11 -11 -14   -5.40   15.50
 -11   0 -14   -1.70    9.40
 -11  11  14  -11.00   25.30
   0 -11  14   -6.90    6.20
  11   0  14    8.70    6.90
 -11  11  14    8.10   11.00
  11   0  14   -5.90    6.60
   8 -11 -14   26.30    9.80
   3   8 -14   17.50    7.30
 -11   3 -14   11.20    9.30
   3   8 -14    2.50    9.20
  11  -3  14    4.30    6.50
  -8  11  14   24.00   18.70
  11  -3  14    9.50    6.10
  -3  -8  14   10.10    9.30
  -3  -8  14    8.80    8.20
  -8  11  14   -2.40    7.60
  -8  11  14    8.70    9.00
   5 -11 -14   10.40    9.50
   6   5 -14   -4.10    8.00
   6   5 -14  -22.80   13.30
 -11   6 -14   -2.20    8.40
  -6  -5  14   -5.30    8.20
  -5  11  14   -3.60    9.30
  -5  11  14   17.70    8.10
  -6  -5  14   -2.70    8.00
  11  -6  14  -12.00    6.10
 -11   9 -14   14.40    9.80
   2 -11 -14   -6.50    9.60
   9   2 -14   29.20   15.30
 -11   9 -14   19.90   10.40
   9   2 -14    1.30   21.40
  -2  11  14   -2.30    8.60
  -2  11  14  -10.20    9.30
  -2  11  14  -10.10    7.50
  11  -9  14   -2.20   10.10
  11  -9  14  -14.50    7.50
  12  -1 -14  -12.60   17.30
 -11  12 -14    6.70    9.50
  12  -1 -14  -28.20   14.30
 -11  12 -14    5.00   10.10
   1  11  14  -10.30    8.20
   1  11  14   14.90    8.30
  11 -12  14    5.10    8.40
   1  11  14   -3.60    8.80
 -12   1  14   -5.20    9.40
  11 -12  14   -0.70   10.20
  -4 -11 -14   28.00   22.90
 -11  15 -14  -18.90   10.80
 -11  15 -14  -17.10   10.70
  -4 -11 -14    7.90   12.60
  15  -4 -14  -13.00   20.90
  15  -4 -14   -9.10   14.70
 -15   4  14  -19.70   11.50
   4  11  14   -7.40    8.50
  11 -15  14   -8.80    9.70
 -11  18 -14    7.40   14.50
 -11  18 -14   33.40   15.60
  18  -7 -14    9.80   17.00
  -7 -11 -14   23.80   18.70
   7  11  14   -2.40    9.90
   7  11  14   -0.60   11.40
  11 -18  14   -1.20    9.10
 -18   7  14   -3.60   15.60
   7  11  14   -4.80    9.30
  16 -12 -14  -15.80   11.90
  -4  16 -14   -9.30   12.60
 -12  -4 -14   -1.30   12.90
  -4  16 -14  -13.80    9.70
 -12  -4 -14   13.90   10.80
 -16  12  14   20.20   13.20
  12   4  14   -7.10    8.00
 -16  12  14   24.40   15.50
  12   4  14  -11.40    8.80
  12   4  14  -24.60   12.00
  12   4  14   -9.70   10.10
 -16  12  14  -12.70   13.10
  13 -12 -14    1.90   15.50
  13 -12 -14  -12.20   11.40
 -12  -1 -14   -2.50    9.10
  -1  13 -14    6.00    7.90
 -12  -1 -14   16.20   13.10
 -13  12  14  -13.60   14.20
   1 -13  14    8.90    9.80
 -13  12  14   -8.50   12.00
 -13  12  14   18.30   13.10
   1 -13  14    1.00    7.30
  12   1  14  -10.90    7.20
 -12   2 -14   -1.20    9.30
 -12   2 -14   -2.80    9.50
   2  10 -14    4.90    8.30
 -12   2 -14  -18.80   11.40
   2  10 -14   18.30   10.20
  10 -12 -14   -2.20    9.60
  -2 -10  14    1.70    7.10
  12  -2  14   -1.90    7.20
 -10  12  14   10.30    8.10
  -2 -10  14    5.70   11.70
 -10  12  14   -9.10   10.40
 -10  12  14  -15.40   24.10
  12  -2  14    4.10    6.20
 -10  12  14  -10.40    9.90
 -12   5 -14   21.10   10.30
 -12   5 -14  -13.00    9.30
   7 -12 -14  -10.20    8.70
   5   7 -14   14.60   19.20
   5   7 -14    5.80    8.20
  -7  12  14    2.30   20.40
  -5  -7  14    2.40    8.90
  -7  12  14   22.80    8.90
  -7  12  14  -15.00   17.20
  12  -5  14    4.50    7.50
  -7  12  14   25.80   10.70
  12  -5  14    7.60    5.30
  -5  -7  14    0.10    8.70
  -7  12  14   23.80    8.70
   4 -12 -14   -4.80    9.20
 -12   8 -14   -3.10    8.50
   8   4 -14   -7.30   10.80
  12  -8  14    7.10   10.40
  -8  -4  14   -0.50    8.60
  -4  12  14    5.70    7.10
  -4  12  14  -10.80    8.70
   1 -12 -14  -19.30   10.20
  11   1 -14   11.80   17.90
 -12  11 -14   -8.30    9.80
  11   1 -14  -11.90    8.80
 -12  11 -14    6.90    9.80
  11   1 -14   -3.90   18.50
  12 -11  14   11.50    9.70
  -1  12  14    2.70    8.40
 -11  -1  14   -5.80   10.40
  -1  12  14   -5.00    8.80
  12 -11  14  -15.10    7.30
  -1  12  14  -19.30    9.00
 -12  14 -14    2.80   10.50
  14  -2 -14    8.20   15.90
  -2 -12 -14   19.20   12.80
  14  -2 -14   -8.20   17.50
 -14   2  14    1.60   10.90
   2  12  14   -3.00    9.70
   2  12  14   16.40    9.50
  17  -5 -14   10.40   21.30
  -5 -12 -14    1.40   15.20
   5  12  14   -9.20   10.40
   5  12  14   -1.90   11.00
  12 -17  14   -4.50    8.00
  18 -13 -14   -8.40   14.60
 -13  -5 -14    2.80   15.10
 -13  -5 -14   25.90   12.20
  13   5  14  -18.20    9.50
 -18  13  14   18.40   16.00
 -18  13  14  -14.90   16.20
  13   5  14   -4.60   11.10
  15 -13 -14  -16.20   10.40
 -13  -2 -14    4.80   13.50
 -13  -2 -14    8.10   10.50
 -13  -2 -14    1.40   12.90
  -2  15 -14  -14.20   13.70
 -15  13  14   -2.10   11.50
   2 -15  14   -9.10   15.30
  13   2  14  -18.80    8.80
 -15  13  14   -4.20   14.10
 -15  13  14   -9.40   13.60
 -15  13  14    2.50   12.50
  13   2  14   -2.80    8.10
   2 -15  14   -7.00    7.30
  13   2  14   -0.80   12.50
  13   2  14    5.80    7.40
  12 -13 -14    7.30   16.00
 -13   1 -14    7.50   11.50
   1  12 -14  -10.80   10.70
 -13   1 -14   29.90   13.10
   1  12 -14   -5.80    9.40
  13  -1  14    2.70    8.30
 -12  13  14   -2.10   14.80
 -12  13  14    3.20   10.70
 -12  13  14   19.40   11.90
 -12  13  14   -3.10    8.60
  -1 -12  14    5.10    6.60
 -13   4 -14   -8.60    8.60
 -13   4 -14    9.10    8.40
   4   9 -14    2.30    7.90
  -4  -9  14   22.50   11.20
  -9  13  14   -7.40   10.20
  -4  -9  14    6.90    8.00
  -9  13  14   -4.20    9.00
  -9  13  14  -21.90   21.60
  13  -4  14    5.90    7.10
  13  -4  14   12.10    6.90
   7   6 -14    4.50   14.00
   6 -13 -14   -4.50   10.50
 -13   7 -14   -3.40    9.50
   7   6 -14   -7.60    8.60
  -6  13  14   20.70    9.60
  13  -7  14   -9.20   12.70
  -6  13  14  -17.80    9.30
  -7  -6  14   11.90   10.20
  -7  -6  14    2.40    9.10
  13  -7  14   -2.60    7.30
  -6  13  14  -20.10   17.50
 -13  10 -14  -20.70   10.20
 -13  10 -14   15.50    9.70
  10   3 -14    5.00    7.70
   3 -13 -14   12.30    9.00
  10   3 -14  -28.70   18.50
  10   3 -14   -7.50   22.80
  -3  13  14    4.60    8.50
  13 -10  14   -7.60    6.70
  -3  13  14  -13.60    7.90
 -10  -3  14   -5.20    8.10
  13 -10  14   -5.20    9.00
  13   0 -14   12.90   16.60
 -13  13 -14    6.70   11.00
 -13  13 -14   -5.00   10.90
  13   0 -14   21.00    9.80
  13 -13  14   21.10    8.30
   0  13  14   13.80    9.60
 -13   0  14   16.90   11.10
   0  13  14   22.70    8.70
  16  -3 -14  -36.50   16.70
 -13  16 -14  -16.40   11.90
 -13  16 -14   14.10   12.30
   3  13  14   -8.80   10.30
  13 -16  14   -9.10    7.40
 -16   3  14   19.70   12.00
   3  13  14  -14.80    8.70
  -3  17 -14  -14.40   14.90
  17 -14 -14  -24.60   12.70
  17 -14 -14  -35.80   18.40
 -14  -3 -14  -19.40   13.60
 -17  14  14  -17.40   13.50
   3 -17  14   25.90   15.10
 -17  14  14   -6.50   12.90
  14   3  14    2.40   11.60
  14   3  14   -0.60    8.90
 -17  14  14   12.90   15.80
  14 -14 -14  -10.40   16.30
 -14   0 -14   14.70    9.70
  14 -14 -14   22.30   10.90
   0  14 -14    6.00    9.90
 -14   0 -14   -7.80   12.30
   0  14 -14    0.70   12.10
  14   0  14   18.90   13.30
 -14  14  14   10.00   11.40
  14   0  14   -1.20    7.20
  14   0  14   -0.10    7.10
 -14  14  14   -8.20   11.10
 -14  14  14    0.40   13.80
 -14  14  14   31.90   16.20
   0 -14  14   -9.80    7.40
   0 -14  14   -7.80   11.70
  14   0  14  -11.20    8.80
 -14   3 -14   -7.20   10.30
 -14   3 -14   -4.20   13.70
 -14   3 -14   10.70   11.40
  11 -14 -14    7.30   12.10
   3  11 -14   -8.50    8.40
   3  11 -14    8.80   10.60
  14  -3  14    5.90    6.50
 -11  14  14    6.40   10.30
 -11  14  14    6.50   11.60
 -11  14  14   15.90   28.80
  -3 -11  14  -14.50   11.80
  14  -3  14    6.20    7.40
 -11  14  14   32.50   11.70
   6   8 -14  -10.80    9.00
   8 -14 -14    1.60   10.40
  -8  14  14   -9.40    8.60
  -8  14  14   -5.00    9.50
  14  -6  14   -4.00    6.50
  -8  14  14   -5.00   22.20
  -8  14  14  -13.30   10.10
  -6  -8  14   -2.00    9.20
   9   5 -14   15.90   10.50
   9   5 -14   10.60    8.70
   5 -14 -14  -10.80   10.80
  -5  14  14  -32.60   20.60
  14  -9  14   10.40   11.00
  -5  14  14   15.80    9.10
  -5  14  14    0.00    9.00
  14  -9  14    5.30    7.50
  -9  -5  14   -7.30    9.40
  -5  14  14    7.30   10.20
  12   2 -14   -4.80   17.00
  12   2 -14   -3.80    9.90
   2 -14 -14   18.90   11.60
 -14  12 -14   -5.70   10.60
 -14  12 -14    1.00   10.20
  14 -12  14  -15.40    8.10
  -2  14  14    3.80    9.40
 -12  -2  14   20.30   12.70
 -14  15 -14    2.90   12.60
  -1 -14 -14  -15.00   14.20
 -14  15 -14    6.00   11.60
  15  -1 -14  -36.30   19.30
   1  14  14   -8.30    9.40
 -15   1  14   -4.30   12.10
  14 -15  14    3.10    7.80
   1  14  14  -12.90   10.10
 -15  -1 -14   -8.70   13.70
  -1  16 -14   -8.90   11.20
  16 -15 -14    7.20   12.20
  -1  16 -14   12.60   12.90
  16 -15 -14  -29.30   17.70
 -15  -1 -14  -20.90    9.90
 -15  -1 -14  -10.60   13.80
  15   1  14   17.80    9.10
 -16  15  14   15.80   16.20
   1 -16  14    3.80    6.70
   1 -16  14  -19.90   14.40
  15   1  14  -12.00   10.50
 -16  15  14   -9.10   12.50
 -16  15  14  -19.20   13.10
  13 -15 -14  -11.00   10.90
 -15   2 -14  -14.80   13.00
  13 -15 -14   13.10   16.60
 -15   2 -14    6.60   10.70
 -15   2 -14   22.80   13.20
  15  -2  14   12.60    8.90
  15  -2  14    5.60    7.70
  15  -2  14    9.10    7.40
 -13  15  14   25.10   15.60
 -13  15  14   27.80   12.50
 -13  15  14   15.70   11.40
  -2 -13  14   -5.20   13.90
  -2 -13  14    3.10    7.50
   5  10 -14   14.20    9.40
 -15   5 -14   -9.60    9.70
   5  10 -14   14.00   11.70
  10 -15 -14   10.30   10.30
 -10  15  14  -12.40   10.20
  -5 -10  14  -15.60   11.00
 -10  15  14   -8.60   10.70
  15  -5  14    2.50    6.70
  15  -5  14   -3.20    6.80
  -5 -10  14    5.40    9.50
 -10  15  14    1.00   28.50
  15  -5  14    6.20    7.60
 -15   8 -14  -26.30   13.20
 -15   8 -14   -1.80   10.90
   7 -15 -14   10.80   11.80
   8   7 -14    2.90   16.70
  -7  15  14    8.10   10.20
  15  -8  14    2.90    8.10
  -7  15  14   -2.60    9.10
  -8  -7  14   15.30    9.20
  15  -8  14   -2.20   12.80
  -7  15  14    5.40   25.00
  -7  15  14   -7.70   10.00
 -15  11 -14    4.20   12.40
  11   4 -14   12.70    8.70
  11   4 -14   22.00   22.30
  11   4 -14   10.60   23.10
  -4  15  14   10.30    9.40
  -4  15  14    1.50    9.20
 -11  -4  14   11.70   10.20
  -4  15  14   -8.40    8.70
  15 -11  14   -0.40    7.00
  14   1 -14  -10.40   21.50
 -15  14 -14    3.20   12.50
  14   1 -14   18.00   10.10
 -15  14 -14   -7.30   11.30
  -1  15  14    1.90   10.00
  15 -14  14   18.30    9.80
  15 -14  14   12.20    7.90
  -1  15  14    0.40    9.00
  -1  15  14   -3.50    9.00
 -15  17 -14   21.80   12.60
  -2 -15 -14    5.70   16.80
   2  15  14    8.00    9.80
  15 -17  14   15.20    9.50
  15 -16 -14  -11.00   11.30
   1  15 -14   -1.00   14.10
 -16   1 -14   12.00   15.20
 -16   1 -14  -11.70   13.60
 -15  16  14    6.60   12.60
  16  -1  14   -1.70    8.10
  16  -1  14   22.00   12.70
  16  -1  14    3.30    9.20
 -15  16  14   10.00   10.30
 -15  16  14  -16.30   11.90
  16  -1  14    6.60    7.90
 -15  16  14  -17.10   18.90
 -16   4 -14   18.10   13.80
   4  12 -14   -9.20   13.00
  12 -16 -14  -10.40   11.90
 -16   4 -14   21.40   12.70
   4  12 -14   12.90   10.90
  16  -4  14    8.20    7.50
  -4 -12  14   -2.30   13.30
 -12  16  14   16.50   11.50
  16  -4  14   14.40    8.30
 -12  16  14   12.40   12.50
  16  -4  14    1.10    6.70
 -12  16  14   40.60   18.50
 -12  16  14   -8.90   13.00
   7   9 -14   -5.30   11.10
   9 -16 -14   19.90   12.90
 -16   7 -14   16.90   11.10
 -16   7 -14  -19.40   13.40
   7   9 -14    8.00    9.50
  -7  -9  14  -17.60   10.20
  16  -7  14   -0.90    7.60
  16  -7  14    6.40    7.20
  -9  16  14   17.10   10.40
  -7  -9  14   -7.30   11.20
  -9  16  14   26.00   11.80
  -9  16  14   -6.80   29.70
   6 -16 -14    6.50   12.80
 -16  10 -14   -6.60   10.00
  10   6 -14   -1.60    9.20
  -6  16  14   11.70   10.30
  16 -10  14    8.10    8.40
  -6  16  14  -12.50   10.40
  -6  16  14   10.00    9.30
  16 -10  14   -5.40    7.00
   3 -16 -14   -0.80   14.00
  13   3 -14   22.60   23.20
 -16  13 -14    9.00   13.10
  13   3 -14  -11.80    9.80
 -16  13 -14   13.70   11.30
 -13  -3  14    3.90   13.80
  -3  16  14   -0.80   10.30
  16 -13  14    7.40    9.40
  -3  16  14   14.80   10.80
  -3  16  14   -0.10    9.50
  16 -13  14    9.40    7.70
 -16  16 -14    8.30   13.80
  16   0 -14  -16.50   23.20
   0 -16 -14   29.40   17.00
  16 -16  14  -11.60    8.20
   0  16  14   -7.30   10.50
  16 -16  14  -20.40    9.90
   3  14 -14    6.10   10.80
  14 -17 -14   -2.50   12.20
  14 -17 -14  -29.70   18.10
 -17   3 -14  -22.50   14.20
 -17   3 -14   -6.20   13.60
   3  14 -14    1.00   13.60
 -17   3 -14   10.60   11.80
 -14  17  14   14.00   11.80
  -3 -14  14   -8.60    9.30
 -14  17  14  -20.30   12.60
  -3 -14  14   -8.50   15.50
 -14  17  14  -17.50    9.90
 -14  17  14   22.90   13.50
  11 -17 -14    1.70   11.50
   6  11 -14  -10.40   11.50
   6  11 -14   -8.80   12.00
   6  11 -14  -15.50    9.90
 -11  17  14   -0.20   15.80
  17  -6  14    0.20    8.20
  17  -6  14  -10.40    7.80
 -11  17  14   -9.90   11.40
 -11  17  14   -4.30   10.20
 -11  17  14   -5.60   11.50
  -6 -11  14   -4.00   12.00
  17  -6  14  -12.30    6.20
   9   8 -14  -14.80    9.20
 -17   9 -14   -2.00   12.70
 -17   9 -14    0.40   12.60
   8 -17 -14   20.50   12.30
  -8  17  14    3.10   11.20
  -9  -8  14   10.60   11.50
  -8  17  14  -15.50    9.50
  -8  17  14    7.90   11.30
   5 -17 -14  -13.60   13.70
  12   5 -14    5.90   25.40
 -17  12 -14    2.80   14.50
  12   5 -14    0.20   10.90
  -5  17  14   21.70   11.70
  17 -12  14    9.50    7.10
  17 -12  14   25.40    9.20
 -12  -5  14    1.80   10.10
  -5  17  14   14.70    9.30
  15   2 -14  -31.10   25.60
   2 -17 -14  -10.30   13.90
 -17  15 -14   -4.40   14.00
  17 -15  14    0.00   10.50
 -15  -2  14   22.60   15.40
  -2  17  14  -25.30   19.40
   5  13 -14   19.60   11.30
 -18   5 -14   16.90   14.70
  13 -18 -14  -13.70   15.10
 -18   5 -14   27.60   13.90
 -13  18  14   -1.40   10.50
 -13  18  14   -0.60   13.80
 -13  18  14    2.20   12.00
  -5 -13  14   24.80   16.00
  18  -5  14    4.60    8.60
  18  -5  14  -14.00    8.10
  -5 -13  14    5.70   11.10
  18  -5  14    0.20    8.50
  10 -18 -14   14.20   13.70
 -18   8 -14   10.70   12.20
   8  10 -14    1.40   11.60
  -8 -10  14   -1.20   11.80
  18  -8  14   12.70    8.80
  18  -8  14   17.00    6.60
  -8 -10  14    5.60   12.20
 -10  18  14   22.50   12.10
 -10  18  14  -12.30   12.20
 -10  18  14    3.40   17.80
 -10  18  14   10.00   13.20
 -18  11 -14   -2.90   13.50
  11   7 -14  -20.90   11.30
 -18  11 -14  -20.80   14.20
   7 -18 -14   -8.80   14.50
  18 -11  14   -3.70    8.80
 -11  -7  14    2.10   11.30
  -7  18  14   -7.70   13.20
  -7  18  14   -3.50   11.90
  18 -11  14    0.80    7.00
 -14  -4  14    9.50   12.10
   0   0 -15   10.50   12.30
   0   0 -15   18.00    9.50
   0   0 -15   15.70   13.40
  -1  -1 -15   -2.70   12.30
   2  -1 -15   15.30   12.40
  -1   2 -15   32.00   17.00
  -1   2 -15   -9.00    6.70
  -1  -1 -15  -10.70    7.40
  -1  -1 -15   18.90    9.10
   2  -1 -15   18.20   14.60
  -1   2 -15   13.50    5.30
   1   1  15   -3.50    7.80
   1  -2  15  -26.30   17.90
   1  -2  15    4.20    5.70
   1   1  15    5.70    5.60
  -2   1  15    4.50   16.40
   1   1 -15   -1.50    6.70
   1  -2 -15   16.10    9.20
   1  -2 -15  -12.50   12.60
   1   1 -15    4.00   15.80
  -2   1 -15   11.00    7.30
   1  -2 -15   13.90   10.30
   1   1 -15  -20.30   16.40
  -1   2  15    0.00    5.80
   2  -1  15    2.90    5.20
  -1   2  15   -4.70    8.10
   2  -1  15    3.30    8.60
  -1  -1  15    2.10   19.90
  -1  -1  15   -0.60    6.10
   4  -2 -15   -9.80    9.20
  -2  -2 -15   17.60    9.50
  -2   4 -15   -5.30    6.20
  -2  -2 -15   -6.40   10.40
  -2   4 -15  -11.70    8.30
   4  -2 -15   19.10   13.00
   4  -2 -15   -4.30   13.30
  -4   2  15   -0.60    6.50
   2   2  15   -3.20    7.30
   2  -4  15   -1.70    5.00
   2   2  15    6.60    6.00
  -4   2  15   20.00   15.20
  -4   2  15   19.30   19.60
   3  -3 -15   10.60   11.60
  -3   0 -15   13.50   12.00
   0   3 -15    3.50    5.90
   3  -3 -15  -10.80   15.10
   0   3 -15   -3.60   12.70
   3  -3 -15   -5.90    9.30
  -3   0 -15   -4.80    8.00
  -3   3  15    3.70    6.60
   0  -3  15   -0.30    5.90
  -3   3  15   10.90   14.10
   3   0  15   12.90    7.50
   3   0  15   -0.80    5.50
   0  -3  15    1.20   21.70
   3   0 -15   27.00   13.30
  -3   3 -15   -6.50   18.60
  -3   3 -15  -13.60    6.70
   0  -3 -15   -7.60    9.00
  -3   3 -15   17.30    8.30
   0  -3 -15   15.20    8.70
   3   0 -15    3.40    8.90
   3   0 -15  -15.70   17.00
  -3   0  15   -2.40    5.90
  -3   0  15   19.20   17.70
  -3   0  15   -8.80   22.80
   0   3  15   10.20    6.50
   0   3  15  -10.90    6.70
  -3  -3 -15    9.50    9.10
  -3  -3 -15   -4.20    9.90
   6  -3 -15   15.50   19.90
  -3   6 -15    9.70    7.90
  -6   3  15   38.60   16.40
   3  -6  15   16.90    5.60
  -6   3  15    8.80   15.70
  -1   5 -15  -10.00    7.50
  -1   5 -15   -7.90    6.10
  -4  -1 -15   -3.30   10.60
  -4  -1 -15   -4.60   14.90
  -4  -1 -15   11.00   12.90
   5  -4 -15  -14.40   14.40
   5  -4 -15    9.10    9.20
   4   1  15    0.30    5.50
   1  -5  15    3.00    6.80
  -5   4  15  -11.60   14.70
  -5   4  15    1.90    6.60
   2   2 -15   18.40   13.40
   2  -4 -15   15.00    9.90
  -4   2 -15   -1.70    7.60
  -2  -2  15   11.60    6.30
  -2   4  15   20.30    6.30
   4  -2  15   10.90    6.00
  -2  -2  15  -17.40   20.00
  -1  -4 -15   19.10    7.90
   5  -1 -15   12.60   12.70
  -4   5 -15   20.70    6.90
  -5   1  15    6.50    5.70
  -5   1  15   17.60   17.10
  -5   1  15   15.10   15.80
   4  -5  15   18.60    6.20
   1   4  15   32.30    7.30
  -4  -4 -15    8.30    8.90
  -4  -4 -15   26.80   10.60
  -4  -4 -15    0.60   10.80
   8  -4 -15  -13.60    9.30
  -4   8 -15    7.40    8.90
  -4   8 -15    5.00    7.40
  -8   4  15   26.90   20.10
   4   4  15    2.90    5.90
   4  -8  15    5.50    5.50
  -8   4  15   -2.20   14.90
  -5  -2 -15    4.80    7.90
  -2   7 -15   -3.70    8.50
   7  -5 -15    6.40   19.30
   7  -5 -15   14.30    9.70
  -2   7 -15   11.80    6.70
  -5  -2 -15  -16.20   10.20
  -5  -2 -15   -1.30   14.80
  -7   5  15  -12.20    6.90
  -7   5  15   34.80   20.10
  -7   5  15    2.50   16.40
   2  -7  15   -5.80    5.80
   5   2  15  -14.40    6.70
   5   2  15   -2.10    5.70
   2  -7  15    7.00    9.90
   1   4 -15    0.40   15.40
   4  -5 -15   -5.80    8.50
  -5   1 -15  -11.60   16.80
  -1  -4  15    3.00    5.90
  -4   5  15   10.70   12.80
  -4   5  15    8.80    9.80
   5  -1  15   12.40    7.80
   4   1 -15   10.40   10.60
   4   1 -15   16.70    6.50
   1  -5 -15   14.00    7.70
  -5   4 -15   12.90    7.50
  -5   4 -15   15.50    7.30
   4   1 -15   21.20   13.10
  -1   5  15   14.50    5.70
  -4  -1  15   -8.40   17.30
   5  -4  15   21.30    6.70
  -4  -1  15   22.10    6.40
  -4  -1  15   35.30   19.10
  -5   7 -15   -6.70    8.30
  -2  -5 -15    1.40    9.10
   7  -2 -15    6.60   10.60
  -5   7 -15    4.00    7.60
   2   5  15    8.70    7.10
   2   5  15   12.40    7.00
  -7   2  15   -3.20   14.70
  -7   2  15   14.70   22.20
   5  -7  15   -2.40    5.90
  10  -5 -15    7.30    9.30
  -5  10 -15  -11.20    8.20
  -5  -5 -15   -8.20    9.20
  -5  -5 -15   -4.30   15.00
 -10   5  15    8.70   13.80
   5   5  15    2.60    6.20
   5   5  15   -4.60    6.80
   5 -10  15   12.60    6.40
 -10   5  15  -13.90    8.90
   9  -6 -15   -4.00    9.90
  -6  -3 -15    3.70    9.90
   9  -6 -15  -14.70   12.60
  -6  -3 -15    5.60   16.20
  -9   6  15   -9.30   17.10
   6   3  15   -2.30    7.20
  -9   6  15  -17.00   20.60
  -9   6  15   13.40    7.60
   3  -9  15  -14.80   10.60
   3  -9  15   -2.30    5.70
   6   3  15    0.40    7.30
  -6   0 -15    4.60   16.60
   6  -6 -15   -3.60    7.50
  -6   0 -15   -8.00    9.80
   0   6 -15   -1.20    8.30
   0  -6  15    0.40   11.90
  -6   6  15    2.80   14.10
   6   0  15   -4.00    5.70
   6   0  15    0.50    7.40
   3  -6 -15  -10.40    8.60
   3   3 -15    3.20    6.30
  -6   3 -15   -6.00    7.40
   3   3 -15    0.80   13.50
  -3   6  15   -2.60    5.60
   6  -3  15   -1.40    5.20
  -3   6  15    2.80    7.40
  -3  -3  15   -1.10    6.00
  -3  -3  15    8.60    8.70
   6  -3  15   -5.40    6.90
  -6   6 -15   -8.70    7.20
   6   0 -15   -8.40   10.70
   0  -6 -15    4.00    7.80
  -6   6 -15   -9.80    6.50
   6   0 -15    4.30    8.20
   6   0 -15    7.10   10.00
   0   6  15   -0.90    5.80
   0   6  15   -9.10    6.80
   6  -6  15    6.80   14.40
  -6   0  15   18.70    7.80
  -6   0  15  -11.40    7.30
  -6   0  15  -10.20   14.70
   6  -6  15    8.20    6.20
  -3  -6 -15   22.40    9.00
  -6   9 -15   -8.40    8.50
  -6   9 -15   -5.00    7.10
   9  -3 -15    2.80    8.60
   9  -3 -15   16.40   13.20
  -9   3  15   16.70    8.70
   3   6  15    5.80    6.90
  -9   3  15   -3.20   10.80
   6  -9  15    5.30    6.90
  -9   3  15   15.10   12.30
  -6  12 -15    5.50   10.50
  -6  -6 -15    0.90   18.20
  12  -6 -15    3.60   14.30
  12  -6 -15    3.50    8.50
 -12   6  15   15.20   11.40
 -12   6  15   11.50   12.60
   6   6  15   13.50    7.20
   6 -12  15   12.70    7.20
  -4  11 -15   -1.10   11.20
  11  -7 -15    3.10   15.40
  -4  11 -15   -4.50    7.90
  -7  -4 -15   19.90   11.10
  11  -7 -15    7.20    9.00
  -7  -4 -15   10.50    9.60
 -11   7  15   10.20   15.00
   4 -11  15    6.50    5.40
   4 -11  15    1.00   11.10
 -11   7  15  -10.70   18.20
   7   4  15   -2.90    7.00
   8  -7 -15    0.20    8.00
  -7  -1 -15   11.90   10.40
  -7  -1 -15   -1.40   17.70
  -1   8 -15    7.40    8.70
  -8   7  15   14.20   17.50
   5  -7 -15    4.20    7.40
  -7   2 -15   24.30    7.90
   2   5 -15   -6.50   16.30
   2   5 -15   17.00    5.90
  -2  -5  15   10.00    7.40
   7  -2  15   14.60    7.00
   7  -2  15   -7.60    7.10
  -2  -5  15    5.00   11.00
  -5   7  15    8.20    8.60
   5   2 -15   23.50   12.70
   2  -7 -15   -1.70    8.20
   5   2 -15   -7.10    6.90
  -7   5 -15    9.20    7.20
   5   2 -15   12.70    9.80
   7  -5  15    2.70   10.70
  -2   7  15    3.30    6.70
  -2   7  15   -3.60    6.70
  -5  -2  15  -10.60    8.10
  -5  -2  15    7.10   17.00
  -5  -2  15   23.30    9.90
  -7   8 -15   -3.30    8.10
  -1  -7 -15  -13.30    8.80
   8  -1 -15   -9.80    9.50
  -7   8 -15   11.70    9.90
   7  -8  15    1.40    6.10
  -8   1  15    2.10   12.10
  -8   1  15  -20.50   11.80
   1   7  15    5.00    7.60
  -8   1  15   -3.30    9.30
   1   7  15   -9.50    6.60
  11  -4 -15   10.00    9.30
  -7  11 -15   15.20    8.60
  -7  11 -15   23.20    9.50
  -4  -7 -15   19.90   10.90
   4   7  15   10.90    7.50
   4   7  15    2.40    8.00
 -11   4  15   26.30   11.00
 -11   4  15    6.30   10.70
  14  -7 -15  -11.70   10.60
  -7  -7 -15   20.70   23.50
  14  -7 -15    3.50   15.10
  -7  -7 -15   11.50   13.90
   7 -14  15    1.90    8.30
   7   7  15    2.80    7.60
   7   7  15  -14.70    8.40
   7   7  15   -8.50   10.70
 -14   7  15  -13.50   13.10
  -5  13 -15    4.50    8.60
  13  -8 -15  -25.10   13.60
  -8  -5 -15   -3.70   20.40
  -5  13 -15   -2.40   11.50
  13  -8 -15   19.70   10.30
  -8  -5 -15    6.90   12.00
 -13   8  15   -7.40   11.30
   5 -13  15   15.00    7.10
   8   5  15   -3.00    6.60
 -13   8  15   22.40   16.70
  10  -8 -15   14.90    9.60
  -2  10 -15    3.50    9.90
  -8  -2 -15   11.50   18.90
  -8  -2 -15   24.90    8.80
  10  -8 -15   40.00   14.60
  -8  -2 -15  -11.00   12.20
 -10   8  15    6.70    8.20
   8   2  15    5.00    6.70
   2 -10  15   13.30    6.70
 -10   8  15    6.30   23.70
   2 -10  15  -12.60   11.00
   1   7 -15    0.00    8.10
  -8   1 -15   -4.40   20.60
   1   7 -15    0.30    7.20
  -8   1 -15    0.30    8.30
  -8   1 -15   18.70   10.50
   7  -8 -15   17.60    9.10
  -7   8  15    9.80    9.70
   8  -1  15  -10.80    6.40
  -7   8  15    9.40   14.90
  -1  -7  15    8.70    7.30
   8  -1  15    3.40    6.00
  -1  -7  15   25.00   11.30
   4   4 -15   16.20    6.50
   4  -8 -15   12.50    8.40
   4   4 -15   -2.20   13.50
  -8   4 -15    5.80    7.20
  -4  -4  15   -8.40    9.10
  -4   8  15    7.20    6.70
  -4  -4  15   -5.30   32.30
   7   1 -15  -16.70    9.30
   7   1 -15   -3.60    9.50
  -8   7 -15    7.30    7.70
   1  -8 -15   15.70    8.80
  -8   7 -15   -6.10    8.50
   7   1 -15   -1.10    7.00
  -1   8  15   -7.00    6.90
  -7  -1  15   17.50   14.70
  -1   8  15   -0.30    6.70
  -7  -1  15   -1.40    8.50
   8  -7  15    9.60    6.50
   8  -7  15   -1.10   13.50
  -7  -1  15   16.60    9.70
  10  -2 -15    0.80    8.80
  -8  10 -15   -9.70    9.90
  -8  10 -15   10.90    8.80
  -2  -8 -15   -5.70    8.90
 -10   2  15   19.10   10.50
   2   8  15    3.50    8.30
   8 -10  15   16.40    7.40
   2   8  15   19.20    7.10
 -10   2  15    5.60    9.70
  -5  -8 -15  -22.70   16.80
  13  -5 -15   -9.30   14.30
  -8  13 -15  -10.80   10.20
  13  -5 -15   13.30   10.10
  -8  13 -15   18.50   10.10
 -13   5  15   -9.50   12.10
 -13   5  15    4.70   11.90
   5   8  15   -1.80    7.40
   5   8  15   -7.00    9.10
  16  -8 -15   30.30   16.30
  -8  16 -15   -6.20   11.40
  16  -8 -15   18.50   12.30
  -8  16 -15    9.20   14.70
   8   8  15    7.00    8.60
   8   8  15   22.20   10.00
   8   8  15    8.70   11.80
 -16   8  15   -7.50   15.80
  15  -9 -15    5.20   11.00
  -6  15 -15   -8.70   11.40
  -6  15 -15  -10.10   10.60
  15  -9 -15    7.70   16.20
  -9  -6 -15   -3.50   14.20
  -9  -6 -15   -7.20   14.20
   9   6  15    3.10    8.30
 -15   9  15   11.00   13.60
   9   6  15   10.90   11.30
   6 -15  15    0.40    7.60
   9   6  15   14.30    9.10
  12  -9 -15    9.00    9.90
  -3  12 -15   32.40   12.40
  12  -9 -15   -4.60   14.50
  -9  -3 -15   25.50   11.30
  -3  12 -15   11.90    8.10
  -9  -3 -15   -2.60    9.90
  -9  -3 -15   51.29   22.00
 -12   9  15   11.30   17.70
 -12   9  15  -11.40    9.30
   9   3  15    5.10    8.20
   3 -12  15   -2.80   12.00
   3 -12  15   11.00    6.40
 -12   9  15   29.50   15.40
  -9   0 -15  -15.90   11.90
  -9   0 -15    7.00   20.70
   9  -9 -15   13.10    8.30
   0   9 -15   -5.60    9.70
  -9   0 -15  -16.80    9.00
  -9   9  15   17.80   11.00
   9   0  15   -3.50    6.70
   0  -9  15  -20.70   12.00
  -9   9  15   -2.30   19.00
   0  -9  15  -11.30    6.40
   3   6 -15   29.40   17.40
   6  -9 -15   33.30   10.00
   9  -3  15   28.90    6.50
  -3  -6  15   42.50   10.30
  -9   6 -15   18.00    8.60
   6   3 -15   14.10   12.00
   3  -9 -15   12.20    9.60
   9  -6  15   25.50   13.10
  -6  -3  15    7.10    8.90
   9  -6  15   -2.90    6.50
  -6  -3  15   -6.30   19.30
  -3   9  15    3.20    7.30
  -9   9 -15   -0.20    8.30
   9   0 -15   15.30    8.50
   0  -9 -15    9.50    9.70
   9   0 -15   13.10   13.90
   9  -9  15   -9.80   12.20
   9  -9  15   10.10    6.60
  -9   0  15   16.60   10.90
  -3  -9 -15    2.10   11.40
  -9  12 -15    7.40    8.80
   3   9  15   -3.30    8.60
   3   9  15  -11.50    8.60
 -12   3  15    9.60   11.00
   9 -12  15   19.60    8.00
 -12   3  15  -18.60   11.50
  15  -6 -15  -16.00   14.30
  -9  15 -15   10.30   11.40
  15  -6 -15   27.70   11.90
  -6  -9 -15   -2.90   14.40
  -6  -9 -15   -9.30   21.10
  -9  15 -15   29.10   12.20
 -15   6  15   25.30   13.60
   6   9  15    8.20   10.30
   6   9  15   -6.90    8.40
   9 -15  15    2.80    9.40
   6   9  15   10.00    9.90
  -9  18 -15   -5.20   15.20
  -9  -9 -15    3.80   16.20
  18  -9 -15    7.20   17.80
 -18   9  15   33.90   18.60
   9   9  15   -3.20   10.70
   9   9  15    9.20   10.90
 -18   9  15   17.80   15.10
   9   9  15   12.00   10.20
  17 -10 -15   -0.30   13.60
  17 -10 -15   38.40   25.20
  -7  17 -15   11.80   14.50
 -10  -7 -15    3.50   15.70
  10   7  15   24.80    8.90
  10   7  15    8.90   10.00
 -17  10  15   -2.40   15.00
  -4  14 -15    2.70   11.60
 -10  -4 -15   -1.30   13.00
  14 -10 -15   -7.40   10.20
 -10  -4 -15   -7.10   11.70
   4 -14  15   22.50   12.90
 -14  10  15   -2.90   13.20
  10   4  15    6.40   11.70
 -14  10  15  -12.00   12.00
 -14  10  15    8.10   21.00
  10   4  15  -10.60    6.90
 -10  -1 -15   -8.40   10.80
  11 -10 -15    7.50   14.50
  11 -10 -15   -5.00    9.80
  -1  11 -15   12.10    8.70
 -10  -1 -15   15.80   13.40
 -10  -1 -15    9.20    8.60
 -11  10  15   -7.10    8.60
 -11  10  15  -11.60   11.90
   1 -11  15   -1.50   11.20
 -11  10  15    0.90   26.10
   1 -11  15    4.50    6.00
  10   1  15   -2.60    7.40
  10   1  15   13.80    7.50
 -10   2 -15    4.30    9.00
 -10   2 -15   20.70   12.80
   2   8 -15    7.50    7.90
 -10   2 -15    2.00    9.80
   8 -10 -15   -0.70   10.30
  -8  10  15   -1.50    9.00
  10  -2  15    0.30    6.70
  10  -2  15   -1.10    6.20
  -8  10  15    8.90   17.40
  -8  10  15    2.00    7.40
  -2  -8  15    9.60   11.60
   5   5 -15   -4.20   14.40
   5 -10 -15   -1.40    8.90
   5   5 -15   -7.20    7.80
 -10   5 -15    0.60    8.20
  10  -5  15   -1.50    5.70
  -5  -5  15   -7.10    9.20
  -5  -5  15  -11.70    8.00
  -5  10  15   -2.80    6.70
 -10   8 -15   -9.20   10.10
   8   2 -15   15.20    8.30
   2 -10 -15   -0.50    9.30
 -10   8 -15    5.90    9.60
   8   2 -15   21.50    9.90
  -2  10  15   -8.70    7.60
  -2  10  15   18.40    7.70
  10  -8  15    8.50   12.40
  -8  -2  15    1.00    8.80
  -8  -2  15    7.60    8.80
 -10  11 -15   -2.10   11.20
  11  -1 -15    7.20   14.60
 -10  11 -15    6.90    9.60
  -1 -10 -15   16.10   10.20
  10 -11  15   12.20   11.70
   1  10  15   12.10    8.80
  10 -11  15    4.60    7.70
 -11   1  15   20.10   12.10
   1  10  15   -7.60    9.60
  14  -4 -15    9.00   15.80
 -10  14 -15  -16.50   10.80
  -4 -10 -15   14.10   18.60
 -10  14 -15  -11.00   10.80
  -4 -10 -15   -1.10   13.30
   4  10  15    9.80    8.30
 -14   4  15    1.60   12.80
  10 -14  15    7.70    9.40
   4  10  15    4.60    9.20
  -7 -10 -15  -22.30   15.10
 -10  17 -15  -21.70   13.80
  17  -7 -15   18.00   15.90
 -17   7  15    2.40   14.80
 -11  -5 -15   25.40   12.50
  16 -11 -15   23.90   16.90
  -5  16 -15  -11.70   14.60
 -11  -5 -15   23.30   14.40
  16 -11 -15    2.20   11.90
 -16  11  15   28.60   15.20
  11   5  15    5.40    8.00
 -16  11  15    1.70   13.00
   5 -16  15    6.40    7.20
  11   5  15   27.60   12.70
  11   5  15   14.40    9.20
 -16  11  15   16.50   13.20
  13 -11 -15   38.70   17.70
 -11  -2 -15    4.90   12.00
  13 -11 -15   -6.40    9.90
 -11  -2 -15   11.00   11.80
  -2  13 -15   -4.00   11.40
 -13  11  15   29.20   15.10
 -13  11  15   -4.30   14.70
 -13  11  15   -5.10    9.80
 -13  11  15   14.20   21.60
  11   2  15    5.20    7.80
   2 -13  15    2.20   11.90
  10 -11 -15    0.10    9.10
   1  10 -15    0.40    9.80
 -11   1 -15    6.60   13.40
   1  10 -15   -5.90    7.40
 -11   1 -15  -16.00    9.50
 -10  11  15   -8.60   10.30
 -10  11  15  -30.00   22.30
  -1 -10  15   12.60    7.10
  11  -1  15    7.00    7.30
  11  -1  15   -6.30    6.20
 -10  11  15    7.60    8.20
 -11   4 -15   12.10   10.80
 -11   4 -15   -0.20    9.10
   4   7 -15   -4.00    7.80
   7 -11 -15   -0.50    9.30
  -4  -7  15   19.70    8.40
  -7  11  15   -2.00   17.70
  -7  11  15    1.50    8.00
  -7  11  15   14.90   14.40
  11  -4  15    7.20    6.40
  -4  -7  15    6.10   10.00
  -7  11  15   -3.50    8.00
  11  -4  15    5.30    5.30
   7   4 -15    6.30   12.50
   7   4 -15   22.90    7.70
   4 -11 -15    4.00   10.60
 -11   7 -15   26.10    9.00
  11  -7  15    3.10    7.60
  -4  11  15   16.60    8.90
  -4  11  15   12.60    8.00
  -7  -4  15   -2.60    9.00
  11  -7  15    9.50   12.60
  -7  -4  15    8.60    9.10
 -11  10 -15   -2.00    9.10
 -11  10 -15   -8.40    8.80
  -1  11  15   -3.70    7.80
 -10  -1  15   20.00   12.50
  11 -10  15   13.30   10.70
 -10  -1  15   13.80   12.20
  11 -10  15   -7.40    7.80
  -1  11  15    9.40    9.40
  -1  11  15   13.00    8.60
  13  -2 -15  -18.30   17.50
 -11  13 -15  -17.20    9.90
  13  -2 -15   25.50   20.90
 -11  13 -15  -20.00   10.30
  -2 -11 -15  -17.10   12.10
   2  11  15    5.90    9.90
  11 -13  15   -9.50   11.20
   2  11  15   -7.70    7.00
   2  11  15   -7.80    9.60
  11 -13  15   11.30    8.60
 -13   2  15    9.60   11.00
  -5 -11 -15   -1.80   13.40
  16  -5 -15   -5.50   15.70
 -11  16 -15   11.20   12.70
 -11  16 -15   -1.30   12.20
  11 -16  15   -2.80    9.70
   5  11  15  -21.90   10.70
 -16   5  15   15.00   13.60
   5  11  15   -8.90    8.60
   5  11  15   -2.30   10.90
 -18  12  15   -4.80   15.50
  12   6  15   -7.50   10.60
 -12  -3 -15    7.50   13.50
  -3  15 -15   -2.20   12.30
  -3  15 -15   24.10   11.20
  15 -12 -15    3.10   18.30
 -12  -3 -15    4.50   10.20
 -15  12  15   50.49   26.40
  12   3  15   27.70   13.00
 -15  12  15    4.80   16.50
 -15  12  15  -13.30   11.60
 -15  12  15    1.50   12.40
   3 -15  15   -1.70   13.00
 -15  12  15    1.30   14.50
   3 -15  15   14.90    7.40
  12   3  15    7.10    8.60
  12 -12 -15   -3.90   11.10
   0  12 -15   -7.90   10.10
 -12   0 -15   18.60   10.70
 -12   0 -15  -17.40   12.70
  12 -12 -15   -8.10   14.60
 -12   0 -15    2.50    9.50
 -12  12  15   24.80   12.60
  12   0  15   -6.30    7.20
 -12  12  15   11.30   11.30
 -12  12  15    4.50    9.90
   0 -12  15    1.70    6.40
 -12  12  15    4.30   12.30
 -12  12  15   18.40   13.90
  12   0  15   10.10    7.00
 -12   3 -15   -4.00    9.00
 -12   3 -15   16.80   12.20
   3   9 -15   -8.20    9.30
 -12   3 -15   -1.40    9.30
  -9  12  15    7.70   10.30
  12  -3  15    4.70    6.20
  -3  -9  15   18.60   11.00
  -3  -9  15    2.10    7.40
  -9  12  15   -1.80    9.90
  -9  12  15  -11.90   20.30
 -12   6 -15    0.30    7.80
   6 -12 -15   16.30   10.40
   6   6 -15  -14.10   15.80
   6   6 -15   -7.40    8.30
  12  -6  15   -4.40    7.50
  12  -6  15   -0.90    4.90
  -6  -6  15   -5.00    9.50
  -6  12  15    4.30    9.20
  -6  12  15   -7.00    8.60
  -6  12  15   13.10    9.80
   9   3 -15   16.50   11.30
 -12   9 -15    7.50    9.30
   3 -12 -15   23.40   11.30
   9   3 -15    4.00    7.90
  -3  12  15   -5.80    8.90
  -9  -3  15    8.40   10.80
  12  -9  15   -3.10   10.80
  -9  -3  15   11.80    9.50
   0 -12 -15   -8.30   11.10
 -12  12 -15    9.90   11.50
  12   0 -15    3.90    8.90
  12   0 -15    1.00   19.00
  12   0 -15  -20.20   17.00
 -12   0  15   17.60   12.60
  12 -12  15   24.40    8.20
  12 -12  15   -5.60    9.50
   0  12  15   19.30    8.30
   0  12  15   28.40   10.10
   0  12  15   11.20    9.20
 -12  15 -15   38.20   11.50
  -3 -12 -15   44.90   13.40
  15  -3 -15  -35.40   25.90
 -12  15 -15   24.10   12.40
   3  12  15    9.70   10.80
  12 -15  15   16.20    9.90
   3  12  15   17.00    9.60
 -18   6  15   18.30   16.10
  17 -13 -15   37.70   22.50
  -4  17 -15  -16.30   13.60
 -13  -4 -15   -4.10   12.90
  17 -13 -15   31.20   14.80
 -17  13  15  -25.10   17.30
  13   4  15   -4.00    9.10
 -17  13  15   21.80   15.50
   4 -17  15    3.10   15.10
 -17  13  15  -28.20   14.60
  13   4  15    4.20   12.10
  13   4  15    2.90    8.00
  -1  14 -15   26.00   12.70
  -1  14 -15    0.00    9.50
 -13  -1 -15   11.30   12.20
 -13  -1 -15   -0.70   12.80
  14 -13 -15   20.50   18.70
 -13  -1 -15   -2.40   10.70
 -14  13  15  -15.90   12.30
 -14  13  15    9.00   14.60
 -14  13  15   -6.30   10.80
 -14  13  15  -15.70   11.90
 -14  13  15   12.60   13.10
  13   1  15    4.10    8.60
   1 -14  15   -7.80   13.00
  13   1  15   -8.40    7.40
  13   1  15   24.70   12.90
   1 -14  15  -13.30    7.10
 -13   2 -15    4.50   10.80
  11 -13 -15    1.60   10.50
   2  11 -15   28.50    8.50
 -13   2 -15   15.30    9.60
   2  11 -15   -5.50   10.00
 -11  13  15   14.90   13.10
 -11  13  15    9.80   10.70
  -2 -11  15   -9.50   12.50
 -11  13  15   24.00    9.30
  -2 -11  15   19.30    6.90
 -11  13  15   25.20   28.90
   5   8 -15   14.90   10.10
   8 -13 -15  -15.80    9.00
   5   8 -15    5.50    8.70
  -8  13  15   -6.00   10.10
  -8  13  15    7.10    9.30
  -5  -8  15    4.30   10.60
  -8  13  15   -9.60    8.40
  13  -5  15   -0.40    6.70
  -8  13  15   -7.30   21.30
   8   5 -15   22.20   12.50
  -8  -5  15    2.30   11.70
  13  -8  15   17.20    7.20
  -5  13  15  -11.10    7.70
  13  -8  15    1.50   12.00
  -5  13  15   12.30    9.40
 -13  11 -15    7.70   10.80
  11   2 -15  -16.50   21.90
   2 -13 -15    0.80    9.90
  11   2 -15    3.00   20.10
 -13  11 -15   10.00   11.30
  -2  13  15    4.70    9.70
 -11  -2  15    1.20    9.50
  13 -11  15   -4.30    7.40
  -2  13  15    6.50    9.80
  13 -11  15   11.10    9.70
  -2  13  15  -10.70    8.10
  14  -1 -15    4.00   21.40
 -13  14 -15   -8.80   11.20
 -13  14 -15   32.80   12.70
  14  -1 -15   20.60   18.80
  -1 -13 -15  -11.00   12.90
  13 -14  15   23.90   10.00
   1  13  15   12.60   10.40
 -14   1  15    4.50   13.00
   1  13  15    7.60    9.10
   1  13  15   26.90   10.30
  -4 -13 -15   36.70   18.40
 -13  17 -15   27.70   13.60
  17  -4 -15   28.10   20.30
   4  13  15   18.20   11.40
  13 -17  15   33.00    9.20
 -17   4  15    9.60   14.70
  16 -14 -15  -11.70   17.40
 -14  -2 -15    9.70   11.30
  16 -14 -15   -3.90   12.00
  -2  16 -15   14.00   11.70
 -16  14  15   -8.50   13.10
 -16  14  15   -5.70   11.10
   2 -16  15    3.00    7.40
  14   2  15   10.10   13.70
 -16  14  15    0.80   18.30
 -16  14  15   -5.00   20.70
  14   2  15  -11.10   11.20
  14   2  15   20.10   10.40
  14   2  15   -8.90    8.00
   2 -16  15  -24.80   14.70
  13 -14 -15  -11.10   10.70
 -14   1 -15   -1.90   13.70
   1  13 -15    5.30   10.00
 -14   1 -15    3.60   10.40
 -14   1 -15   -1.60   12.50
  -1 -13  15   15.70   14.20
 -13  14  15    7.30   11.80
  14  -1  15    8.40    7.20
 -13  14  15   -4.70   11.40
 -13  14  15   -1.00   11.40
 -13  14  15   25.50   13.40
 -13  14  15   23.90   17.10
 -14   4 -15   14.30   10.20
 -14   4 -15   34.90   15.40
   4  10 -15   14.80    8.50
 -14   4 -15    8.00    9.40
  -4 -10  15   13.40    8.40
  -4 -10  15   11.30   11.50
 -10  14  15   25.50   12.00
 -10  14  15   -9.70   25.60
 -14   7 -15   16.30    9.80
   7   7 -15  -12.80   16.90
  -7  -7  15    8.60    9.70
  -7  14  15    2.80   34.90
  -7  14  15   -9.20    9.90
  14  -7  15   10.00    5.90
  14  -7  15    6.80    7.50
  -7  14  15  -11.00    9.50
  -7  14  15    0.20   10.00
  10   4 -15   -6.10   11.50
 -14  10 -15    6.30   10.40
   4 -14 -15   -6.90   11.90
  10   4 -15  -13.30    9.10
  -4  14  15   -2.50    9.30
  14 -10  15   13.30   10.80
 -10  -4  15   -0.70    9.80
  -4  14  15   16.20    9.90
  14 -10  15   -8.50    8.30
  13   1 -15   -7.20   25.40
  13   1 -15  -24.60   19.50
   1 -14 -15  -17.90   13.00
  13   1 -15   -2.60    9.70
 -14  13 -15    3.50   11.30
 -14  13 -15    1.20   11.30
  14 -13  15    8.10    8.90
  -1  14  15    6.20    9.80
 -13  -1  15    2.20   12.60
  -1  14  15  -10.30    9.50
  -1  14  15    2.30   10.70
  -2 -14 -15  -12.90   16.20
 -14  16 -15   -5.30   12.80
 -14  16 -15   -7.30   12.00
  16  -2 -15    4.60   23.00
   2  14  15   11.80    9.60
  14 -16  15    2.80    8.20
  14 -16  15   19.30    8.80
   2  14  15    7.50   11.30
 -15   0 -15   21.10   11.40
   0  15 -15   26.80   11.40
  15 -15 -15   29.70   11.30
 -15   0 -15   13.20   11.90
 -15  15  15    5.40   12.40
  15   0  15    9.90   10.50
 -15  15  15   -5.00   10.70
 -15  15  15   -9.40   15.50
 -15  15  15   13.40   12.20
 -15  15  15  -11.10   13.40
  15   0  15   25.40   14.40
 -15   3 -15   11.00   15.00
 -15   3 -15   -2.80   11.10
  12 -15 -15   15.80   12.80
 -15   3 -15   21.90   12.20
   3  12 -15   -1.80   10.40
 -12  15  15   31.20   14.30
 -12  15  15    0.90   10.30
  -3 -12  15   14.30    8.90
 -12  15  15   24.50   14.10
 -12  15  15  -10.60   10.20
 -12  15  15   43.90   19.80
  -3 -12  15   28.90   14.90
 -15   6 -15   -3.10   11.50
   6   9 -15   -7.20   11.40
   6   9 -15    1.90    8.90
 -15   6 -15    3.10   11.80
   9 -15 -15  -17.70   11.80
  15  -6  15   16.70    7.90
  -9  15  15  -14.40    9.40
  -6  -9  15    1.20    9.80
  -9  15  15   14.30   11.90
  -6  -9  15    1.90   11.30
  -9  15  15  -12.90   37.10
  -9  15  15   -4.80   10.10
 -15   9 -15   -8.60   13.70
  15  -9  15    2.90    7.80
  -9  -6  15    6.10   11.70
  -6  15  15    6.10   11.00
  15  -9  15    4.10   12.50
  12   3 -15   -3.00   23.00
  12   3 -15   -1.30   23.30
  12   3 -15    4.00   10.30
  -3  15  15   19.10   10.20
  -3  15  15  -10.20   10.60
  15   0 -15  -14.50   25.20
 -15  15 -15   31.40   13.60
 -15  15 -15  -14.60   12.40
   0  15  15    6.70   10.50
  15 -15  15   11.30    8.70
 -15   0  15   18.90   14.20
  15 -15  15   16.10    9.70
  14 -16 -15   -7.90   11.30
   2  14 -15   -6.10   11.10
 -16   2 -15    8.60   14.50
   2  14 -15   -0.90   13.10
 -16   2 -15   27.60   14.30
 -16   2 -15    7.10   12.20
  -2 -14  15   -2.80    7.90
 -14  16  15   -4.60   13.10
 -14  16  15   26.90   12.10
 -14  16  15  -14.40   11.50
 -14  16  15  -19.40   10.20
  16  -2  15    5.50    9.90
  16  -2  15    8.50    9.90
  16  -2  15   -1.10    8.80
  16  -2  15  -17.70   13.50
 -14  16  15   11.80   15.50
  -2 -14  15   11.80   15.60
 -16   5 -15   25.80   11.70
 -16   5 -15   15.20   15.20
   5  11 -15    7.00   10.80
 -16   5 -15   -6.20   13.80
 -11  16  15    5.10    9.00
  -5 -11  15   16.80   13.80
  16  -5  15   17.90    7.80
  16  -5  15   16.20    9.10
 -11  16  15   43.50   15.10
 -16   8 -15   -5.20   12.10
 -16   8 -15   -0.90   11.20
  -8  -8  15   14.20   10.50
  -8  -8  15   16.00   11.50
  -8  16  15   10.00   10.00
  -8  16  15   13.30   11.90
  16  -8  15    2.60    6.10
   5 -16 -15  -24.20   12.00
  -5  16  15  -23.20   10.40
  -5  16  15   -8.50   10.60
 -11  -5  15  -10.30   11.50
  -5  16  15  -14.20    9.50
  16 -11  15   -1.90    8.40
 -16  14 -15   12.30   12.40
  14   2 -15   17.60   11.60
 -16  14 -15  -21.00   13.10
   2 -16 -15   -2.30   24.20
  14   2 -15  -19.00   26.90
  16 -14  15    6.00   10.40
  -2  16  15   15.10   10.00
  -2  16  15  -22.00   11.20
  -2  16  15  -12.00   10.10
 -14  -2  15  -10.70   15.00
 -17   4 -15  -14.00   15.60
   4  13 -15   14.60   12.90
  13 -17 -15   34.40   15.80
 -17   4 -15   -9.50   15.10
  -4 -13  15   16.90   15.90
 -13  17  15  -11.90   12.20
  17  -4  15   -7.60    8.20
 -13  17  15   13.20   10.60
 -13  17  15   10.80   14.00
  -4 -13  15  -17.80    9.80
  17  -4  15    3.90    7.90
  17  -4  15    0.50    7.60
  10 -17 -15   12.30   13.80
   7  10 -15    1.40   10.50
  17  -7  15    6.60    7.70
 -10  17  15    6.70   13.40
 -10  17  15    6.10   11.70
 -10  17  15   23.10   10.60
 -10  17  15   13.30   16.60
  -7 -10  15   10.90   10.80
  -7 -10  15   -1.70   16.50
 -17  10 -15   -0.50   12.60
  10   7 -15  -20.20   10.40
  -7  17  15   -3.80   11.30
  17 -10  15   17.00    8.00
  -7  17  15  -11.70    9.50
 -10  -7  15   23.50   12.00
  -7  17  15    0.40   10.80
 -17  13 -15    4.30   12.60
  13   4 -15   31.70   26.60
   4 -17 -15   -8.00   14.70
  -4  17  15   15.20    9.90
  -4  17  15    9.70   12.30
 -13  -4  15   30.80   20.20
 -18   6 -15    7.20   13.20
  -6 -12  15  -20.70   18.30
  18  -6  15   -5.70    9.60
 -18   9 -15   -0.80   13.30
   9 -18 -15    7.70   13.40
 -18   9 -15    4.40   23.70
  18  -9  15   11.00    8.00
  -9  -9  15    0.60   12.20
  -9  18  15   33.50   13.80
  -9  18  15   11.00   11.70
 -18  12 -15  -40.70   19.60
 -12  -6  15   15.20   13.60
  18 -12  15   -2.00    9.70
   0   1 -16   -5.70   16.90
  -1   0 -16    9.80   14.70
  -1   0 -16    4.50    8.40
   1  -1 -16    3.30    6.10
   1  -1 -16   12.60    9.90
  -1   1  16    2.90    6.00
   0  -1  16  -15.70   17.60
  -1   1  16   -7.50   15.30
   1   0  16   10.90    9.00
   0  -1  16    6.90    6.10
  -1   3 -16    3.60    6.20
  -1   3 -16    0.70    8.50
  -2  -1 -16   -9.10    8.20
  -2  -1 -16    3.50   12.50
   3  -2 -16   22.50   13.30
  -2  -1 -16   13.40    9.90
   2   1  16   -0.10    4.80
  -3   2  16   28.00   17.90
   1  -3  16    0.50    4.50
   1  -3  16  -20.80   21.40
  -2   2 -16    4.70   17.80
  -2   2 -16   20.50    8.70
   0  -2 -16   29.50    8.90
   2   0 -16   16.90   15.70
   0  -2 -16    5.70   10.90
   0  -2 -16   19.30    9.60
   2  -2  16   17.30    5.40
   0   2  16   12.10    5.30
  -2   0  16   15.00   19.60
  -2   0  16    6.40    5.90
  -2   5 -16   -0.40    6.90
   5  -3 -16   20.90   16.70
  -3  -2 -16  -11.30   12.00
  -3  -2 -16   17.50   10.10
  -3  -2 -16    9.00   10.80
  -2   5 -16    8.90    8.50
   2  -5  16    6.40   10.40
  -5   3  16   23.90   16.80
  -5   3  16    0.40    6.30
   2  -5  16   -1.30    6.10
  -3   1 -16   13.10   15.60
  -3   1 -16    7.00    9.20
   2  -3 -16   21.10    9.70
   1   2 -16   -2.90    6.50
   2  -3 -16   19.30   11.70
   2  -3 -16    2.20    7.20
  -1  -2  16   17.50    6.80
  -2   3  16   -3.10    5.80
  -1  -2  16    1.30   23.60
  -2   3  16    9.50    7.60
   3  -1  16   17.70    6.00
   4  -1 -16    6.40   18.70
   4  -1 -16   -7.70    9.80
   4  -1 -16   10.60   14.60
  -3   4 -16    3.10    7.00
   1   3  16    5.90    7.70
  -4   1  16   -6.00   18.40
   1   3  16    2.90    5.80
   7  -4 -16   14.70   23.50
  -4  -3 -16   -2.80   11.70
  -4  -3 -16    8.30   11.70
  -3   7 -16   -1.30    8.20
   7  -4 -16   -4.50    8.70
  -4  -3 -16  -14.70   11.50
   3  -7  16    3.80    5.30
  -7   4  16   13.70   18.70
  -7   4  16   -1.20    5.90
  -7   4  16  -28.30   20.20
   4   3  16    2.20    7.20
   0   4 -16    3.70    6.00
   4  -4 -16    9.20   13.00
  -4   0 -16   -2.70    7.50
   0   4 -16    9.40    7.80
  -4   4  16   11.80    6.70
   0  -4  16    1.00    6.00
  -4   4  16   11.20   15.80
   3   1 -16    7.40   10.20
   3   1 -16   11.20   15.10
   3   1 -16   10.70    6.80
  -4   3 -16   -5.30    7.60
   1  -4 -16    1.40    8.90
   4  -3  16    0.80    5.40
  -1   4  16    6.00    5.10
   4  -3  16   19.50   10.20
  -1   4  16   13.80    7.90
  -3  -1  16   31.40   22.00
  -4   6 -16   -7.50    7.10
   6  -2 -16    3.50    9.70
  -2  -4 -16   -2.00    9.80
   2   4  16  -10.10    6.90
   4  -6  16  -12.30    6.00
  -6   2  16  -26.20   18.20
  -6   2  16  -12.30    6.00
  -6   2  16   -1.90   17.20
  -5  -4 -16    4.10   13.50
   9  -5 -16    6.70    8.40
  -4   9 -16   -8.80    8.70
  -5  -4 -16  -14.90    8.70
  -5  -4 -16    3.20    9.80
  -9   5  16    1.30    8.20
  -9   5  16   26.00   21.00
  -9   5  16   -9.40   17.10
  -1   6 -16   -5.20    8.50
  -5  -1 -16   -2.10   10.40
  -5  -1 -16   -7.20   16.20
   6  -5 -16  -10.20   17.40
  -1   6 -16   -5.90    6.40
  -5  -1 -16    6.40    8.00
  -6   5  16   10.30   15.60
   1  -6  16   -2.90   11.20
  -6   5  16   -0.10    6.70
  -5   2 -16  -11.70   19.70
   3  -5 -16    1.00    7.60
   2   3 -16  -19.10   15.10
   2   3 -16    9.40    6.90
  -5   2 -16   -3.80    7.70
  -3   5  16  -10.20    7.20
  -3   5  16    5.80    5.60
   5  -2  16    4.80    5.60
  -2  -3  16    7.80   11.50
   0  -5 -16   10.00    8.40
   5   0 -16   17.30    7.60
   5   0 -16   -0.20   12.60
  -5   5 -16    5.40    7.60
  -5   5 -16   10.30    8.30
   5   0 -16   14.90   10.70
   5  -5  16   -5.60    9.50
   0   5  16   23.90    7.00
   5  -5  16   13.10    5.60
  -5   0  16   -1.20   19.30
  -5   0  16   23.40    6.80
  -5   0  16   10.40   20.20
  -5   8 -16   -1.30    8.50
  -3  -5 -16   16.40    9.40
  -5   8 -16    0.60    7.30
   8  -3 -16  -16.90    9.60
   5  -8  16    4.60    5.50
  -8   3  16  -19.30   29.30
  -8   3  16   34.40   15.80
   3   5  16    5.60    6.10
   3   5  16   -4.20    8.70
  -6  -5 -16    5.80   11.10
  11  -6 -16   -4.70   14.20
  -6  -5 -16   25.30   16.60
  11  -6 -16    8.70    8.90
 -11   6  16  -22.10   16.40
   6   5  16   15.50    8.10
 -11   6  16    8.10   13.80
  -6  -2 -16    5.10   17.00
  -2   8 -16  -10.30    8.00
  -6  -2 -16   12.60   10.30
   8  -6 -16    4.60    8.80
  -8   6  16   -4.40    6.90
   2  -8  16  -11.30    6.00
  -8   6  16    4.50   17.70
   6   2  16   -0.10    6.20
   2  -8  16   12.70   11.30
   6   2  16   -2.70    6.60
   1   5 -16   -0.10    7.60
   5  -6 -16    0.40    8.70
  -6   1 -16    6.10    7.50
   1   5 -16   17.00    6.90
  -6   1 -16   30.50   10.70
  -6   1 -16   41.20   20.60
  -1  -5  16   12.90   12.70
  -5   6  16    7.00   12.30
  -1  -5  16    1.00    6.70
  -5   6  16   15.20    6.80
   6  -1  16   28.10    6.60
  -5   6  16   11.50    9.90
   6  -1  16   19.40    7.00
   4   2 -16   -8.20    6.40
   2  -6 -16  -11.50    7.90
   4   2 -16   10.20   14.20
  -4  -2  16    3.30   10.10
   6  -4  16    6.00    6.10
  -4  -2  16   17.70    6.90
   6  -4  16   18.90    7.30
  -2   6  16    3.20    6.10
  -4  -2  16   -7.90   27.00
  -6   7 -16   -3.30    9.10
   1   6  16  -14.50    6.70
  -7   1  16   -9.20   15.40
   1   6  16   -0.80    6.60
   6  -7  16   -5.20    6.00
  -7   1  16    8.70   10.50
  -6  10 -16   -3.60    8.60
  10  -4 -16    9.60    9.10
  -6  10 -16   -8.10    9.30
  -4  -6 -16   -3.80    9.80
  10  -4 -16   -0.40   13.50
   4   6  16    6.80    8.00
 -10   4  16   -8.70   11.70
 -10   4  16   13.10   10.20
   4   6  16   -4.20    7.20
  -6  13 -16    2.90   10.00
  -7  -6 -16    8.80   11.90
  13  -7 -16   12.30   10.10
  -6  13 -16   20.10   10.50
  -7  -6 -16   -0.20   20.70
  13  -7 -16   30.70   16.70
 -13   7  16   -1.40   13.20
 -13   7  16  -16.80   10.90
   6 -13  16    6.00    8.00
   7   6  16    4.30    7.60
   7   6  16   15.50    7.60
  10  -7 -16    1.20    9.10
  -7  -3 -16  -29.10   17.30
  -3  10 -16  -12.40    8.10
  10  -7 -16  -19.00   14.90
  -7  -3 -16   -3.60    9.00
  -3  10 -16    9.20    9.30
 -10   7  16   -1.30   21.30
 -10   7  16   -1.60   22.90
 -10   7  16  -14.00    8.70
   7   3  16    6.20    7.80
   3 -10  16   -2.20   10.30
  -7   0 -16   -7.60    8.50
   7  -7 -16   11.70    9.50
  -7   0 -16   14.20   11.80
  -7   0 -16    3.80   18.00
   7   0  16    3.50    6.60
   7   0  16   11.50    7.10
  -7   7  16   -3.20    7.10
  -7   7  16  -14.90   15.30
  -7   7  16    4.50   10.50
   0  -7  16    1.50   13.20
   3   4 -16   -6.10   17.70
  -7   3 -16   -9.50    9.40
   4  -7 -16   -8.10    8.60
   3   4 -16   11.50    6.90
  -4   7  16   10.50    6.90
  -3  -4  16  -10.50   10.80
  -3  -4  16    2.40    6.60
  -4   7  16    8.90    8.30
   7  -3  16    4.30    7.10
   7  -3  16   -5.40    5.70
   6   1 -16   -3.40   10.10
  -7   6 -16    8.20    8.70
   6   1 -16  -10.20    6.90
   1  -7 -16    9.30    9.30
   6   1 -16  -11.30   11.30
  -6  -1  16  -19.00   17.10
   7  -6  16   -2.90    6.40
  -6  -1  16   -0.30   10.60
  -1   7  16   12.00    8.10
  -1   7  16    4.40    7.50
  -7   9 -16   -9.40    8.40
  -2  -7 -16  -17.00    9.80
  -7   9 -16  -13.70    8.70
   7  -9  16   -6.40    6.00
  -9   2  16   -7.00   12.20
  -9   2  16  -12.80    9.10
  -5  -7 -16   -4.70   11.70
  -7  12 -16   13.90    9.40
  12  -5 -16   40.50   15.70
  12  -5 -16   10.00    9.10
   7 -12  16    8.50    7.10
 -12   5  16    5.20   12.30
   5   7  16   24.40    8.00
   5   7  16   23.10    9.40
 -12   5  16    1.30   11.20
  -8  -7 -16   13.60   27.50
  15  -8 -16   -7.20   11.00
  -7  15 -16   -5.90   13.60
  -7  15 -16  -16.40   10.90
  15  -8 -16   14.30   17.40
  -8  -7 -16   15.70   14.40
   8   7  16  -23.10   10.90
   8   7  16   -1.20    9.50
 -15   8  16   -0.40   14.20
   7 -15  16   -2.30    8.80
   8   7  16  -10.20    8.00
  -8  -4 -16  -16.50    9.30
  -4  12 -16  -14.30    8.30
  12  -8 -16   16.20    9.90
  -8  -4 -16   17.70   11.70
  -4  12 -16   21.00   12.20
  12  -8 -16    5.70   16.10
  -8  -4 -16   20.60   20.50
   8   4  16   15.10    7.20
   4 -12  16    2.20    6.40
 -12   8  16   -2.90   10.20
 -12   8  16  -17.40   13.80
 -12   8  16    3.10   17.60
   4 -12  16    4.70   12.40
  -1   9 -16   -9.90    8.40
   9  -8 -16    4.20    9.70
  -8  -1 -16   18.20   19.50
  -1   9 -16   -0.50    8.10
  -8  -1 -16   -2.60   10.90
   1  -9  16   -3.80    6.40
   1  -9  16  -14.90   12.40
   8   1  16   14.90    7.20
  -9   8  16  -11.40    7.80
  -9   8  16   26.30   19.50
   2   6 -16   12.30    7.70
   2   6 -16    0.00    7.60
  -8   2 -16  -14.80    9.40
  -8   2 -16   16.30   20.50
  -8   2 -16   19.50    8.70
   6  -8 -16   -4.30    8.90
  -6   8  16    4.00    8.90
  -6   8  16    2.60    7.10
  -2  -6  16    6.50   12.50
   5   3 -16    9.80   13.30
   3  -8 -16   10.80    9.50
   5   3 -16    3.90    7.90
  -8   5 -16   11.50    8.50
  -3   8  16   14.70    6.90
   8  -5  16   14.60    6.00
  -5  -3  16    6.60   10.60
  -5  -3  16  -24.10   22.20
  -8   8 -16  -18.30    9.80
  -8   8 -16  -14.10    8.50
   0  -8 -16   17.10   10.70
   8   0 -16  -10.90   10.40
  -8   0  16  -12.70   14.20
  -8   0  16   12.80    9.00
   0   8  16   -5.70    7.60
   0   8  16    2.70    7.70
   8  -8  16   10.70    6.80
  -8  11 -16    6.20    9.80
  -3  -8 -16   -4.50   10.40
  11  -3 -16  -13.30   14.40
  -8  11 -16    6.00    9.50
  11  -3 -16   18.80    9.90
 -11   3  16   -4.50   10.80
   3   8  16   11.70    7.80
   8 -11  16    9.40    6.90
   3   8  16    2.30    7.90
 -11   3  16   16.70   12.50
  -8  14 -16   21.30   12.10
  -6  -8 -16   14.70   18.30
  -6  -8 -16   23.80   13.80
  14  -6 -16   35.50   11.40
  -8  14 -16   18.60   10.50
  14  -6 -16   15.80   16.30
   6   8  16    5.60    7.70
 -14   6  16  -10.10   13.70
 -14   6  16   29.20   13.30
   6   8  16   13.30    7.50
  -9  -8 -16   32.00   17.10
  17  -9 -16    0.70   13.00
  17  -9 -16    9.60   18.70
  -8  17 -16   -6.60   17.30
   9   8  16   21.90   12.80
   9   8  16  -14.60   13.10
 -17   9  16  -26.20   15.20
   9   8  16    5.40   11.40
  -9  -5 -16    3.50   13.30
  -5  14 -16    2.70    9.50
  -5  14 -16  -17.70   12.00
  14  -9 -16  -12.40   10.40
   9   5  16   -7.20    8.20
 -14   9  16   -4.30   13.70
   5 -14  16    1.90    6.70
   9   5  16   -5.70    8.40
   9   5  16   12.80   11.50
  -2  11 -16    4.80    7.10
  -2  11 -16   -4.60   10.90
  11  -9 -16   17.50   15.90
  -9  -2 -16  -10.90   11.40
  -9  -2 -16    9.10   17.80
  -9  -2 -16   13.80    9.60
   2 -11  16    0.20    6.30
   9   2  16    6.30    7.80
   9   2  16   -0.40    7.60
 -11   9  16   12.80   28.10
  -9   1 -16    7.30    7.70
   8  -9 -16  -10.50    9.10
   1   8 -16   -3.70    8.40
  -9   1 -16   -2.40   11.40
   9  -1  16   -8.40    6.90
  -1  -8  16    5.60   11.90
  -8   9  16   -1.10    9.90
   9  -1  16   -1.50    6.40
  -8   9  16    3.80   16.90
  -8   9  16   -0.50    6.80
   5  -9 -16    1.00    9.80
  -9   4 -16  -14.60    9.00
   4   5 -16  -12.60    7.20
   4   5 -16    4.30   16.80
  -4  -5  16  -17.40    9.90
  -5   9  16    5.10    7.70
  -4  -5  16  -12.80    7.40
  -5   9  16    0.30    6.30
   9  -4  16    3.60    7.20
  -9   7 -16   17.00    9.20
  -9   7 -16  -15.60    8.70
   7   2 -16    5.30   10.80
   2  -9 -16    2.30    9.50
   7   2 -16  -19.20   10.70
  -2   9  16    7.70    7.20
  -2   9  16  -11.90    7.60
   9  -7  16   -7.10    6.30
  -7  -2  16   -1.90   19.80
  -7  -2  16    0.00    8.10
  -7  -2  16   18.60    9.30
  10  -1 -16    4.30   14.80
  -1  -9 -16  -14.00   10.90
  -9  10 -16   -7.20   10.30
  -9  10 -16  -12.70   10.50
  10  -1 -16  -17.90   10.20
   1   9  16   -5.20    7.80
   1   9  16   -7.90    7.60
   9 -10  16    1.90    6.90
 -10   1  16   14.80   11.80
 -10   1  16   11.30    9.80
   9 -10  16    4.90   15.90
  -4  -9 -16   18.50   12.20
  -9  13 -16  -19.30   10.40
  13  -4 -16   -6.70   17.20
  13  -4 -16    1.30   11.20
 -13   4  16   -2.40   11.50
   9 -13  16   -8.20    8.70
   4   9  16   18.10    8.50
   4   9  16    4.20    9.30
   4   9  16   19.70   10.00
 -13   4  16   -3.40   11.70
  16  -7 -16    7.00   13.20
  16  -7 -16   52.69   24.20
  -7  -9 -16   -6.00   14.90
   7   9  16   30.30    9.80
 -16   7  16   14.70   15.40
 -16   7  16   26.20   15.70
   7   9  16   14.50   11.80
   7   9  16   -8.10   11.30
  -6  16 -16   -7.50   15.30
 -10  -6 -16  -26.70   15.10
  16 -10 -16   18.30   13.20
  -6  16 -16   -5.50   14.80
 -10  -6 -16   12.00   12.10
 -16  10  16  -24.10   14.60
  10   6  16  -16.50   12.10
   6 -16  16   -8.90    7.80
 -10  -3 -16    6.80   12.70
  13 -10 -16  -23.00   15.70
  13 -10 -16   22.60    9.80
  -3  13 -16   -4.10    8.80
 -10  -3 -16   13.10   10.40
 -13  10  16   29.00   13.90
 -13  10  16    3.10   10.50
 -13  10  16    0.80   20.50
  10   3  16    2.80    6.90
  10   3  16   -1.70    7.00
   3 -13  16    6.20   12.30
 -10   0 -16   -5.00   11.50
 -10   0 -16   14.10    8.80
 -10   0 -16   20.20   12.80
   0  10 -16   -4.30    8.80
   0  10 -16  -12.10    8.30
 -10  10  16    7.10   11.20
  10   0  16    4.80    7.40
 -10  10  16  -17.20   22.30
 -10  10  16  -10.60    7.90
  10   0  16    5.40    6.40
   0 -10  16   -5.90    6.70
   3   7 -16   11.70    8.00
   3   7 -16   -5.00    8.60
   7 -10 -16  -12.40    9.60
  -7  10  16  -10.30    7.50
  -3  -7  16    8.20   11.80
  -7  10  16   -2.80   12.70
  -3  -7  16  -14.10    7.20
  -7  10  16   -5.90    9.10
   6   4 -16    3.70   12.90
   6   4 -16   14.60    8.20
   4 -10 -16   27.70    9.90
  10  -6  16   16.10    6.40
  -4  10  16    4.70    8.30
  -4  10  16   14.30    8.00
  10  -6  16   19.40    7.30
  -6  -4  16  -10.30   24.30
  -6  -4  16   16.20    9.30
  -6  -4  16   19.70    9.60
   9   1 -16    5.10    8.20
 -10   9 -16  -13.40    9.90
   1 -10 -16   20.90   10.40
   9   1 -16   -7.10   10.80
 -10   9 -16   14.00   10.20
  -1  10  16    3.10    8.00
  10  -9  16   -5.30   13.20
  -1  10  16   -5.20    7.00
  -9  -1  16   10.30    8.80
 -10  12 -16    1.80    9.20
  12  -2 -16   -2.20    9.80
 -10  12 -16   -9.00   10.30
  10 -12  16   12.60    7.70
   2  10  16   -2.40    9.60
 -12   2  16   -7.00   12.60
   2  10  16  -10.20    9.10
 -12   2  16   -7.20   10.70
  10 -12  16   -7.80   15.60
 -10  15 -16  -15.50   12.10
  15  -5 -16  -28.20   16.70
  -5 -10 -16   -4.00   13.00
  15  -5 -16   18.70   12.40
 -10  15 -16    9.20   12.60
  10 -15  16    1.60    9.70
   5  10  16   -9.10    8.60
   5  10  16   10.40   10.60
 -15   5  16    3.70   14.50
   5  10  16  -11.90   10.50
  -4  15 -16   -8.20   13.10
 -11  -4 -16   21.10   13.90
  -4  15 -16  -10.30    9.40
  15 -11 -16    1.80   12.10
  15 -11 -16   26.10   19.30
 -11  -4 -16    2.30   11.90
  11   4  16  -10.00    7.80
   4 -15  16    5.40    7.40
 -15  11  16    0.50   14.80
   4 -15  16  -24.20   14.60
 -15  11  16  -11.00   12.70
  11   4  16   -9.00    8.20
  11   4  16   -2.80   13.20
  -1  12 -16   -3.20   10.60
  -1  12 -16    1.80    8.90
  12 -11 -16    1.10    9.90
  12 -11 -16  -18.10   15.60
 -11  -1 -16   -7.10   12.00
 -11  -1 -16  -10.40   10.30
 -11  -1 -16  -19.50   13.80
 -12  11  16   -5.20   12.30
  11   1  16    2.20    7.20
 -12  11  16   27.40   14.70
  11   1  16   -6.80    7.10
   1 -12  16   -0.50   13.20
 -12  11  16   25.10   12.70
 -12  11  16   13.60    9.60
 -11   2 -16  -13.00    8.90
   9 -11 -16  -12.90    9.70
   2   9 -16    4.70    8.00
 -11   2 -16  -14.30    9.40
   2   9 -16   -9.10    8.90
 -11   2 -16   -8.40   12.20
  -9  11  16    4.70   10.20
  -2  -9  16    1.90   13.00
  -9  11  16   17.00   20.10
  11  -2  16    5.20    6.90
  11  -2  16    7.90    7.30
  -2  -9  16    5.40    7.50
   5   6 -16   -9.30   17.50
   5   6 -16  -15.20    8.20
 -11   5 -16   -9.90    9.70
  -6  11  16   -4.10    8.10
  -5  -6  16   11.90   10.10
  -5  -6  16   12.80    9.10
  11  -5  16  -12.60    6.70
  -6  11  16   11.20    7.60
  11  -5  16   -3.20    7.60
   3 -11 -16  -13.70   10.20
   8   3 -16   -3.80    8.70
 -11   8 -16   -3.30    8.90
   8   3 -16  -12.00    9.40
   8   3 -16   -2.50   11.70
  -8  -3  16   18.00   10.50
  -3  11  16  -12.50    8.10
  -3  11  16   -5.90    8.90
  11  -8  16    0.50   12.10
  -8  -3  16    0.50    9.20
  11   0 -16   28.50    9.00
   0 -11 -16   12.10   11.30
  11   0 -16   -5.80   17.60
 -11  11 -16   -2.70    9.80
 -11  11 -16    7.40    9.70
 -11   0  16    2.40   13.30
  11 -11  16    8.90   11.70
  11 -11  16    7.60    7.50
   0  11  16   17.00    9.40
   0  11  16   14.40    7.90
   0  11  16   26.40   10.20
  14  -3 -16   12.30   19.30
  14  -3 -16   -4.80   10.30
 -11  14 -16   -5.50   10.90
  11 -14  16  -10.70    9.80
 -14   3  16  -13.10   13.10
  11 -14  16   26.20   20.00
   3  11  16  -18.70    8.90
 -14   3  16    0.00   12.30
   3  11  16   -5.60   10.50
  -6 -11 -16  -25.10   15.80
 -11  17 -16  -18.90   13.70
  17  -6 -16   -7.80   18.30
 -17   6  16  -11.20   15.60
   6  11  16  -24.20   11.10
   6  11  16   -4.30   10.00
 -12  -5 -16  -18.00   14.30
  17 -12 -16   -6.20   14.30
  17 -12 -16   -7.80   19.40
  12   5  16   19.10   12.30
  12   5  16   -3.60   10.50
  12   5  16   11.70   13.60
  -2  14 -16   18.00   12.80
  14 -12 -16  -22.70   11.50
 -12  -2 -16    2.00   10.90
 -12  -2 -16   -2.20   13.40
  14 -12 -16   -5.40   17.30
 -14  12  16   -2.50    9.70
   2 -14  16  -12.60    6.90
 -14  12  16   22.70   15.20
  12   2  16    0.50    8.30
  12   2  16   21.10   13.10
 -14  12  16   -4.70   14.00
  12   2  16    3.60    8.10
   2 -14  16   -7.80   15.20
 -14  12  16  -13.30   13.20
  11 -12 -16   25.30   10.50
   1  11 -16   -5.30    8.70
 -12   1 -16    4.20   10.20
 -12   1 -16    6.30   14.60
   1  11 -16    7.20   10.80
  12  -1  16    3.50    7.30
  12  -1  16    0.40    7.90
 -11  12  16    2.00   11.00
 -11  12  16    5.20    9.40
 -11  12  16   23.70   27.70
  -1 -11  16   15.30    7.00
  -1 -11  16   21.20   14.40
 -12   4 -16   15.80    9.50
   8 -12 -16    7.30    9.60
   4   8 -16   -2.90    8.30
 -12   4 -16  -13.70    9.50
   4   8 -16  -10.40    9.20
  -4  -8  16   -2.50   10.60
  -8  12  16  -15.60    8.40
  -8  12  16    2.40   18.10
  -8  12  16   -6.40    8.10
  -4  -8  16    8.90    7.80
 -12   7 -16   19.60   10.30
   5 -12 -16   42.60   11.00
   7   5 -16    0.70   14.70
  -5  12  16   26.80   10.30
  -5  12  16   13.00    9.10
  12  -7  16   19.60    7.80
  12  -7  16   23.50    6.10
  -7  -5  16    9.20   10.70
  -7  -5  16   24.60    9.70
   2 -12 -16   17.80   11.20
  10   2 -16   -0.60    8.60
  10   2 -16    9.70   11.50
  -2  12  16    3.80    8.50
  12 -10  16    0.90   12.20
 -10  -2  16   11.40    9.20
  12 -10  16   12.70    7.10
 -12  13 -16   -3.20   12.20
 -12  13 -16   37.60   12.60
  13  -1 -16   31.60   19.70
  -1 -12 -16   13.60   12.20
  13  -1 -16  -10.80   12.60
   1  12  16    9.80   10.20
   1  12  16   14.80    8.60
 -13   1  16    7.40   13.20
 -13   1  16   -2.90   12.70
 -12  16 -16   13.60   14.10
  -4 -12 -16   -6.00   14.70
   4  12  16  -26.50   17.70
 -16   4  16    5.30   14.30
   4  12  16   -1.60   10.20
   4  12  16   14.60    9.70
  -3  16 -16   14.60   14.60
  16 -13 -16  -35.00   27.90
 -13  -3 -16   -2.60   14.10
  16 -13 -16  -11.10   12.70
  13   3  16  -25.20   13.60
   3 -16  16    3.80    7.30
  13   3  16   12.00   11.30
 -16  13  16   -5.00   16.90
   3 -16  16   10.00   14.60
  13   3  16  -12.50    9.80
 -16  13  16   -1.70   13.80
   0  13 -16   -6.30   11.90
 -13   0 -16   22.40   14.40
 -13   0 -16   -2.60   10.40
   0  13 -16    5.70   10.30
 -13   0 -16  -10.30   10.90
 -13  13  16    8.80   10.70
  13   0  16   -3.40    7.60
 -13  13  16   13.60   13.80
 -13  13  16  -20.90   16.60
 -13  13  16   -3.70   12.00
 -13   3 -16    2.90    9.80
   3  10 -16   -3.40   10.30
   3  10 -16  -14.70    8.30
  10 -13 -16    2.30   10.40
 -13   3 -16   -0.20   10.30
 -13   3 -16   12.40   14.30
  13  -3  16   -7.50    7.40
 -10  13  16    1.80   24.60
 -10  13  16    2.50    8.70
  -3 -10  16   31.90   13.80
 -10  13  16    7.70    9.80
 -10  13  16   17.50   12.00
  13  -3  16   14.60    7.00
   6   7 -16   -2.20   18.10
   7 -13 -16   -4.90    9.80
   6   7 -16    2.40    8.90
  13  -6  16   -2.00    7.40
  -6  -7  16   15.20   10.90
  -7  13  16  -19.50    8.90
  -7  13  16   16.20   11.30
  -6  -7  16   -9.70    9.20
   9   4 -16   22.70   13.00
 -13   9 -16    3.00    9.10
  -4  13  16   10.30    9.70
  13  -9  16   15.10    8.00
  13  -9  16   -4.70   13.10
  -9  -4  16   -7.70   10.00
  -9  -4  16   -7.30   10.20
 -13  12 -16   -8.10   10.60
  12   1 -16   20.40   19.80
  12   1 -16   20.70   10.00
  12   1 -16   -5.10   13.20
  -1  13  16    5.10   10.20
  -1  13  16   -2.80   10.80
 -12  -1  16   15.10   12.40
  -1  13  16    6.20    9.90
 -12  -1  16   33.50   14.50
 -13  15 -16   -3.90   12.60
  -2 -13 -16   29.20   14.10
  15  -2 -16   14.20   21.60
 -13  15 -16   33.00   20.10
 -15   2  16    4.10   14.80
   2  13  16    3.80   11.20
 -14  -1 -16    8.10   13.00
 -14  -1 -16   -8.40   11.40
  15 -14 -16  -11.70   10.80
  -1  15 -16   13.90   10.10
  15 -14 -16   34.70   19.50
 -14  -1 -16  -22.70   13.50
  14   1  16  -16.10    7.60
  14   1  16  -12.10   10.20
 -15  14  16   18.00   12.10
 -15  14  16  -15.40   12.70
 -15  14  16  -23.90   15.10
 -15  14  16    3.80   12.00
   1 -15  16    0.50    7.30
   1 -15  16  -30.70   28.50
 -15  14  16   22.00   13.60
 -14   2 -16   20.90   10.10
 -14   2 -16    2.40   11.40
   2  12 -16   12.20   10.20
   2  12 -16   23.00   12.40
 -14   2 -16   19.10   15.10
 -12  14  16  -13.60   43.00
 -12  14  16   22.60   13.40
 -12  14  16   17.80   11.70
  -2 -12  16   17.30   14.40
  14  -2  16   24.20    7.70
   9 -14 -16   -9.20   10.10
   5   9 -16   -9.90    8.70
 -14   5 -16   -7.00   10.10
  -9  14  16    2.40   12.00
  -5  -9  16    3.80    8.80
  14  -5  16   12.40    7.30
  14  -5  16    8.30    7.40
  -9  14  16   -5.70    9.30
  -5  -9  16   17.40   11.50
  -9  14  16  -16.70    9.50
   8   6 -16    9.10   14.80
  -8  -6  16    6.40   10.70
  -8  -6  16    6.20   10.30
  14  -8  16  -10.30    8.00
  -6  14  16   18.70   11.00
  -6  14  16    2.80    9.90
  11   3 -16   -9.30   11.10
 -14  11 -16    5.50   10.70
   3 -14 -16  -24.00   11.70
  11   3 -16  -18.60    9.60
  -3  14  16   -9.30   10.10
  -3  14  16  -19.10    9.90
  -3  14  16   10.90    9.00
 -11  -3  16   21.60   11.10
 -11  -3  16    8.70   12.20
  14 -11  16   -5.40    7.70
 -14  14 -16   17.40   12.30
 -14  14 -16    6.40   21.30
   0 -14 -16   -2.70   13.70
  14   0 -16  -20.70   24.00
  14 -14  16   28.90   10.30
   0  14  16   13.90    9.50
 -14   0  16   14.30   14.20
  14 -15 -16    6.60   11.40
   1  14 -16    3.70   12.90
 -15   1 -16    3.80   13.50
 -15   1 -16   -2.50   11.60
 -15   1 -16   -7.50   14.80
   1  14 -16   -8.70   12.40
 -14  15  16  -13.80   10.20
  15  -1  16    4.80    9.00
  15  -1  16    4.50    8.00
  -1 -14  16    2.70    8.20
 -14  15  16   -0.70   11.90
  -1 -14  16   -7.40   23.90
  15  -1  16    9.90    8.00
 -14  15  16   13.40   12.00
 -14  15  16   15.60   15.10
 -15   4 -16    9.40   12.00
  11 -15 -16    6.50   12.50
   4  11 -16   11.30   12.40
 -15   4 -16   11.90   12.80
 -15   4 -16   -3.30   15.30
 -11  15  16   11.70   10.30
 -11  15  16    1.90   14.60
  15  -4  16   13.40    7.70
 -11  15  16   12.80   11.70
  -4 -11  16  -13.30   15.00
 -11  15  16   15.50   13.70
 -15   7 -16   -2.20   11.80
 -15   7 -16  -10.60   11.70
   8 -15 -16    4.60   10.50
  15  -7  16   -2.40    7.50
  -8  15  16  -21.00    9.90
  -7  -8  16   -5.80   11.40
  -8  15  16   13.10   12.70
  15  -7  16   17.20    8.00
  -8  15  16   16.70   10.40
  -7  -8  16    7.20   10.10
   5 -15 -16   10.50   12.10
 -10  -5  16  -14.00   12.30
  -5  15  16   14.20   12.20
 -10  -5  16   16.80   12.40
  -5  15  16   -4.60    9.70
  -5  15  16    9.60   10.80
  13   2 -16   -1.90   25.90
  13   2 -16  -17.40   10.70
 -15  13 -16    0.70   12.00
 -15  13 -16   20.60   24.90
  -2  15  16    0.30   10.90
  -2  15  16  -14.70    9.90
  -2  15  16  -23.40   15.90
  15 -13  16    5.50    9.70
 -16   3 -16  -18.20   11.70
  13 -16 -16  -18.50   11.50
 -16   3 -16    8.30   16.10
 -16   3 -16    9.00   14.80
  -3 -13  16   -8.40    8.30
 -13  16  16  -18.80   10.50
  16  -3  16   -9.50    8.20
  16  -3  16   -9.50    9.60
 -13  16  16   -6.90   12.10
 -13  16  16  -19.50   13.30
  16  -3  16  -21.20    9.80
  -3 -13  16  -11.10   16.80
 -13  16  16    0.20   12.90
 -16   6 -16   14.40   13.40
   6  10 -16   -2.90   10.80
   6  10 -16   16.70   11.30
 -16   6 -16  -17.60   11.40
  10 -16 -16  -12.80   12.30
 -10  16  16  -12.60   10.40
  16  -6  16    0.10   11.00
  16  -6  16    0.40    7.60
 -10  16  16   -5.60   10.80
   7 -16 -16   16.00   11.80
 -16   9 -16  -12.40   11.50
  -7  16  16   -0.10   10.40
  -9  -7  16  -10.30   12.40
  -7  16  16   19.30   12.20
  -9  -7  16   15.40   12.70
  -7  16  16   -5.10   10.00
  12   4 -16   -1.00   11.50
  16 -12  16   10.20    9.40
  -4  16  16    4.00   10.10
  16 -12  16   14.50    9.80
  -4  16  16   13.90   11.20
 -17   5 -16  -10.90   15.10
 -17   5 -16  -17.60   12.60
   5  12 -16    0.70   12.50
  -5 -12  16   -1.40   10.40
  17  -5  16    1.70    8.20
  17  -5  16   18.40    8.50
 -12  17  16   16.80   10.60
  -5 -12  16  -15.50   15.70
 -12  17  16   -7.50   15.60
 -17   8 -16   17.60   13.80
   9 -17 -16   26.90   12.90
 -17   8 -16   31.00   27.10
  -9  17  16    5.30   12.70
  17  -8  16   28.70    9.20
  -9  17  16   12.20   12.50
  -9  17  16   15.40   10.20
  17  -8  16   11.30    7.20
 -17  11 -16   27.80   15.40
 -17  11 -16   31.20   14.50
  -6  17  16    4.90   11.90
  17 -11  16   23.70    9.20
 -11  -6  16   57.49   18.60
   1   0 -17  -27.40   16.10
  -1   1 -17    3.90   17.30
  -1   1 -17   16.50    8.30
   0  -1 -17    3.90   13.10
  -1   1 -17   14.20    9.00
   1   0 -17   -6.20    7.40
   0  -1 -17    4.00    9.60
   1  -1  17   13.10    5.80
   0   1  17    2.50    9.20
  -1   0  17    4.10   19.80
  -1   0  17   -5.90    5.90
   0   1  17    6.10    5.50
   0   2 -17   17.80    8.80
   0   2 -17   21.50    7.30
   2  -2 -17    7.00   12.30
  -2   0 -17    9.70    8.30
   2  -2 -17    2.40    9.40
  -2   0 -17    3.80    7.70
   2   0  17   11.40    8.00
  -2   2  17   10.70    5.80
  -2   2  17   19.00   16.80
   0  -2  17    7.40    6.10
   2   0  17    7.40    5.90
   0  -2  17    1.80   22.40
  -1  -2 -17   15.30    7.60
  -1  -2 -17    3.20   11.30
  -1  -2 -17    5.80    8.70
   3  -1 -17   -0.50   16.90
  -2   3 -17   -6.90    7.10
   3  -1 -17  -19.60   15.00
  -2   3 -17   12.80    8.50
   1   2  17    6.00    5.90
   1   2  17    7.00    7.40
  -3   1  17   15.40    6.40
   2  -3  17    5.40    5.20
  -3   1  17  -11.70   20.30
  -3  -1 -17   22.60   10.70
  -3  -1 -17   12.40   12.40
   4  -3 -17   -7.50   10.30
  -1   4 -17   11.30    7.70
  -3  -1 -17   12.80    7.80
   4  -3 -17   -4.50   15.60
   4  -3 -17    3.00   14.90
   3   1  17    4.70    6.10
  -4   3  17   20.60    6.50
   3   1  17   -6.60    7.40
   1  -4  17    7.10    6.30
   2   1 -17   -0.10    8.50
   1  -3 -17  -16.70    9.20
  -3   2 -17   31.80   18.40
   1  -3 -17    2.60    8.50
   2   1 -17  -10.40   13.70
  -1   3  17    3.10    9.70
  -2  -1  17    4.00   23.10
   3  -2  17   -3.70    6.10
   3  -2  17   10.10   10.50
  -1   3  17   -3.60    5.50
  -3   5 -17    7.00    7.50
   5  -2 -17  -10.00   10.40
  -3   5 -17    2.80    8.50
   5  -2 -17    4.50   14.70
  -2  -3 -17   -7.00    9.90
   5  -2 -17  -12.20   20.40
   3  -5  17   -7.00    5.10
  -5   2  17   13.80   18.00
  -5   2  17   -4.40    6.40
   2   3  17   -3.20    7.10
  -4  -2 -17   12.20   12.30
  -2   6 -17   23.20    8.20
   6  -4 -17   15.60   18.20
  -4  -2 -17    4.10   14.40
   6  -4 -17  -13.80    9.80
  -6   4  17    5.00   17.90
   2  -6  17    3.40    6.40
   4   2  17    6.30    6.40
  -6   4  17    8.20    6.90
   3  -4 -17    1.70    9.60
  -4   1 -17  -13.60   15.20
  -4   1 -17   -2.10    7.60
   1   3 -17   -2.30    8.10
  -4   1 -17   -3.70    9.10
   1   3 -17    3.50    7.30
   4  -1  17    5.10    7.90
  -1  -3  17   -6.60    6.50
  -3   4  17    4.10    9.20
   4  -1  17    3.90    6.10
  -1  -3  17  -23.60   23.60
  -3   4  17   12.70    6.40
   4   0 -17   15.50   10.70
   0  -4 -17    9.70    8.20
  -4   4 -17   -5.70    7.70
   4   0 -17    5.40   14.80
   4  -4  17    4.20    5.70
  -4   0  17  -19.10   23.40
   4  -4  17    0.40    8.50
  -4   0  17   -3.00    5.70
   0   4  17   -1.00    6.50
  -3  -4 -17    1.40   11.20
  -4   7 -17   12.00    9.10
   7  -3 -17   -5.40    9.90
  -4   7 -17   -4.30    8.10
  -3  -4 -17    8.50    7.70
   3   4  17    7.80    6.80
   4  -7  17   -8.90    6.00
  -7   3  17   -6.50   20.50
  -7   3  17   -6.20    7.00
  -7   3  17  -35.00   19.70
   3   4  17    9.60    7.80
  -3   8 -17  -10.10    7.00
  -5  -3 -17   -9.70   10.60
  -5  -3 -17    1.80   13.30
  -5  -3 -17    5.00   13.90
   8  -5 -17   -8.60    8.40
  -3   8 -17  -13.00    8.50
  -8   5  17   30.90   22.10
   3  -8  17  -16.30   10.60
  -8   5  17   -8.80   25.70
  -8   5  17   -6.50    7.00
   5  -5 -17  -10.10    8.70
   0   5 -17    3.00    9.10
  -5   0 -17   -0.10    7.80
  -5   0 -17   11.50   16.30
  -5   5  17    6.30   16.40
  -5   5  17    8.80   10.60
   0  -5  17   13.10    6.30
   5   0  17    6.40    8.10
  -5   5  17   13.70    6.60
   3   2 -17    6.10   17.10
   2  -5 -17    6.20    8.30
  -5   3 -17  -14.20    7.90
   5  -3  17    0.00    5.10
  -2   5  17    4.40    8.00
  -2   5  17   -0.40    6.00
  -5   6 -17   12.90    8.70
   6  -1 -17    7.80    9.20
  -1  -5 -17   -9.80    8.90
  -5   6 -17   -7.90    7.60
  -6   1  17    6.70   18.80
   5  -6  17    1.90    6.40
  -6   1  17    3.10   19.90
  -4  -5 -17   11.30   10.20
  -5   9 -17   -1.20   10.10
  -5   9 -17    1.50    8.30
   9  -4 -17   -2.50    9.00
  -9   4  17   14.40    9.10
   4   5  17    0.00    6.60
   4   5  17    1.90    7.50
  -9   4  17  -11.20   19.20
  -9   4  17   10.50   13.00
  -6  -4 -17    9.60   10.30
  -6  -4 -17   -7.80    8.80
  -6  -4 -17    0.10   15.50
  10  -6 -17   -7.20    9.50
 -10   6  17   -1.90   11.80
   6   4  17   25.40    8.70
   6   4  17   -5.70    6.70
 -10   6  17   17.00   24.20
 -10   6  17   11.60    8.70
  -6  -1 -17   -3.80   11.10
  -6  -1 -17   -2.00   16.90
  -6  -1 -17  -12.90    7.40
  -6  -1 -17   26.00   17.40
  -1   7 -17   16.00    8.60
   7  -6 -17  -14.10    8.50
   1  -7  17   27.00   13.00
  -7   6  17  -11.90    6.20
  -7   6  17    2.10   17.90
   6   1  17   -2.40    7.90
   1  -7  17    4.90    6.80
   4  -6 -17    0.90    8.70
  -6   2 -17   -1.20    8.80
   2   4 -17   -6.30    7.50
  -6   2 -17   17.50    9.60
   6  -2  17   -1.10    7.00
  -2  -4  17  -15.70   13.90
  -4   6  17   -1.50    6.40
  -2  -4  17    1.90    7.00
   6  -2  17   -1.00    6.50
   5   1 -17   12.80   13.40
   5   1 -17   11.70    9.60
  -6   5 -17   -8.00    7.40
   1  -6 -17   15.70   10.10
  -5  -1  17   -4.50    6.80
  -1   6  17   -3.90    7.40
  -1   6  17   -5.80    6.30
  -5  -1  17  -33.80   22.60
  -5  -1  17  -24.90   11.70
   6  -5  17  -12.00    7.60
  -6   8 -17   -0.90    8.10
  -6   8 -17  -12.80    8.30
  -8   2  17    7.20   11.60
   2   6  17   -5.90    7.10
  -8   2  17   -7.30    8.40
   6  -8  17  -12.10    6.30
  -8   2  17   -1.70   17.70
  11  -5 -17    6.90    9.70
  -6  11 -17    8.50    9.30
  11  -5 -17    0.80   13.80
  -6  11 -17   -3.30    8.70
  -5  -6 -17   -3.20   10.30
   6 -11  17   10.20    6.50
 -11   5  17   19.90   10.70
   5   6  17   20.20    8.10
 -11   5  17  -12.20   12.40
  -7  -5 -17   -1.40   16.10
  12  -7 -17  -29.40   16.30
  -5  12 -17   -4.80   10.70
   7   5  17    8.50    7.60
   7   5  17   -8.20    7.60
   5 -12  17   16.60    6.50
 -12   7  17    8.60    9.90
 -12   7  17    5.50   16.00
 -12   7  17  -17.30   13.50
  -7  -2 -17  -12.70    8.30
  -7  -2 -17   -2.60   11.60
   9  -7 -17    6.40    9.00
  -7  -2 -17   21.70   18.60
   7   2  17  -11.60    7.40
   7   2  17   -8.50    7.80
   2  -9  17   31.10   13.00
   2  -9  17   -0.80    6.10
  -9   7  17   11.20   21.10
  -9   7  17    6.80    8.30
  -7   1 -17   21.40   10.90
   1   6 -17   17.90    7.80
  -7   1 -17    1.00    8.20
   6  -7 -17   13.50    9.70
  -7   1 -17   21.80   22.20
   1   6 -17    1.10    8.50
  -6   7  17    6.10   13.90
  -6   7  17   10.70    7.20
   7  -1  17   14.50    6.90
  -1  -6  17    7.20    7.20
  -1  -6  17   15.30   12.00
   4   3 -17   11.80    7.50
   3  -7 -17   -7.90    8.50
   4   3 -17    3.30   14.40
   7  -4  17   -9.90    6.90
  -4  -3  17   -3.00   10.80
  -3   7  17   17.30    7.80
  -4  -3  17   -9.60    7.20
  -7   7 -17   -3.10    8.90
   0  -7 -17   14.20    8.50
   7   0 -17   -8.50    7.80
   7   0 -17   -2.60   11.80
   7   0 -17    0.80   10.80
  -7   7 -17  -11.80    8.60
   7  -7  17    3.50    6.10
   0   7  17   -2.80    7.10
  -7   0  17   -7.50   17.80
  -7   0  17  -12.50    8.40
   7  -7  17  -16.30    7.70
   0   7  17   19.40    9.00
  -3  -7 -17    3.10   10.20
  -7  10 -17   -9.40   10.40
  -7  10 -17  -10.40    8.60
  10  -3 -17   -3.60    9.10
   3   7  17    8.20    7.30
 -10   3  17   20.70   13.20
 -10   3  17   -7.00    9.20
  -7  13 -17   19.30   10.50
  13  -6 -17   20.00    9.70
  13  -6 -17   29.90   17.50
  -6  -7 -17   18.80   23.20
  -7  13 -17   13.70   10.80
   7 -13  17    7.60    7.50
   6   7  17    7.40    8.10
 -13   6  17   -9.90   13.10
   6   7  17    7.30    8.40
  -8  -6 -17   19.60   14.40
  14  -8 -17    2.60   10.40
  14  -8 -17   -6.00   17.10
  -8  -6 -17    6.50   23.00
   8   6  17   -6.00    8.60
 -14   8  17   21.00   15.00
   6 -14  17   -0.70    7.80
   8   6  17   21.30   11.40
   8   6  17   -3.40    8.80
  -3  11 -17   -6.30    9.20
  -3  11 -17   -7.30    9.20
  -8  -3 -17  -19.60   19.70
  -8  -3 -17    8.00   13.40
  -8  -3 -17    2.60    9.70
   3 -11  17   -8.00   12.60
   8   3  17   -0.40    6.90
   3 -11  17   -6.60    5.70
 -11   8  17    0.60    9.50
 -11   8  17   27.80   13.40
   0   8 -17  -10.40    8.30
  -8   0 -17    2.50   21.90
   8  -8 -17    2.00    9.90
   8   0  17  -10.00    6.80
  -8   8  17   26.30   12.10
  -8   8  17   -1.00   17.20
   0  -8  17    2.90   11.60
  -8   8  17   -0.90    7.60
   8   0  17    0.20    7.40
   3   5 -17   -1.80    7.10
   5  -8 -17   12.80    9.40
   3   5 -17   11.10   10.10
  -8   3 -17    2.30    8.70
  -3  -5  17   15.70   11.80
   8  -3  17   -2.60    6.50
   8  -3  17    6.10    6.20
  -5   8  17    6.40    7.10
  -8   6 -17   -4.30    9.10
   6   2 -17   -4.50   10.40
   6   2 -17    3.90    8.20
   2  -8 -17   -0.40    9.40
   6   2 -17   10.60   12.70
  -6  -2  17  -25.80   20.40
   8  -6  17   -3.10    6.60
  -2   8  17    5.50    6.70
  -6  -2  17  -12.50    7.20
  -8   9 -17    7.20    9.50
  -1  -8 -17   -1.50   11.50
  -8   9 -17   -7.40    8.70
   9  -1 -17   12.50   10.50
   8  -9  17    0.70    5.80
   1   8  17  -11.10    7.60
   8  -9  17  -11.40    8.70
  -9   1  17   -3.10   10.20
   1   8  17    2.80    6.70
  -9   1  17   -1.10    9.90
  -8  12 -17   -1.30   11.80
  12  -4 -17  -31.10   15.30
  -8  12 -17    0.80   10.00
  12  -4 -17  -14.60    9.70
  -4  -8 -17  -11.20   12.00
 -12   4  17   23.00   11.20
   4   8  17  -11.80    8.60
 -12   4  17  -13.50   11.20
   8 -12  17    5.70    7.20
   4   8  17   -6.30    9.00
   4   8  17   -5.70    9.70
  15  -7 -17   29.10   11.70
  -8  15 -17   25.00   12.80
  15  -7 -17    5.60   18.40
   7   8  17    3.60    8.60
 -15   7  17    1.80   14.30
   7   8  17   14.80    9.70
  16  -9 -17    1.50   21.80
  -9  -7 -17   26.30   16.70
  16  -9 -17    7.00   13.10
  -7  16 -17  -16.30   13.00
 -16   9  17  -27.90   14.10
   7 -16  17   -2.40    7.50
   9   7  17   18.80    9.40
   9   7  17  -12.30   13.80
 -16   9  17  -21.70   14.80
  13  -9 -17   29.60   16.20
  -9  -4 -17   23.40   13.30
  13  -9 -17    3.70   13.00
  -4  13 -17   11.00   10.90
  -9  -4 -17   23.40   23.70
 -13   9  17    8.20   14.30
 -13   9  17   -7.60   19.80
   9   4  17   -6.00    8.30
 -13   9  17    7.40   10.50
  -9  -1 -17   -6.10    8.00
  -9  -1 -17   12.90   22.20
  -1  10 -17   21.90    9.40
  10  -9 -17    2.80    9.20
  -1  10 -17  -12.80    8.60
 -10   9  17   11.30   12.30
 -10   9  17  -20.00   23.60
   1 -10  17    1.10    6.50
   9   1  17    4.20    7.40
   1 -10  17  -13.80   14.30
   9   1  17    2.20    7.30
   2   7 -17    6.90    7.50
   7  -9 -17   11.70   10.70
  -9   2 -17  -14.60   10.80
  -9   2 -17  -12.70   11.20
  -7   9  17  -12.80   13.90
   9  -2  17  -11.00    6.90
  -7   9  17   10.80    9.10
  -2  -7  17    9.60    7.60
  -2  -7  17  -17.90   13.40
  -7   9  17   -4.50    7.30
   9  -2  17   -2.90    7.60
   4  -9 -17   14.50   10.20
   5   4 -17   13.30    8.40
  -9   5 -17  -12.30    7.90
   5   4 -17   -7.90   14.20
   9  -5  17   -8.60    6.70
  -4   9  17   -0.10    6.90
  -4   9  17   -6.70    8.50
  -5  -4  17   -4.50    8.10
  -5  -4  17  -14.90   10.00
  -9   8 -17   -1.70    9.00
   8   1 -17   10.80   11.40
   1  -9 -17    0.70    9.70
  -8  -1  17  -16.00    9.20
  -8  -1  17  -15.20   17.30
  -1   9  17   -3.10    7.60
  -1   9  17   13.70    7.90
   9  -8  17   -9.90    6.90
   9  -8  17  -10.90    6.70
  -9  11 -17   -7.60    9.70
  11  -2 -17   -1.30   16.20
  -2  -9 -17   18.90   11.30
  11  -2 -17    3.10    9.40
  -9  11 -17    7.80   10.50
   9 -11  17   18.50    7.30
 -11   2  17    9.20   13.20
   9 -11  17    5.00    7.80
 -11   2  17    8.90   11.20
   2   9  17   -3.70    9.40
  14  -5 -17   28.40   18.20
  -9  14 -17   32.10   11.40
  -9  14 -17   26.80   12.80
  -5  -9 -17    4.70   13.60
 -14   5  17   31.40   12.60
   9 -14  17   14.90    9.10
   5   9  17   28.20    8.80
  -8  -9 -17  -33.70   16.70
 -17   8  17   -0.40   16.90
   8   9  17  -10.10   11.50
 -17   8  17   33.60   22.00
  15 -10 -17  -11.90   12.10
 -10  -5 -17   -0.70   15.20
  -5  15 -17    5.10   10.50
 -15  10  17  -11.80   14.10
  10   5  17    7.50    9.10
  10   5  17   -1.60    8.70
   5 -15  17  -10.60    7.60
  10   5  17   11.00   13.10
 -10  -2 -17   24.20   14.80
  -2  12 -17   12.10    9.70
  -2  12 -17   23.00   10.20
   2 -12  17   12.30    6.80
 -12  10  17  -16.30   22.30
  10   2  17    5.00    8.00
 -12  10  17   -0.70   13.20
 -10   1 -17  -12.30    8.60
 -10   1 -17  -21.60   13.10
   1   9 -17    5.80    8.70
 -10   1 -17   -0.70   10.70
   1   9 -17    3.30    8.40
  -9  10  17   -9.10   19.10
  10  -1  17   10.10    7.60
  10  -1  17   -2.00    7.50
  -9  10  17   -2.70    9.90
   4   6 -17   16.80    8.20
 -10   4 -17   17.70    9.30
  -4  -6  17   -1.10   12.30
  -6  10  17    3.90    7.20
  10  -4  17   10.20    6.70
  -4  -6  17    1.50    8.70
  -6  10  17   -7.70    8.70
   3 -10 -17  -13.90    9.40
   7   3 -17   -5.80   12.00
 -10   7 -17   -1.10    7.80
   7   3 -17    6.00   11.00
  -3  10  17  -10.20    7.40
  -7  -3  17    2.50    9.30
  10  -7  17    1.40    7.80
  10  -7  17   -3.90    7.00
  -3  10  17   -2.80    8.50
  -7  -3  17  -17.20   10.90
  10   0 -17    1.10    9.00
 -10  10 -17   12.70   11.10
   0 -10 -17   28.40   11.10
 -10  10 -17    3.60   11.80
 -10   0  17    9.90   10.40
 -10   0  17   13.40   11.70
   0  10  17    2.10    8.70
 -10  13 -17  -12.10   11.00
  -3 -10 -17    4.00   11.80
 -10  13 -17   -4.00   12.50
   3  10  17    6.50   10.30
   3  10  17   18.90   10.60
  10 -13  17    2.60   29.30
 -13   3  17   -9.50   11.60
   3  10  17    1.70    9.50
 -13   3  17   -7.10   13.40
  16  -6 -17    4.70   11.60
 -10  16 -17   26.60   12.90
  -6 -10 -17   -6.20   15.70
 -10  16 -17  -10.10   14.10
  16  -6 -17   36.30   19.10
   6  10  17   14.70   11.70
  10 -16  17    5.60    9.20
 -16   6  17   -7.20   16.30
 -16   6  17   52.09   27.10
   6  10  17   -8.40    7.70
  -3  14 -17   11.30   10.20
  14 -11 -17    1.20   10.80
 -11  -3 -17   36.70   12.30
  14 -11 -17   22.30   18.30
  -3  14 -17   29.50   13.90
  11   3  17   16.90    9.70
   3 -14  17   -2.00    6.70
 -14  11  17    5.60   15.40
 -14  11  17   31.60   15.50
  11   3  17   10.40    8.40
 -14  11  17   -8.90   11.00
  11 -11 -17   19.80   11.20
 -11   0 -17    5.70    9.50
 -11   0 -17   12.40   12.60
   0  11 -17   -4.80   10.40
   0 -11  17    5.20   14.10
 -11  11  17   26.70   28.40
  11   0  17   11.20    7.50
  11   0  17   16.20    8.40
 -11  11  17    1.60    8.60
   0 -11  17   22.40    7.10
   8 -11 -17   19.60   10.40
   3   8 -17    5.90    9.30
 -11   3 -17    5.60   10.60
 -11   3 -17   -5.10    9.50
   3   8 -17   -2.40    8.10
 -11   3 -17  -10.60   12.40
  -8  11  17  -14.90    8.30
  11  -3  17   -2.60    6.50
  -8  11  17   -5.30    9.40
  -8  11  17  -11.80   15.40
  11  -3  17    1.00    6.80
  -3  -8  17  -23.80   12.10
   6   5 -17   22.70   16.20
 -11   6 -17    3.20    8.80
   6   5 -17   -0.80    8.00
  -6  -5  17   32.70   10.60
  -6  -5  17   11.20    9.10
  -5  11  17   19.90    9.30
  11  -6  17   16.60    7.50
  -5  11  17    0.00    8.60
   9   2 -17    4.30   12.00
 -11   9 -17   -8.50   10.10
   9   2 -17   -7.20    8.40
   2 -11 -17  -14.30   10.00
  -9  -2  17   -7.70   10.50
  11  -9  17    5.10    7.70
  -2  11  17    4.10    7.50
  -9  -2  17    4.70   10.10
  -2  11  17   -8.80    8.70
 -11  12 -17   -1.80   11.90
  12  -1 -17  -18.50   17.70
  12  -1 -17   -1.90   10.40
 -11  12 -17   -3.10   11.50
  -1 -11 -17   14.60   12.30
   1  11  17   -7.80   10.30
  11 -12  17   -4.40   14.40
 -12   1  17   -4.30   12.80
   1  11  17   -6.90    9.10
  11 -12  17    9.60    8.30
 -12   1  17   12.80   12.20
  15  -4 -17   60.29   23.90
  15  -4 -17   24.80   10.60
   4  11  17   24.10   14.80
   4  11  17   11.90   10.60
  11 -15  17   25.20   10.10
 -12  -4 -17   30.00   11.90
 -12  -4 -17   17.70   15.60
  -4  16 -17   15.00   14.30
  16 -12 -17   12.80   12.80
  12   4  17   16.90    8.30
 -16  12  17   13.50   16.10
   4 -16  17  -16.00   15.80
  12   4  17   32.30   10.60
 -16  12  17   -6.70   18.80
  13 -12 -17   18.20   11.60
 -12  -1 -17   12.00   15.70
 -12  -1 -17   -2.90   10.70
 -12  -1 -17   -2.80   11.40
  -1  13 -17   12.80    9.70
  12   1  17    5.50    9.20
 -13  12  17   12.40   10.30
   1 -13  17   22.30    7.20
 -13  12  17   10.90   16.90
 -13  12  17   15.20   14.40
   1 -13  17   15.70   12.60
 -13  12  17   10.80   13.20
  12   1  17   12.30   10.10
 -12   2 -17    5.00   11.00
 -12   2 -17    5.90   14.70
   2  10 -17   10.90    9.20
 -12   2 -17   16.70   10.20
  10 -12 -17   17.90    9.90
   2  10 -17    1.00    9.20
  12  -2  17    0.20    7.30
  -2 -10  17   18.40    8.20
 -10  12  17  -19.50   23.50
 -10  12  17   14.30   11.50
  -2 -10  17   38.80   15.50
  12  -2  17    6.10    6.60
 -10  12  17   -8.80    9.40
   7 -12 -17   12.00   10.80
 -12   5 -17    0.90   10.30
   5   7 -17   14.70    9.20
 -12   5 -17   -4.10   11.70
  -7  12  17   11.90    8.60
  12  -5  17    3.40    6.50
  -5  -7  17   -8.70    8.90
  12  -5  17   -5.00    6.90
  -7  12  17   18.30   10.40
 -12   8 -17  -11.80    8.90
   8   4 -17   -2.40   11.20
   4 -12 -17    8.70    9.80
   8   4 -17  -10.60   11.90
  -8  -4  17   19.70    9.90
  -4  12  17  -15.80    9.90
  12  -8  17    3.70    6.70
  -8  -4  17   11.50   11.00
  -4  12  17   -1.60    8.50
  12  -8  17    1.60    8.20
  -4  12  17   -6.60    9.50
  11   1 -17    5.80    9.10
 -12  11 -17   21.50   12.20
 -12  11 -17   -4.70   11.10
  -1  12  17   -7.70    8.40
  -1  12  17  -11.00    9.40
  -1  12  17    5.70   10.50
  12 -11  17   -8.50   12.80
 -11  -1  17   -3.60   10.90
 -11  -1  17   14.10   11.40
  -2 -12 -17   -5.20   14.30
 -12  14 -17  -25.90   12.50
 -12  14 -17  -16.50   12.10
 -14   2  17   -0.20   13.40
 -14   2  17  -20.00   11.80
   2  12  17   -1.40    7.80
  12 -14  17  -17.30    9.40
   2  12  17   13.10   12.30
 -13  -2 -17   -3.90   14.30
  -2  15 -17  -15.40   13.40
  15 -13 -17   26.90   19.90
  15 -13 -17   13.80   11.70
  -2  15 -17   12.20   11.10
 -13  -2 -17  -25.30   12.80
 -15  13  17  -23.70   13.90
  13   2  17    7.90    8.80
   2 -15  17  -23.50   22.80
 -15  13  17  -14.30   15.90
  13   2  17   10.50    8.60
 -15  13  17   -7.80   15.20
   2 -15  17   -3.20    7.00
 -15  13  17  -24.60   12.40
 -13   1 -17    1.80   11.50
   1  12 -17   19.10   11.80
 -13   1 -17    8.80   12.50
 -13   1 -17   40.20   15.30
 -12  13  17   26.50   10.20
  -1 -12  17   16.70   13.30
 -12  13  17   24.70   31.40
 -12  13  17   19.30   12.40
 -12  13  17   30.60   14.90
 -12  13  17   -2.20   12.90
  13  -1  17   18.30    8.90
 -13   4 -17  -15.00    9.60
 -13   4 -17   24.30   13.90
   4   9 -17   -4.20    9.10
   4   9 -17  -17.50    9.50
  -9  13  17   14.50   10.40
  -9  13  17   -3.60   10.20
  -4  -9  17    3.30   13.40
  13  -4  17    1.10    7.10
  -9  13  17   -3.40   12.00
  13  -4  17   -0.30    7.20
   7   6 -17   -5.80   15.60
 -13   7 -17    4.60   10.50
   6 -13 -17   13.40   11.90
   7   6 -17  -10.50    9.30
  13  -7  17    8.70    7.00
  -6  13  17  -10.30    9.90
  -7  -6  17   10.90   11.80
  -6  13  17    2.10   10.30
  -6  13  17   14.20   11.40
 -13  10 -17   14.50   10.90
   3 -13 -17  -11.80   12.10
  10   3 -17   -0.80   12.30
  13 -10  17    2.20    7.00
  13 -10  17    9.00   13.40
  -3  13  17  -14.10    9.60
  -3  13  17  -16.60   10.10
  -3  13  17    0.50    8.60
 -10  -3  17   -5.70   10.50
  13   0 -17   16.20   10.50
  13   0 -17   -6.50   23.40
   0 -13 -17    6.60   13.20
 -13  13 -17   -4.80   11.40
   0  13  17  -15.00   10.50
   0  13  17    2.60    9.70
 -13   0  17  -11.40   13.30
   0  13  17    3.50   14.00
  -3 -13 -17   20.50   15.70
 -16   3  17    6.90   15.30
 -16   3  17   10.60   14.80
   3  13  17   10.50   10.30
   3  13  17    5.60   11.80
  13 -16  17   25.40    9.80
  14 -14 -17   24.10   11.90
 -14   0 -17   -8.70   11.90
   0  14 -17   -8.80   10.00
   0  14 -17    7.70   13.40
 -14   0 -17   -3.40   15.80
   0 -14  17   16.70    8.20
 -14  14  17   19.30   15.40
  14   0  17   17.00    8.00
  14   0  17   -9.30    8.70
 -14  14  17   -8.20   11.10
 -14  14  17  -22.30   16.60
 -14  14  17  -20.70   12.20
 -14  14  17   17.70   17.60
   3  11 -17    5.70   12.40
   3  11 -17   -0.60   10.10
 -14   3 -17   -2.20   11.50
 -14   3 -17  -17.60   15.10
 -14   3 -17  -16.10   11.10
  -3 -11  17   19.70   15.30
 -11  14  17   16.90   12.60
  14  -3  17   12.00    8.20
 -11  14  17    2.70   10.50
  -3 -11  17   20.30    8.30
 -11  14  17    4.70   14.10
   8 -14 -17    8.40   11.10
 -14   6 -17    1.90   12.20
   6   8 -17   14.30   10.40
   6   8 -17   13.90    9.40
 -14   6 -17  -10.00   10.80
  -6  -8  17    3.60   12.40
  -6  -8  17    1.70    9.30
  -8  14  17  -16.80    9.30
  14  -6  17   13.70    7.20
  14  -6  17    0.50    7.10
  -8  14  17  -12.40   11.10
  -8  14  17   -3.80   10.50
 -14   9 -17   -8.10   11.00
   9   5 -17  -10.10    9.30
   9   5 -17   -2.80   13.60
  -9  -5  17  -17.10   11.50
  14  -9  17    4.70    7.50
  -5  14  17  -11.90    9.80
  -5  14  17   -8.40   10.40
  -9  -5  17    1.50   10.50
  12   2 -17  -16.80   10.50
 -14  12 -17  -20.50   12.10
 -14  12 -17    3.60   10.10
  12   2 -17   -3.10   11.40
 -12  -2  17   -2.50   11.10
 -12  -2  17    0.60   12.60
  14 -12  17  -10.00    8.90
  -2  14  17  -23.00   17.60
  -2  14  17    8.30   10.10
  -2  14  17   -8.00    9.20
  15  -1 -17   24.80   31.80
 -15   1  17   19.60   16.70
  14 -15  17    5.30   10.40
   1  14  17   -5.50   10.30
  13 -15 -17    5.20   12.50
 -15   2 -17   -9.10   15.70
   2  13 -17   12.10   10.70
 -15   2 -17   23.60   12.30
   2  13 -17    1.00   13.60
  -2 -13  17  -11.20    8.90
 -13  15  17    7.70   13.40
 -13  15  17  -17.10   13.50
 -13  15  17   -0.40   10.60
 -13  15  17   22.60   15.20
  15  -2  17    4.60    8.20
  15  -2  17    9.00    9.50
  -2 -13  17  -36.10   23.20
  10 -15 -17  -19.40   12.60
   5  10 -17    0.50   10.60
 -15   5 -17   -5.70   11.20
 -15   5 -17   12.10   12.00
  15  -5  17    4.40    7.80
  -5 -10  17   16.50    9.60
  15  -5  17    1.20    9.00
 -10  15  17   21.90   14.00
  -5 -10  17   13.20   15.10
 -10  15  17    2.80    9.70
 -10  15  17    6.10   10.70
 -15   8 -17   -9.50   14.40
   8   7 -17    2.10   10.70
 -15   8 -17   19.50   11.70
   7 -15 -17    1.20   12.60
  -7  15  17   20.40   12.70
  15  -8  17   -3.00    7.30
  -7  15  17    0.40   11.30
  -7  15  17   -0.90   11.20
  15  -8  17    8.80    8.70
  -8  -7  17  -24.10   12.70
  -8  -7  17   -2.70   10.80
 -15  11 -17   11.30   15.90
   4 -15 -17   21.40   11.80
 -11  -4  17   10.90   13.60
 -11  -4  17   16.80   13.00
  15 -11  17    6.80    9.10
  -4  15  17   -4.90    9.50
  14   1 -17   11.80   26.10
 -15  14 -17   -8.40   13.20
   1 -15 -17   23.60   15.10
 -14  -1  17    5.90   13.90
  -1  15  17    4.70   11.20
 -14  -1  17   -5.60   13.20
  -1  15  17   -6.50   10.70
   4  12 -17  -13.10   12.80
 -16   4 -17   23.00   12.90
 -16   4 -17   -7.10   16.90
 -16   4 -17   -6.20   14.20
  -4 -12  17  -17.50   16.50
 -12  16  17   -6.30   10.10
  -4 -12  17  -16.90    9.10
 -12  16  17   -3.40   13.30
  16  -4  17   -9.10    9.10
  16  -4  17    5.40    8.30
  16  -4  17  -10.50    8.70
 -16   7 -17   29.60   12.50
 -16   7 -17    9.90   15.90
   7   9 -17   20.70   10.40
  -7  -9  17   24.50   10.30
  -7  -9  17   11.20   13.80
  -9  16  17   22.90   13.60
  16  -7  17   31.20    8.50
  10   6 -17  -24.10   12.90
  10   6 -17   -3.80   10.90
 -16  10 -17   -7.00   13.30
 -10  -6  17  -11.50   12.30
  -6  16  17    3.00   14.20
  16 -10  17  -13.20    9.10
  -6  16  17  -12.00   13.50
  -6  16  17   11.20   12.80
 -10  -6  17    9.20   11.10
   3 -16 -17   -0.70   15.20
  16 -13  17   24.30   10.80
 -13  -3  17   15.60   14.30
  -3  16  17    7.10   10.80
  -3  16  17   24.90   11.10
   8 -17 -17   27.00   14.80
  17  -9  17   23.20    9.10
  -9  -8  17    1.20   14.10
  -8  17  17    7.20   10.90
  -9  -8  17    9.00   11.20
  -8  17  17   -6.20   12.50
   0   0 -18    3.80    9.30
   0   0 -18   35.60   17.30
   0   0 -18   24.20    8.70
   0   0  18   18.80    5.40
  -1   2 -18   14.60    8.90
   2  -1 -18   18.50   15.70
   2  -1 -18   -1.60    8.00
   2  -1 -18    6.90   10.20
  -1  -1 -18    9.80    8.50
  -1  -1 -18   -9.00    9.60
  -2   1  18    2.80   21.00
   1   1  18   -4.90    8.40
  -2   1  18   12.30    6.30
   1  -2  18    8.30    5.60
   1   1  18    8.40    5.80
  -2   1 -18    4.60    9.40
  -2   1 -18    3.60    7.80
   1   1 -18   28.70   34.80
   1  -2 -18    1.80    8.80
   1  -2 -18  -12.70   12.30
   1   1 -18    7.80    8.80
  -2   1 -18   -4.90   17.50
   1   1 -18    4.00    9.50
   1  -2 -18   22.70   10.00
  -1   2  18    6.70    5.70
  -1  -1  18   30.50   23.50
  -1  -1  18    9.10    6.80
   4  -2 -18  -21.70   16.40
   4  -2 -18   -2.00   18.20
  -2   4 -18   12.50    7.80
  -2  -2 -18  -15.90    8.40
   4  -2 -18   -3.60    9.50
  -2   4 -18   12.20    8.20
   2   2  18   -2.10    6.90
   2  -4  18    7.60    5.20
  -4   2  18  -12.50   19.30
  -4   2  18    0.40    7.00
   2   2  18   13.50    8.60
  -3   0 -18   -6.00   10.30
   3  -3 -18   26.00   13.90
  -3   0 -18  -13.90   15.20
   0   3 -18    9.80    7.50
  -3   0 -18   -7.60    7.70
   0   3 -18   14.10    8.00
   3   0  18  -14.50    7.70
   0  -3  18   -8.50   22.90
  -3   3  18  -28.10   17.70
  -3   3  18   -2.20    6.30
   3   0  18   -1.80    5.30
   0  -3 -18  -12.60   10.70
  -3   3 -18    1.90    8.60
   3   0 -18    2.60   10.40
   3   0 -18    5.90   12.90
  -3   0  18  -20.90   24.40
   0   3  18    6.60    5.50
   3  -3  18   14.40    9.00
  -3   6 -18    6.20    7.90
  -3   6 -18    0.30    9.50
   6  -3 -18  -15.40    9.60
  -3  -3 -18  -10.30   10.70
  -3  -3 -18   16.70    9.30
   3   3  18   -2.60    7.60
   3   3  18   18.30    6.90
  -6   3  18   -0.10   19.80
   3  -6  18    4.70    5.80
  -6   3  18    4.00    7.90
  -1   5 -18   15.20    8.10
   5  -4 -18   -4.80    8.90
  -4  -1 -18  -12.80   17.60
   5  -4 -18  -24.00   16.40
  -4  -1 -18  -20.00   13.60
  -4  -1 -18    9.70   11.80
   4   1  18    0.80    7.20
  -5   4  18    5.10    6.80
   1  -5  18    8.70    6.20
  -5   4  18   11.50   19.40
   1  -5  18   -1.70   14.60
   4   1  18   -6.00    6.80
  -4   2 -18  -15.60    8.10
   2   2 -18   -2.80   10.50
  -4   2 -18   44.30   21.50
  -4   2 -18   -8.10    9.60
   2   2 -18    8.70    7.80
   4  -2  18    1.50    6.40
  -2   4  18  -11.00   10.30
   4  -2  18   -2.80    7.40
  -2  -2  18   -3.10   26.50
  -1  -4 -18   -8.70    9.30
  -4   5 -18   -8.80    8.20
  -1  -4 -18  -14.20    8.20
  -4   5 -18   13.30    8.10
   5  -1 -18   -5.40   15.70
   1   4  18   -9.70    7.30
   4  -5  18    5.20    5.90
   1   4  18    9.40    7.60
  -5   1  18  -35.10   24.40
  -5   1  18  -10.90    6.70
  -4  -4 -18    4.80    9.30
   8  -4 -18  -10.80    8.50
  -4   8 -18   -8.50    9.10
   4   4  18  -11.50    6.90
  -8   4  18  -21.80   23.30
  -8   4  18    8.20   22.40
   4   4  18   -4.40    6.80
  -8   4  18    8.80    8.50
   7  -5 -18    0.70   20.50
  -5  -2 -18   10.70    8.60
  -2   7 -18   -5.70    9.00
  -2   7 -18   -3.70    7.50
  -5  -2 -18    1.10   15.60
  -7   5  18   -6.50   19.20
   5   2  18  -11.60    7.40
  -7   5  18    5.80    7.00
   2  -7  18   -8.80   13.60
   2  -7  18    0.60    6.30
   5   2  18  -10.90    7.40
  -5   1 -18    5.70    8.50
   4  -5 -18   11.30   10.00
  -5   1 -18   12.60   18.30
   1   4 -18   13.90    9.20
  -5   1 -18    3.50   11.10
   1   4 -18    7.60    7.40
  -1  -4  18    2.30    6.80
  -4   5  18    5.30    6.80
  -4   5  18    9.80   10.30
  -1  -4  18   -5.30   16.30
   4   1 -18   13.80   16.30
  -5   4 -18   20.30    8.20
   1  -5 -18   18.60   10.80
   5  -4  18    3.60    6.20
  -1   5  18   17.30    9.20
  -4  -1  18   12.00    8.20
  -4  -1  18    0.60   12.50
   7  -2 -18   25.10   10.50
  -2  -5 -18  -11.30    9.40
  -7   2  18  -25.80   22.30
  -7   2  18    9.60   11.20
   5  -7  18   -9.60    6.40
   2   5  18   -3.90    8.40
   2   5  18    3.50    7.00
  -5  -5 -18   -3.20   10.70
  10  -5 -18   -8.50    8.50
  -5  10 -18   -2.80   10.00
   5 -10  18   -9.50    5.70
   5   5  18  -10.20    7.30
   5   5  18   -5.80    7.50
 -10   5  18    3.20   14.50
  -3   9 -18    9.00   10.10
  -6  -3 -18    0.50   15.40
   9  -6 -18   19.30    9.50
  -3   9 -18    3.70    8.10
  -6  -3 -18   21.80   11.80
  -6  -3 -18  -11.40   10.50
  -9   6  18   10.20    6.90
   3  -9  18   19.30   13.40
   6   3  18   -4.40    7.00
  -9   6  18    3.70   25.00
   6   3  18    1.30    6.50
   0   6 -18   18.30    8.30
   6  -6 -18    3.50    9.40
  -6   0 -18  -10.70   19.30
  -6   0 -18   13.30   12.20
   0   6 -18   10.40    8.00
  -6   0 -18   18.30   17.90
  -6   6  18   -1.10   15.70
  -6   6  18    5.00   11.40
   0  -6  18   13.80    6.60
   6   0  18   14.70    8.70
   3  -6 -18    9.80    9.90
  -6   3 -18   15.70    9.60
   6  -3  18   25.80    7.90
  -3   6  18    7.80    6.00
  -3   6  18   17.70    9.70
   6  -3  18   13.70    6.40
  -3  -3  18   -5.60   13.60
  -6   6 -18   -0.90    7.30
   6   0 -18    6.80   13.50
  -6   6 -18   -7.10    8.00
  -6   0  18    7.10    7.20
   0   6  18   15.60    9.30
   6  -6  18    5.10    8.70
   0   6  18  -11.90    7.50
   6  -6  18   -1.70    6.00
  -6   0  18  -34.10   23.10
  -6   0  18   -4.80   12.70
  -6   9 -18  -13.90    8.80
  -6   9 -18    0.00    9.00
  -3  -6 -18   11.40   11.60
   6  -9  18   -7.60    6.70
  -9   3  18   11.90   12.70
   3   6  18   -8.00    8.40
  -9   3  18  -12.00    7.30
   3   6  18   -2.30    7.50
  12  -6 -18    1.00   10.60
  -6  12 -18   10.10   10.90
  -6  -6 -18  -10.80   13.30
  -6  12 -18   11.00   10.40
 -12   6  18    6.10   14.00
   6 -12  18   -3.50    6.70
 -12   6  18    6.70   10.40
   6   6  18   -3.40    8.40
  -4  11 -18    6.30    8.90
  -7  -4 -18    2.60   18.00
  11  -7 -18   -4.30   10.00
 -11   7  18   -3.40   15.20
   7   4  18    3.90    8.30
   8  -7 -18   18.80   11.00
  -1   8 -18    5.00    8.20
  -7  -1 -18   -9.40   19.50
  -7  -1 -18  -17.40   17.50
  -7  -1 -18   -4.30    9.10
  -7  -1 -18   -3.50   11.20
   7   1  18   -2.20    7.40
   1  -8  18   -4.70    6.50
   7   1  18   -6.20    6.50
  -8   7  18    4.30   11.60
   1  -8  18   18.20   13.90
  -8   7  18  -19.20   18.90
  -8   7  18  -12.30    6.70
   2   5 -18    5.50    8.30
   5  -7 -18   -7.40    8.50
  -7   2 -18    1.70    9.70
  -7   2 -18   22.50   10.80
   2   5 -18   21.00    9.10
  -2  -5  18   -7.60   13.40
  -2  -5  18   11.00    7.60
   7  -2  18   11.30    7.30
   7  -2  18   -1.50    7.20
  -5   7  18   -6.70    8.90
  -5   7  18   11.00    6.80
   2  -7 -18   -6.50   10.00
   5   2 -18   10.60    8.80
   5   2 -18   12.50   14.90
   5   2 -18   17.80   10.00
  -7   5 -18   -4.30    8.60
   7  -5  18  -10.50    6.80
  -5  -2  18   14.10   13.80
  -2   7  18  -14.40    6.70
   7  -5  18    0.30    6.30
  -2   7  18   16.50    8.60
  -7   8 -18  -13.50    9.40
  -7   8 -18   -2.50    9.00
   8  -1 -18    3.50   10.60
   1   7  18   -5.80    7.00
   1   7  18    1.30    7.40
  -8   1  18    1.00   22.70
  -8   1  18    0.20    8.80
  -8   1  18    1.70   11.40
   7  -8  18    4.60    5.90
  -7  11 -18    7.00    9.80
  -7  11 -18   -2.90   10.20
  -4  -7 -18  -14.30   11.60
   4   7  18  -10.00    8.00
 -11   4  18   11.80   13.60
   4   7  18   -1.90    8.60
 -11   4  18   14.00   10.20
  14  -7 -18   15.50   18.10
  14  -7 -18   14.20   11.60
 -14   7  18   28.80   14.70
   7   7  18    9.90    8.90
  -5  13 -18   -5.40   10.80
  -8  -5 -18  -21.00   25.00
  -8  -5 -18   17.70   13.50
  13  -8 -18  -24.40   18.00
  13  -8 -18    5.90   10.70
   5 -13  18   -1.50    6.90
 -13   8  18    1.70   14.40
   8   5  18    7.20    7.60
 -13   8  18   -6.90   11.30
  -8  -2 -18   18.70   14.80
  -8  -2 -18    6.50   19.80
  -2  10 -18    7.70    8.60
  -8  -2 -18   16.60   10.90
  10  -8 -18    1.90    9.70
  -2  10 -18  -10.90   10.20
   8   2  18   -7.00    8.00
   2 -10  18   -3.30   12.90
 -10   8  18   -6.60   25.10
   2 -10  18    7.60    6.00
 -10   8  18   13.10    9.10
   7  -8 -18    6.90    9.70
   1   7 -18   15.00    8.00
  -8   1 -18   10.40    9.10
  -8   1 -18   -2.20   11.70
  -8   1 -18   -0.50   21.80
  -7   8  18   -9.20   15.90
  -1  -7  18   29.40   14.60
  -1  -7  18   -8.00    7.50
   8  -1  18    6.10    7.00
  -7   8  18    7.00   10.30
   4  -8 -18   15.40   10.50
  -8   4 -18  -16.10    9.60
   4   4 -18    2.90    8.10
   4   4 -18  -19.00   14.80
  -4   8  18   -0.40    6.70
  -4   8  18    4.80    9.30
   8  -4  18   -2.60    6.00
   8  -4  18    5.80    6.50
  -4  -4  18    8.50    8.20
   1  -8 -18   -3.60   10.50
   7   1 -18    3.00    8.80
   7   1 -18   15.00   10.90
  -8   7 -18  -18.00    9.00
   7   1 -18    7.70   12.30
  -8   7 -18    1.80    8.50
  -1   8  18   -6.70    8.60
   8  -7  18    6.50    7.40
  -7  -1  18   -6.30   10.80
  -7  -1  18   19.80   25.50
   8  -7  18   -7.30    6.40
  -1   8  18   -2.30    8.50
  -2  -8 -18   25.30   11.80
  -8  10 -18    7.20   10.50
  -8  10 -18   18.00    8.80
   8 -10  18   16.60    7.10
 -10   2  18    2.90   11.40
   2   8  18   -0.70    8.60
  -5  -8 -18   -4.40   13.80
  -8  13 -18    9.20   11.60
  -8  13 -18    0.90   12.80
  13  -5 -18    4.50   17.20
   5   8  18    1.40    9.50
   5   8  18   -0.80    9.60
 -13   5  18   -7.50   15.70
   8 -13  18   17.20    8.30
  -8  16 -18   33.80   13.60
  -8  -8 -18   16.70   16.50
  16  -8 -18    7.60   12.90
   8   8  18  -10.50    9.00
   8 -16  18    1.60    9.20
 -16   8  18    9.00   16.70
   8   8  18    9.10    9.50
  -9  -6 -18  -19.20   16.10
  15  -9 -18   -4.90   11.60
  15  -9 -18  -13.40   27.30
   9   6  18  -19.10    9.20
 -15   9  18   -5.40   15.80
 -15   9  18   -3.20   14.10
   9   6  18    2.20    8.50
   9   6  18   14.10   14.10
   6 -15  18    8.80    8.60
  -3  12 -18  -21.90   10.30
  -3  12 -18   -6.50    9.20
  -9  -3 -18   -2.40   12.00
  -9  -3 -18   -1.40   23.60
  12  -9 -18  -13.30   10.20
  -9  -3 -18   -6.60    8.80
 -12   9  18    5.40   20.80
   3 -12  18    0.30    6.20
   9   3  18   -8.30    8.20
 -12   9  18   -3.50   15.50
 -12   9  18    5.30    9.80
   0   9 -18   -7.60    9.00
  -9   0 -18   11.80    8.70
   0   9 -18  -13.80    8.40
   9  -9 -18  -17.50    9.90
   9   0  18  -12.40    6.80
  -9   9  18    4.80   11.60
   0  -9  18   -0.60    6.60
   0  -9  18    8.60   12.20
   9   0  18   -6.90    6.40
  -9   9  18    1.60   19.60
  -9   3 -18   19.80   13.90
   3   6 -18    3.30    7.40
  -9   3 -18   -5.70    9.40
  -3  -6  18   12.30    8.10
  -6   9  18    0.70    9.30
  -6   9  18   11.40    8.40
   9  -3  18  -11.60    7.30
  -3  -6  18   -1.10   13.70
   6   3 -18    7.40    8.60
   6   3 -18   -1.80   14.20
   3  -9 -18   19.50    9.80
   6   3 -18    5.50   10.90
  -6  -3  18   23.60    8.50
  -3   9  18    6.40    8.50
   9  -6  18    4.20    6.80
  -6  -3  18   -7.10   11.00
  -9   9 -18  -13.00   10.30
  -9   9 -18   14.70    9.60
   9   0 -18   -8.30   11.30
   0   9  18   -3.40    8.20
   9  -9  18    6.90    6.90
   0   9  18  -14.20    8.00
  -9   0  18   15.10   10.70
   9  -9  18   -8.80    7.90
  -9   0  18  -10.30   10.40
  -9  12 -18   -9.10   10.90
  12  -3 -18   -6.90   10.30
  -9  12 -18  -13.00   11.00
  -3  -9 -18   -2.50   12.70
   9 -12  18    0.60   10.70
   9 -12  18    7.10    7.50
   3   9  18    2.90    9.50
 -12   3  18    2.30   14.40
   3   9  18   -6.70    8.30
  15  -6 -18   39.70   11.80
  -6  -9 -18   20.30   15.70
  -9  15 -18   35.80   13.50
  15  -6 -18  -23.30   20.90
 -15   6  18   18.70   15.20
 -15   6  18    9.10   13.90
  14 -10 -18   -3.00   18.20
 -10  -4 -18   16.00   12.10
  14 -10 -18   -0.60   10.70
 -10  -4 -18   18.50   14.50
  -4  14 -18    5.50   12.50
 -14  10  18  -22.10   12.80
  10   4  18   -3.40    9.70
  10   4  18    4.30    7.60
 -14  10  18    1.00   15.60
   4 -14  18   17.60    7.70
  -1  11 -18  -10.90    8.50
 -10  -1 -18    8.60   14.40
 -10  -1 -18   20.00   11.00
  -1  11 -18   -2.80   10.30
   1 -11  18    6.70    6.90
 -11  10  18    2.30   27.30
 -11  10  18  -10.30    8.90
   1 -11  18   11.40   15.70
  10   1  18   17.90    8.00
  10   1  18   18.50    7.90
   8 -10 -18  -20.00   10.30
   2   8 -18   -5.10    8.90
 -10   2 -18    6.50   14.00
 -10   2 -18  -19.90    9.60
  -8  10  18    1.00    8.50
  -2  -8  18   -7.10    7.10
  -8  10  18  -10.10   16.20
  -2  -8  18   18.90   14.10
   5   5 -18    6.20   16.60
 -10   5 -18   13.60   10.20
  10  -5  18   -3.80    5.90
  -5  10  18   -0.30    9.10
  -5  -5  18    0.60    8.80
  -5  10  18    3.70    8.00
 -10   8 -18  -14.90    9.20
   8   2 -18    7.20   10.60
   2 -10 -18    6.30   11.50
  -2  10  18   -8.90    8.20
  10  -8  18   -3.60    7.50
  10  -8  18  -12.00    6.60
  -2  10  18   -7.80    8.60
  -8  -2  18    4.30    9.10
  -1 -10 -18   19.90   11.70
 -10  11 -18   -3.80   11.30
  11  -1 -18    3.70    9.80
   1  10  18   -6.30    8.20
   1  10  18   -6.50   10.50
 -11   1  18    5.10   12.10
   1  10  18    5.80    8.80
  10 -11  18   13.60    7.50
  10 -11  18    6.40    8.10
  14  -4 -18  -26.40   17.50
  -4 -10 -18  -17.90   12.90
  14  -4 -18   -4.60   11.30
 -10  14 -18   25.80   11.80
  10 -14  18    2.20    9.20
   4  10  18   -1.20   10.40
   4  10  18   -0.70    8.90
   4  10  18  -13.40    9.80
  10 -14  18    9.70    9.50
 -14   4  18   20.00   15.60
 -14   4  18    9.60   13.50
 -16  11  18   -6.00   14.80
 -16  11  18  -22.80   16.80
  11   5  18   -8.80   10.00
 -11  -2 -18   12.30   12.90
  13 -11 -18   15.30   10.30
 -11  -2 -18    5.30   12.50
 -11  -2 -18    0.00   15.30
   2 -13  18  -12.80    7.40
 -13  11  18  -18.90   17.00
  11   2  18    4.80    7.70
 -13  11  18    2.00   15.30
 -13  11  18   -3.40   11.70
 -13  11  18   25.50   13.40
  11   2  18   -2.80    8.00
   2 -13  18   -4.10   14.90
   1  10 -18   -6.80    9.50
  10 -11 -18    5.20   11.40
   1  10 -18   12.60    9.40
 -11   1 -18   -0.90   15.10
  11  -1  18   17.20    8.10
  -1 -10  18   28.80   14.10
 -10  11  18   11.10   11.00
 -10  11  18  -21.00   21.90
 -11   4 -18    1.00   10.00
   4   7 -18  -15.90    9.00
 -11   4 -18  -10.50   11.60
   4   7 -18   -4.70    7.90
  -4  -7  18   -4.40    8.00
  -4  -7  18    5.50   12.40
  -7  11  18   -4.30    7.90
  11  -4  18   -8.40    6.90
 -11   7 -18   24.40   10.70
   7   4 -18   10.20    9.60
   7   4 -18   -5.70   14.50
   4 -11 -18   16.70   10.70
  -4  11  18    3.00    9.00
  -7  -4  18    8.90   19.00
  -4  11  18   12.30   10.00
  11  -7  18   -6.40    7.40
 -11  10 -18  -16.60    9.90
 -11  10 -18  -10.10   10.90
  10   1 -18  -16.90   11.20
  10   1 -18    0.30    9.90
  11 -10  18   -9.50    7.90
  -1  11  18    0.30   10.90
  11 -10  18   -6.30    6.90
 -10  -1  18   -5.30   10.30
  -1  11  18   -6.70    8.60
 -10  -1  18   -4.00   10.80
  13  -2 -18   -1.30   11.30
  13  -2 -18  -26.00   18.50
 -11  13 -18   21.50   12.30
 -11  13 -18    0.90   12.90
  -2 -11 -18   31.70   14.70
 -13   2  18    3.30   11.60
   2  11  18  -16.00    9.70
  11 -13  18   17.80   10.20
 -13   2  18   14.60   15.50
   2  11  18   20.40    9.20
   5  11  18   16.40   10.10
 -16   5  18    5.40   13.90
   5  11  18   12.30   10.90
 -16   5  18  -13.00   14.30
  15 -12 -18   13.90   11.10
 -12  -3 -18   12.90   15.60
 -12  -3 -18    1.90   11.10
  15 -12 -18   21.00   20.40
  -3  15 -18    1.40   15.80
   3 -15  18   13.40   19.90
 -15  12  18   24.40   12.60
 -15  12  18  -12.10   16.20
  12   3  18    0.60   10.40
   3 -15  18    3.50    7.10
  12   3  18  -13.50    9.00
   0  12 -18    3.70    9.60
 -12   0 -18  -14.20   15.40
 -12   0 -18    2.20   11.80
   0  12 -18   -2.00   10.90
  12 -12 -18    1.70   10.10
  12   0  18   -1.40    8.00
 -12  12  18   -1.10   12.30
 -12  12  18   -6.20   31.60
  12   0  18   18.00    8.00
   0 -12  18  -12.10   13.00
 -12  12  18    8.90   12.00
   3   9 -18   17.20   10.40
   3   9 -18   10.70    9.60
 -12   3 -18    4.00   10.90
 -12   3 -18   -0.20   10.00
   9 -12 -18   11.80   11.00
  -9  12  18   29.70   10.50
  12  -3  18   19.20    7.20
  -3  -9  18  -16.30   14.30
  -3  -9  18    6.70    8.20
  -9  12  18  -12.20    9.30
   6 -12 -18   22.60   11.20
   6   6 -18    1.60    9.50
   6   6 -18    7.30   19.50
 -12   6 -18   12.40   12.00
  12  -6  18   -8.60    7.10
  -6  12  18   14.80   10.20
  -6  -6  18   19.10    8.40
  12  -6  18    7.80    7.10
  -6  -6  18   -0.70   12.60
  -6  12  18   -5.50   10.00
   9   3 -18   23.50   12.60
   3 -12 -18   -7.20   10.60
 -12   9 -18   14.10    9.70
  -3  12  18   12.00   10.80
  -3  12  18    5.60    8.60
  -9  -3  18   22.00   10.00
  12  -9  18   -2.10    8.20
  -9  -3  18   12.90   12.20
 -12  12 -18   15.90   12.70
  12   0 -18   -8.10   10.80
 -12  12 -18   10.50   13.60
  12 -12  18   16.80   16.10
   0  12  18    9.70   11.00
  15  -3 -18   -2.20   21.40
  -3 -12 -18    0.20   16.20
 -12  15 -18  -11.10   14.50
   3  12  18    6.20   10.10
  12 -15  18    0.70   10.60
 -15   3  18   22.80   15.70
   3  12  18    7.10   10.50
 -13  -1 -18    8.70   13.50
  -1  14 -18   22.50   13.70
 -13  -1 -18  -14.50   13.20
  14 -13 -18    8.00   12.30
 -13  -1 -18   -3.30   15.40
 -14  13  18    4.40   14.10
 -14  13  18  -26.40   14.60
 -14  13  18   -5.80   11.10
  13   1  18   15.80    8.90
 -14  13  18   29.50   19.60
 -14  13  18   -8.50   13.50
  13   1  18    1.50    9.80
 -13   2 -18   -5.10   11.00
  11 -13 -18   13.80   12.20
 -13   2 -18  -14.90   12.50
   2  11 -18    2.90    9.90
   2  11 -18  -17.30    9.80
 -11  13  18  -13.50   10.60
  -2 -11  18   13.70   15.60
 -11  13  18   -4.00   13.00
 -11  13  18    1.20   10.70
  -2 -11  18    2.70    8.30
  13  -2  18   -4.40    7.70
   8 -13 -18   22.00   12.10
   5   8 -18    0.80   10.50
 -13   5 -18   -0.60   10.80
 -13   5 -18   19.40   11.20
  -5  -8  18    1.20   12.70
  13  -5  18   -7.30    8.30
  -8  13  18   -4.00    9.80
  -8  13  18    7.40   12.40
  13  -5  18    0.70    7.10
   8   5 -18    9.70   12.70
 -13   8 -18   15.10   10.40
   5 -13 -18   15.00   12.90
  -5  13  18   -0.50   10.70
  13  -8  18    1.40    8.20
  -8  -5  18   28.00    9.70
  -8  -5  18   18.80   13.30
  -5  13  18   15.30   11.20
  13  -8  18    6.60    7.70
  -5  13  18   -2.60   12.20
   2 -13 -18   15.30   12.00
  11   2 -18   17.20   10.80
  11   2 -18    1.50   12.50
 -13  11 -18  -13.30   10.30
  -2  13  18    3.00   10.90
  13 -11  18    4.40    7.90
 -11  -2  18    4.80   11.40
  -2  13  18   -0.80   10.10
  -1 -13 -18   -1.10   15.40
 -13  14 -18   10.40   12.20
  14  -1 -18  -51.09   37.50
 -13  14 -18   22.60   14.10
   1  13  18   10.40   11.40
 -14   1  18   -7.60   18.10
  13 -14  18   10.50   10.10
 -14   1  18   11.40   14.00
   1  13  18   17.60   11.90
   1  13  18   -8.50    9.50
 -14   1 -18   27.00   13.20
  13 -14 -18   30.70   12.50
 -14   1 -18   25.60   15.60
   1  13 -18    0.10   14.10
 -14   1 -18   -5.60   15.70
  14  -1  18   -9.60    9.20
 -13  14  18    5.30   13.80
  -1 -13  18    5.10    9.00
  14  -1  18    7.50    8.50
 -13  14  18   22.40   15.60
 -13  14  18  -14.40   12.70
  -1 -13  18  -27.40   22.90
 -13  14  18    1.10   11.70
   4  10 -18    9.90   10.30
  10 -14 -18   13.30   11.50
 -10  14  18   -1.80   11.30
  -4 -10  18    6.10   17.20
  14  -4  18   16.80    8.10
 -10  14  18   13.20   14.90
  14  -4  18   -0.60    8.10
  -4 -10  18   11.50    8.60
   7 -14 -18  -11.40   10.40
 -14   7 -18   -2.70   11.00
   7   7 -18   -4.30   10.30
 -14   7 -18   -2.10   14.40
  -7  -7  18    2.50    9.60
  14  -7  18  -11.30    7.10
  -7  14  18    6.30   10.50
  -7  14  18    7.00   11.20
  -7  -7  18   25.40   14.20
  14  -7  18   13.60    8.20
 -14  10 -18    4.30   10.60
  10   4 -18   13.70   14.00
  10   4 -18   15.40   10.70
  -4  14  18    4.20   11.20
  -4  14  18   -3.70   12.20
 -10  -4  18   12.10   12.80
 -10  -4  18  -16.40   13.40
  -4  14  18   -1.40   11.30
  14 -10  18   -3.20    8.80
 -14  13 -18  -11.00   13.30
 -14  13 -18   13.90   13.20
  13   1 -18   36.90   12.00
 -13  -1  18   10.80   14.00
  -1  14  18   14.00   12.10
  -1  14  18   -4.80   11.90
 -13  -1  18    4.60   13.30
 -15   3 -18  -18.20   17.30
 -15   3 -18   -4.30   14.00
 -12  15  18   -1.70   13.80
  -3 -12  18   15.10   22.30
  15  -3  18    6.30    8.70
 -12  15  18   13.70   11.50
  15  -3  18   20.30    8.30
  -3 -12  18   -9.20    9.10
 -12  15  18   27.20   12.90
   6   9 -18   -7.70   10.20
   6   9 -18    2.30   10.70
   9 -15 -18    7.20   15.30
 -15   6 -18    4.30   16.00
 -15   6 -18   -7.20   12.40
  -6  -9  18   -3.50    9.60
  -6  -9  18    6.20   12.90
  -9  15  18  -13.30   14.30
  -9  15  18   -1.90   12.10
  15  -6  18   -0.80    8.70
  -9  15  18  -14.20   10.90
  15  -6  18   -1.70    7.40
 -15   9 -18   31.10   15.20
   9   6 -18   33.40   14.20
  -9  -6  18   13.80   11.20
  -6  15  18   34.30   12.00
 -15  12 -18  -18.40   13.20
  -3  15  18    6.80   10.80
 -12  -3  18   20.40   13.60
  -3  15  18  -25.50   16.70
  15 -12  18    2.10   10.10
  -5 -11  18    9.90   17.80
  16  -5  18   15.50    8.60
  16  -5  18   18.90    9.00
  -5 -11  18   -4.00   10.10
 -11  16  18  -15.00   13.00
 -11  16  18    5.40    9.90
 -16   8 -18   -6.00   13.70
 -16   8 -18   -4.20   14.40
  -8  -8  18   10.50   11.40
  16  -8  18    9.50    9.10
  -8  16  18   -1.40   12.30
  -5  16  18    9.80   12.10
  16 -11  18    4.40   10.10
   0   1 -19    2.90   10.60
   0   1 -19  -42.10   22.00
  -1   0 -19   14.00    9.20
   1  -1 -19   17.90   15.80
   0   1 -19    2.60    8.20
  -1   0 -19  -17.50   16.40
  -1   0 -19  -12.30    9.30
   1   0  19    3.40    6.70
  -1   1  19    3.70    7.10
  -1   3 -19    3.80    9.00
  -2  -1 -19   -8.60    8.10
  -1   3 -19    9.70    9.10
   3  -2 -19   -0.30   10.70
  -2  -1 -19    0.00   10.50
  -2  -1 -19   11.70   15.40
   3  -2 -19   -4.20    8.70
  -3   2  19  -14.00   21.30
  -3   2  19    8.40    7.70
   1  -3  19   -6.20    5.40
   2   1  19    9.60    9.50
  -2   2 -19   12.20   10.10
   0  -2 -19   -1.60   10.00
   2   0 -19   22.50   22.70
   2   0 -19   30.90   10.60
   0  -2 -19    6.60    8.80
  -2   2 -19   10.20    8.40
   0  -2 -19   14.70   12.20
   2  -2  19   19.20   10.40
   0   2  19   11.90    6.90
   2  -2  19    1.60    6.10
  -2   0  19   26.00   24.40
   0   2  19   -9.50    9.40
  -2   0  19    9.50    7.30
   5  -3 -19    5.70   11.00
  -2   5 -19   -7.50    7.80
   5  -3 -19   -3.70   19.30
  -3  -2 -19   -4.30   10.70
  -2   5 -19    6.40    7.80
  -3  -2 -19    1.50    9.00
   3   2  19   -0.50    7.20
  -5   3  19    5.10   22.00
  -5   3  19    6.90    7.00
   2  -5  19   -8.70    5.90
   3   2  19  -14.80    8.00
  -3   1 -19  -12.30   17.60
   2  -3 -19   -2.40   13.20
   2  -3 -19    6.60   12.20
   2  -3 -19    0.40    8.70
  -3   1 -19    9.60    8.40
   1   2 -19    2.50    8.80
  -2   3  19    6.80    7.00
  -1  -2  19   16.80   28.40
  -1  -2  19    7.60    6.70
  -2   3  19   10.00   10.60
   4  -1 -19   16.60    6.80
  -3   4 -19   -7.00    8.70
  -3   4 -19  -12.50    8.60
  -1  -3 -19    0.10   10.40
   4  -1 -19    2.90   11.10
   1   3  19   12.10    6.20
   1   3  19   22.30    8.60
   3  -4  19    7.00    6.80
  -4   1  19   -1.20   25.40
  -3   7 -19   -2.10    9.30
  -3   7 -19    2.20    8.00
   7  -4 -19    3.00    9.90
  -4  -3 -19    4.90   11.60
  -4  -3 -19   -5.20    8.60
  -7   4  19   -4.90   22.80
   4   3  19   -4.00    7.80
  -7   4  19   -9.90    7.30
   4   3  19  -11.30    6.00
   3  -7  19   -4.90    6.00
   4  -4 -19   -3.20   10.90
  -4   0 -19   -6.50   15.00
  -4   0 -19   -2.90    7.80
  -4   0 -19   16.50    9.70
   4  -4 -19    6.10   14.70
   0   4 -19    4.90    8.20
  -4   4  19    8.10   17.30
   4   0  19  -16.00    8.00
   4   0  19   -9.60    6.40
   0  -4  19   33.50   16.30
  -4   4  19   -4.80    9.80
  -4   4  19    6.20    7.20
   3   1 -19    4.30    9.80
  -4   3 -19    8.50    8.90
   1  -4 -19   -4.80    8.10
   3   1 -19   -0.60    7.80
  -1   4  19   18.80    8.90
  -3  -1  19  -22.80   28.00
  -1   4  19    4.00    7.40
  -4   6 -19   11.90    8.80
  -2  -4 -19   -2.90    9.40
  -4   6 -19   -1.80    8.60
   6  -2 -19   -6.40   11.60
  -6   2  19   10.70    7.80
   2   4  19    4.80    6.90
   2   4  19  -17.80    8.90
  -6   2  19   -6.00   26.10
  -5  -4 -19   -6.40    9.70
  -4   9 -19  -13.90    8.80
   9  -5 -19   19.50    9.90
  -9   5  19   -3.20    8.30
   4  -9  19   -7.60    6.50
   5   4  19    6.80    8.10
   5   4  19   14.20    8.20
  -1   6 -19    2.30    8.50
  -5  -1 -19  -20.70   17.30
  -5  -1 -19    4.90   12.40
  -5  -1 -19   11.60   12.60
   6  -5 -19   16.40   10.50
  -5  -1 -19    3.10    9.00
   6  -5 -19  -23.90   15.50
  -1   6 -19    4.80    8.50
  -6   5  19   -2.80   20.60
   1  -6  19   23.10   14.70
   5   1  19    0.30    8.20
   2   3 -19    0.20    8.90
   2   3 -19   -0.10    8.40
  -5   2 -19   -8.60   10.00
  -5   2 -19    3.70    8.40
  -2  -3  19   -5.40   15.60
  -3   5  19    2.30    6.40
   5  -2  19   13.40    7.30
   5  -2  19    0.00    7.20
  -3   5  19   21.20    9.70
  -5   5 -19   -2.40    8.70
   5   0 -19   -5.30   17.10
   5   0 -19   16.10   11.80
   0   5  19    5.80    7.10
   0   5  19  -12.00    8.60
  -5   0  19    6.30    7.80
   5  -5  19   19.30    8.40
   5  -5  19   -1.10    6.10
  -5   8 -19  -10.80    8.60
  -5   8 -19    9.90    8.90
  -3  -5 -19   -9.30    9.80
   3   5  19    7.40    8.90
  -8   3  19   28.40   13.50
   5  -8  19    1.80    6.60
   3   5  19    3.60    6.70
  11  -6 -19   -4.90   10.20
  -5  11 -19  -12.20    9.00
  -6  -5 -19    9.50   10.80
 -11   6  19  -19.80   14.00
   6   5  19   18.30    9.30
   5 -11  19   -5.90    6.20
 -11   6  19  -15.90    9.10
  -6  -2 -19   -5.60   17.80
  -6  -2 -19    0.60   12.80
  -6  -2 -19    7.70    8.50
  -2   8 -19    4.00    8.50
   8  -6 -19   -9.50    8.90
  -2   8 -19   -2.40    8.00
   6   2  19   -0.50    7.80
  -8   6  19   19.80   21.10
   6   2  19   -4.70    8.10
   2  -8  19   -6.80    6.40
  -8   6  19   -6.30    7.30
   2  -8  19    0.30   14.20
   1   5 -19  -16.70    7.90
  -6   1 -19   16.10    9.40
  -6   1 -19   34.80   21.30
   1   5 -19   -1.70    7.60
  -6   1 -19   -9.60   11.60
  -5   6  19   -1.00   11.70
  -1  -5  19   -9.60   14.50
   6  -1  19   -9.30    7.50
   6  -1  19   11.40    7.70
   4   2 -19  -21.30   19.90
   2  -6 -19    1.70    9.70
   4   2 -19  -11.40    8.50
   4   2 -19  -18.80   11.00
  -2   6  19    2.90    7.30
   6  -4  19   15.50    7.80
  -4  -2  19    3.00   14.60
  -4  -2  19   20.80    8.90
   7  -1 -19  -19.20   10.80
  -6   7 -19  -15.30    8.60
  -6   7 -19   10.00    9.80
  -1  -6 -19   -1.30    9.50
  -7   1  19   11.20    8.20
   1   6  19    5.80    8.40
  -7   1  19   -2.10   13.70
   1   6  19   -2.30    7.30
   6  -7  19   -4.10    6.60
  10  -4 -19   -6.50   10.00
  -6  10 -19    5.70   10.50
  -4  -6 -19  -18.40   11.60
  -6  10 -19   19.90   10.70
 -10   4  19   -4.70    8.70
   6 -10  19  -13.90    6.70
   4   6  19   -1.60    8.00
   4   6  19   14.60    7.90
 -10   4  19  -10.30   14.20
  -6  13 -19  -13.10   11.10
  -6  13 -19    6.10   12.90
  13  -7 -19   22.90   11.30
   7   6  19   14.80    9.00
 -13   7  19    3.00   14.10
 -13   7  19    0.70   12.60
  -7  -3 -19   22.40   10.90
  -3  10 -19    0.10    8.50
  -7  -3 -19    8.10   13.00
  -7  -3 -19    0.40   16.90
  10  -7 -19   -3.90    9.70
   3 -10  19   11.90   14.90
   7   3  19   -6.80    8.50
 -10   7  19  -34.10   26.40
   7   3  19  -12.90    7.50
   3 -10  19    7.50    6.20
 -10   7  19    0.60    9.20
  -7   0 -19    8.10    9.70
  -7   0 -19  -11.40   21.20
  -7   0 -19   -8.90   13.10
   0   7 -19   12.90    8.50
   7   0  19   11.10    7.10
  -7   7  19   22.80   11.80
   0  -7  19    5.90   12.90
   0  -7  19   10.30    7.10
   7   0  19   13.20    7.80
  -7   7  19   -8.60   17.00
  -7   3 -19   -9.00    9.10
   3   4 -19   -4.20    8.10
   4  -7 -19   14.30    8.40
   3   4 -19    0.50    7.70
   7  -3  19   -2.00    6.90
   7  -3  19    0.60    6.40
  -4   7  19    6.90    6.30
  -3  -4  19  -17.80   14.70
  -4   7  19  -14.60    9.00
   6   1 -19    0.40    9.20
   6   1 -19   10.20   14.60
   6   1 -19  -11.70   11.20
   1  -7 -19  -16.50    9.10
  -7   6 -19    0.50    7.80
  -6  -1  19   -3.30    8.30
   7  -6  19   -2.80    7.20
  -1   7  19   -9.60    8.10
   7  -6  19    6.50    6.60
  -1   7  19  -13.70    8.80
  -7   9 -19   -4.40    9.70
  -7   9 -19    4.50    9.40
   9  -2 -19  -17.30    9.80
  -2  -7 -19   -0.80   10.00
  -9   2  19    0.30    9.10
   2   7  19    0.40    7.30
   2   7  19    4.40    7.60
  -9   2  19   -2.40   11.60
  -5  -7 -19   -2.70   11.80
  -7  12 -19   -3.30   12.00
  -7  12 -19   -4.70   10.90
  12  -5 -19    7.80   10.10
 -12   5  19  -13.70   10.70
   7 -12  19    6.60    7.10
 -12   5  19   28.20   14.70
   5   7  19   12.60    8.20
   5   7  19    0.90    8.80
  -8  -7 -19   24.30   16.40
  15  -8 -19   13.30   19.70
  15  -8 -19   18.80   13.20
   8   7  19   15.90   10.30
   7 -15  19   19.90    9.10
   8   7  19   -3.70   10.80
  -4  12 -19   23.20   10.70
  -8  -4 -19   -3.50   10.30
  -4  12 -19    6.20   11.20
  12  -8 -19   -0.20   10.10
  -8  -4 -19   -0.70   12.90
   8   4  19   -7.10    8.50
   8   4  19   -6.60    7.50
 -12   8  19    5.30    9.90
 -12   8  19    5.00   14.60
  -1   9 -19    0.80    8.70
  -8  -1 -19   -0.70    9.00
  -8  -1 -19   -4.10   22.80
  -8  -1 -19    5.50   12.20
  -9   8  19   29.40   22.30
  -9   8  19   -3.10    8.40
   1  -9  19    2.90   13.60
   8   1  19   -9.30    8.30
   1  -9  19    1.50    7.60
  -9   8  19    6.30   12.30
  -8   2 -19   -7.40   12.20
   2   6 -19   11.60    8.50
   6  -8 -19   11.80   10.10
  -8   2 -19    0.60   10.00
   2   6 -19   -0.10    9.00
  -8   2 -19  -12.70   13.10
  -6   8  19    9.50    7.90
  -2  -6  19  -29.20   14.30
  -2  -6  19   -1.50    8.00
  -6   8  19   11.70   10.20
   8  -2  19   13.10    7.60
   8  -2  19    1.90    7.10
   5   3 -19  -10.90   17.00
   5   3 -19    1.70    8.10
  -8   5 -19   -2.90    8.90
   3  -8 -19   -2.10    9.10
  -3   8  19    1.30    9.00
  -3   8  19    6.50    8.10
  -5  -3  19    1.70   13.40
  -5  -3  19  -10.50    8.10
   8  -5  19   -6.40    7.50
   0  -8 -19   -8.70    9.50
   8   0 -19  -14.80   10.80
  -8   8 -19    1.20    9.20
  -8   8 -19   -9.10   10.00
   8  -8  19    7.00    8.00
   0   8  19   -2.10    8.40
   0   8  19   -7.90    8.80
  -8   0  19   12.70   12.40
  -8   0  19   -1.90   10.20
  -3  -8 -19   -7.50   11.50
  11  -3 -19   13.10   10.30
  -8  11 -19   -1.70   11.60
  -8  11 -19   11.80   11.10
   3   8  19   10.00    9.30
   3   8  19   11.40   10.20
 -11   3  19   12.60   15.00
   8 -11  19   12.00    7.30
  -8  14 -19   -5.40   12.10
  -6  -8 -19    7.60   16.00
  14  -6 -19   19.40   11.30
   8 -14  19    3.90    9.00
   6   8  19    4.00   10.20
 -14   6  19    6.80   14.40
   6   8  19  -11.20    9.90
   6   8  19  -21.20   11.60
  -5  14 -19   35.30   22.80
  -9  -5 -19   17.10   14.20
  14  -9 -19   10.40   11.20
  -5  14 -19   -5.40   11.40
   9   5  19   15.60    8.90
 -14   9  19   -0.50   13.20
   9   5  19    5.50    9.70
 -14   9  19    4.50   14.70
  -2  11 -19    0.00   10.50
  -2  11 -19   20.30   10.10
  -9  -2 -19   20.20   24.10
  -9  -2 -19   -1.10   10.70
 -11   9  19  -16.20    8.70
   9   2  19   -9.90    7.90
   2 -11  19    3.50   14.50
 -11   9  19  -11.40   13.20
   2 -11  19    7.80    7.40
  -9   1 -19   14.90   10.00
  -9   1 -19    8.70   12.50
  -9   1 -19  -10.60   12.00
   1   8 -19    8.10    8.30
   8  -9 -19    6.50   11.80
   1   8 -19    4.10    9.20
   9  -1  19    1.20    7.60
  -1  -8  19   -3.00   14.00
  -1  -8  19    4.70    8.10
  -8   9  19   13.20   18.50
   9  -1  19    5.50    7.50
   5  -9 -19  -14.30    9.40
  -9   4 -19   -3.40   10.20
   4   5 -19    1.00    8.40
   4   5 -19   17.00    9.30
   9  -4  19    7.20    7.80
  -4  -5  19  -23.60   13.60
  -5   9  19    1.30    9.20
  -5   9  19  -11.30    7.60
   9  -4  19  -12.30    6.50
  -9   7 -19   -5.40    8.90
   7   2 -19    5.40   10.40
   7   2 -19   -3.10   13.20
   7   2 -19   -1.40    9.50
   2  -9 -19   15.50   11.10
  -2   9  19   -9.00    9.20
  -2   9  19  -10.80    8.90
   9  -7  19   -7.50    7.20
  -7  -2  19   -6.00   11.70
  -7  -2  19  -10.80    8.30
  -9  10 -19    7.90   10.80
  -9  10 -19   -6.00   10.40
  10  -1 -19   -0.90   10.80
   9 -10  19   10.00    7.90
   1   9  19    5.80    9.50
 -10   1  19    3.80   12.60
   9 -10  19    7.20    9.10
 -10   1  19    5.10    8.90
  -9  13 -19  -10.90   11.80
  -4  -9 -19   -2.10   14.90
  -9  13 -19   -5.00   13.20
   4   9  19    2.30   11.00
   4   9  19   -0.40    9.50
 -13   4  19   22.80   16.50
 -13   4  19   -5.90   11.70
   9 -13  19    0.40    8.90
  -3  13 -19   23.50   11.20
  -3  13 -19   -6.10   18.70
  13 -10 -19   17.50   11.60
 -10  -3 -19  -15.70   10.00
 -13  10  19    5.40   16.20
 -13  10  19    0.30   16.40
   3 -13  19   -2.20    7.00
   3 -13  19   -6.30   17.10
 -10   0 -19    0.10   14.00
   0  10 -19  -11.10   10.00
   0  10 -19   16.10    9.70
 -10   0 -19   -2.60   10.30
 -10   0 -19   31.90   13.60
  10 -10 -19  -10.80   10.10
 -10  10  19  -15.30   22.60
 -10  10  19    9.40    9.80
   0 -10  19    7.80    8.00
   0 -10  19    0.30   15.00
  10   0  19   18.40    7.30
  10   0  19   16.40    8.30
 -10   3 -19  -14.00    9.40
 -10   3 -19   13.60   13.10
 -10   3 -19    6.10   12.00
   3   7 -19  -12.70    8.50
  -7  10  19   12.40   11.00
  10  -3  19   -6.80    7.10
  10  -3  19   -2.20    7.30
  -7  10  19  -10.10    8.50
   4 -10 -19  -14.90   10.80
 -10   6 -19   13.60    9.90
   6   4 -19   -0.80    8.60
   6   4 -19    0.00   11.80
   6   4 -19  -11.60   17.00
  10  -6  19    1.70    6.60
  -4  10  19   -7.70    8.50
  -4  10  19    0.50    9.00
  10  -6  19    4.90    7.70
  -6  -4  19   10.30   13.90
   1 -10 -19   -0.80   11.80
   9   1 -19  -20.80   11.00
   9   1 -19   -9.20    9.20
  -9  -1  19   -6.40    9.30
  -9  -1  19  -19.30   12.60
  10  -9  19    7.00    8.00
  -1  10  19  -19.00    8.70
  10  -9  19   -0.90    7.40
 -10  12 -19    7.70   12.50
  10 -12  19   11.00    8.90
   2  10  19   20.50    9.90
   2  10  19   16.90   10.40
 -12   2  19   12.80   15.50
   2  10  19   22.80   10.10
  15  -5 -19   12.60   21.10
  15  -5 -19   10.30   11.40
 -10  15 -19    2.00   13.20
  10 -15  19    1.70   10.10
   5  10  19   12.00   10.80
 -15   5  19   11.00   13.50
 -15   5  19   -1.60   18.60
   5  10  19  -11.40   10.50
  15 -11 -19    9.90   12.70
 -11  -4 -19   10.40   14.80
  11   4  19   27.00   10.60
 -15  11  19   15.60   13.60
   4 -15  19   24.40    7.90
  11   4  19    7.60   12.00
 -11  -1 -19  -23.20   12.00
  -1  12 -19  -12.60    9.20
  -1  12 -19    2.50    9.90
 -11  -1 -19  -11.00   11.90
 -11  -1 -19    7.20   15.20
 -12  11  19   -5.70   14.60
  11   1  19   -9.30    7.90
   1 -12  19  -17.30    8.00
   1 -12  19    6.50   16.10
 -12  11  19   -2.60    9.70
 -11   2 -19   -1.80    9.80
   9 -11 -19  -15.10   11.70
   2   9 -19    2.20    9.70
 -11   2 -19   18.20   14.40
   2   9 -19    0.30    9.50
 -11   2 -19   14.10   11.50
  -2  -9  19   12.00   14.00
  11  -2  19    7.60    8.30
  11  -2  19   12.60    7.90
  -2  -9  19   -6.60    7.70
   5   6 -19   -7.00    9.70
   5   6 -19   13.60    9.60
 -11   5 -19    7.00   11.70
   6 -11 -19   -4.10   10.60
  -5  -6  19   11.90    7.60
  -6  11  19   14.40    9.90
  11  -5  19    5.90    6.70
  -6  11  19    4.10    8.90
   3 -11 -19    9.00   11.20
 -11   8 -19   -3.90    9.70
   8   3 -19   11.60    9.30
   8   3 -19  -11.40   11.70
  -3  11  19   12.20    9.40
  -8  -3  19   -4.40    9.30
  11  -8  19  -10.90    7.00
  -3  11  19  -12.60    9.50
  -8  -3  19  -17.20   11.20
  11  -8  19   -7.80    7.40
 -11  11 -19   21.70   13.30
   0 -11 -19   -5.20   12.50
 -11  11 -19   11.60   13.20
   0  11  19   -6.50   10.60
   0  11  19   -1.00   11.50
 -11   0  19   16.10   11.00
  11 -11  19   -1.80    7.60
  11 -11  19   11.10    8.20
 -11   0  19  -14.10   12.40
  -3 -11 -19    6.00   15.70
 -11  14 -19   29.80   16.40
  14  -3 -19    3.00   21.60
 -14   3  19   11.00   20.50
   3  11  19   11.40    9.80
 -14   3  19   -3.20   13.50
   3  11  19    7.30   11.60
 -12  -2 -19   13.50   11.50
 -12  -2 -19   22.50   16.10
  -2  14 -19    7.10   12.40
 -14  12  19   10.20   28.90
 -14  12  19   24.60   17.00
  12   2  19   18.30    9.30
   2 -14  19   10.70    8.50
 -14  12  19    5.20   12.90
 -12   1 -19   23.30   12.10
 -12   1 -19  -10.60   10.60
  11 -12 -19   18.90   13.20
   1  11 -19    6.20   10.50
 -12   1 -19   10.30   15.40
   1  11 -19   -3.10    9.10
  -1 -11  19   11.50    7.60
  12  -1  19    5.60    8.00
 -11  12  19   22.40   11.90
  12  -1  19    4.50    8.00
  -1 -11  19   -0.90   14.20
 -12   4 -19    8.70   11.60
 -12   4 -19    9.30   10.90
   4   8 -19   18.40   10.20
   8 -12 -19   -9.10   10.70
 -12   4 -19   -3.60   15.20
  -4  -8  19    3.10   15.90
  -8  12  19    1.40    9.30
  12  -4  19   -9.30    6.70
  -4  -8  19   14.80    8.10
  12  -4  19   -7.00    7.60
  -8  12  19   -1.60   10.10
   7   5 -19   17.70   19.90
   7   5 -19    3.10   10.40
   7   5 -19   12.40   11.70
 -12   7 -19   -4.70   10.70
  -7  -5  19   14.30    9.10
  -5  12  19   21.20   10.50
  -5  12  19   24.20   10.90
  12  -7  19    3.00    7.20
 -12  10 -19   22.10   11.80
  10   2 -19  -18.20   10.20
  10   2 -19  -13.70   12.10
  -2  12  19    1.00   11.50
 -10  -2  19    0.90   10.90
 -10  -2  19    4.40   13.80
  12 -10  19   -9.60    8.50
  12 -10  19   -4.90    7.40
  -2  12  19    1.10   11.00
  13  -1 -19  -11.70   10.80
 -12  13 -19   11.10   13.50
  -1 -12 -19   -2.70   13.50
 -12  13 -19    7.00   13.70
 -13   1  19  -13.10   12.40
  12 -13  19   -8.20   10.30
   1  12  19  -14.70   11.20
 -13   1  19   12.40   16.70
   1  12  19    4.50   11.00
   1  12  19   10.20   11.00
  13 -13 -19   15.10   13.10
 -13   0 -19   15.40   17.00
 -13   0 -19    2.50   13.50
   0  13 -19   -0.60   11.80
 -13   0 -19   13.50   12.70
 -13  13  19    3.90   13.00
  13   0  19    7.80    8.50
   0 -13  19   -4.50   26.30
 -13  13  19    8.70   11.80
   0 -13  19    2.50    8.60
  13   0  19    4.30    8.30
   3  10 -19  -12.00   10.60
 -13   3 -19    4.50   17.80
 -13   3 -19   10.60   13.30
   3  10 -19   25.00   10.40
 -13   3 -19   22.10   12.40
  13  -3  19    2.80    9.00
 -10  13  19    0.20   13.50
 -10  13  19   14.40   12.90
  -3 -10  19    1.80   17.00
   6   7 -19    6.80   10.80
 -13   6 -19  -10.50   13.60
   7 -13 -19    3.90   12.60
   6   7 -19   -5.70    9.80
 -13   6 -19  -16.50   11.80
  -7  13  19   -3.20   10.80
  13  -6  19   -6.40    6.70
  -6  -7  19    1.00   14.70
  -7  13  19    1.60   10.90
  13  -6  19   -2.20    7.80
  -6  -7  19   -4.70    9.00
  -7  13  19   -9.90   12.70
   4 -13 -19  -20.80   11.20
   9   4 -19   11.30    9.80
   9   4 -19   17.10   13.20
 -13   9 -19  -19.80   11.90
  -4  13  19   -1.40   12.10
  -9  -4  19   -8.30   12.30
  13  -9  19   -1.30    7.00
  13  -9  19   -8.40    7.90
  -4  13  19    6.10    9.40
  12   1 -19   -7.60   11.50
 -13  12 -19    4.00   13.20
  12   1 -19  -23.20   11.60
 -13  12 -19   16.10   14.30
  13 -12  19   -3.60    9.40
  -1  13  19   12.30   11.80
  -1  13  19  -14.80   11.30
 -12  -1  19  -19.90   13.90
 -14   2 -19    8.00   15.10
 -14   2 -19   11.10   17.70
  12 -14 -19  -20.50   10.60
 -14   2 -19   23.30   13.40
 -12  14  19  -10.20   10.90
  14  -2  19    1.80    9.00
  14  -2  19  -14.80    8.70
 -12  14  19   -9.90   13.60
  -2 -12  19   -6.80    8.30
   5   9 -19   -8.90   10.30
   9 -14 -19   20.20   11.00
 -14   5 -19    4.10   16.80
  14  -5  19   10.10    7.90
  -5  -9  19  -22.20   15.20
  -9  14  19   23.00   15.00
  -5  -9  19  -12.00    8.50
  -9  14  19   22.10   13.60
   8   6 -19   39.10   13.80
   6 -14 -19    1.10   13.70
  -6  14  19    4.90   12.10
  -6  14  19   -5.90   14.20
  14  -8  19   20.70    7.30
  -8  -6  19   22.60   13.70
  -8  -6  19   11.70   11.40
  14  -8  19   14.40    8.00
 -14  11 -19   25.10   12.60
   3 -14 -19    3.00   14.60
  11   3 -19   11.50   12.70
  11   3 -19    2.30   11.40
 -11  -3  19   -1.50   14.90
  14 -11  19   19.60    9.20
  -3  14  19    2.40   11.60
  -3  14  19  -11.40   12.20
 -15   4 -19  -16.40   17.80
 -15   4 -19   -7.10   13.90
  11 -15 -19   -8.90   12.60
  -4 -11  19    7.90   18.70
  15  -4  19  -16.60    8.50
 -11  15  19    1.70   11.20
  -4 -11  19   13.20   10.20
 -11  15  19    3.90   13.30
 -15   7 -19   43.90   14.10
 -15   7 -19   23.20   13.20
  15  -7  19   19.30    8.50
  -7  -8  19   29.70   14.70
  -8  15  19   29.80   12.60
 -15  10 -19    6.30   13.40
  10   5 -19  -15.70   13.30
   5 -15 -19   -9.10   13.50
  15 -10  19    3.80    8.60
 -10  -5  19    1.40   14.40
  -5  15  19   10.50   12.40
  -1   1 -20    2.70    8.30
   1   0 -20   14.80    8.40
   1   0 -20   19.60   19.70
   0  -1 -20   14.90    8.30
  -1   1 -20   20.60   19.70
   0  -1 -20   34.70   12.50
  -1   1 -20   26.60   11.20
   0  -1 -20   18.40   15.10
   0   1  20   15.50    6.10
   1  -1  20   31.80   10.80
   0   1  20   -1.40    9.70
   1  -1  20    5.30    7.00
   0   2 -20   26.90    9.00
   2  -2 -20   -8.10   14.00
   0   2 -20   -5.80   10.80
  -2   0 -20   28.50   17.10
   2  -2 -20   18.60    8.80
   0  -2  20   14.70    7.70
   2   0  20   17.00    9.50
  -2   2  20    2.80    7.10
   2   0  20   13.30    6.90
   3  -1 -20   -0.90   11.10
  -1  -2 -20   18.40    9.10
   3  -1 -20    3.30   19.10
  -2   3 -20   32.20   10.10
   3  -1 -20   10.20    8.70
  -3   1  20   -6.70   24.80
  -3   1  20   15.70    8.10
   2  -3  20   15.10    6.40
  -3  -1 -20   16.20    9.30
  -1   4 -20   -5.20    7.50
   4  -3 -20    8.10   11.40
  -1   4 -20   15.40    8.50
  -3  -1 -20  -13.80   11.90
  -3  -1 -20  -13.30   13.20
   4  -3 -20    9.00   14.90
   3   1  20  -12.30    8.60
   1  -4  20    4.50    6.20
   3   1  20    0.60    7.70
  -4   3  20   16.60    7.00
  -4   3  20   11.70   21.80
   2   1 -20   19.80    8.70
   1  -3 -20   -2.10    8.00
   1  -3 -20   12.50   11.20
   2   1 -20    6.60   10.60
  -1   3  20    5.10    9.50
   3  -2  20   18.50    9.70
  -1   3  20    8.30    5.80
  -2  -1  20    7.70    7.50
  -2  -1  20   52.19   30.30
   5  -2 -20   -2.00   12.30
  -2  -3 -20   -2.50   11.70
  -3   5 -20    7.40    8.70
   5  -2 -20    3.40    8.70
  -3   5 -20    9.30    9.40
  -2  -3 -20  -15.00    9.50
   3  -5  20    3.50    6.60
  -5   2  20    7.60    8.20
  -5   2  20    3.30   25.40
   2   3  20    2.50    7.90
   2   3  20   19.40    7.70
   6  -4 -20   -3.30   11.00
  -2   6 -20    9.30    8.30
  -4  -2 -20  -12.30   11.20
   4   2  20    0.80    8.00
   4   2  20   -7.10    7.10
  -6   4  20    2.80   23.20
  -6   4  20  -11.70    6.50
   1   3 -20   -5.00    9.20
  -4   1 -20    7.30   10.60
   3  -4 -20    0.50   11.40
  -4   1 -20   -0.80   15.00
  -1  -3  20   -8.20    7.10
  -1  -3  20   16.00   18.40
   4  -1  20    7.80    8.50
  -3   4  20    7.90    9.80
  -4   4 -20  -10.60    9.70
   4   0 -20   -1.30   12.40
   4   0 -20    5.70    9.00
   0   4  20   23.60   10.20
  -4   0  20  -10.80   32.20
   4  -4  20  -13.70    9.50
   4  -4  20   20.20    7.30
  -4   0  20    9.60    7.90
  -4   7 -20   -1.30    8.60
   7  -3 -20   22.30   12.10
  -3  -4 -20   -6.00    9.00
  -3  -4 -20   12.90   11.70
  -7   3  20  -11.00    7.90
  -7   3  20  -17.50   24.80
   3   4  20   -8.70    7.10
   3   4  20   16.80    9.20
   4  -7  20    9.20    7.20
  -3   8 -20    9.60    9.70
   8  -5 -20   -9.90   10.60
  -5  -3 -20   -4.50   10.20
   5   3  20  -12.90    6.80
  -8   5  20    9.10    7.80
   5   3  20  -15.90    8.30
   3  -8  20   -4.80    6.50
  -8   5  20   -3.30   25.30
   5  -5 -20   15.10   10.40
  -5   0 -20   12.40   12.10
   0   5 -20    8.20    8.10
   0   5 -20   16.60    8.60
   5   0  20    3.60    7.80
   0  -5  20   28.20   16.00
  -5   5  20   19.70    7.30
  -5   5  20   36.90   13.40
  -5   5  20   -6.30   17.90
  -5   3 -20   10.90   10.20
   3   2 -20    7.50   11.60
   2  -5 -20    4.30    9.90
   3   2 -20    9.00    9.10
   3   2 -20   -3.20    8.80
   5  -3  20   -1.40    8.40
  -3  -2  20   37.20   17.50
  -2   5  20    4.10    6.80
  -3  -2  20   19.60    7.70
  -2   5  20    7.70    8.70
   5  -3  20   -5.60    6.00
   6  -1 -20  -14.60   11.40
   6  -1 -20  -13.70   17.10
   5  -6  20   18.90    9.90
   1   5  20   -5.60    9.10
   1   5  20    3.70    7.70
   5  -6  20  -10.50    6.70
  -5   9 -20    3.50    9.60
   9  -4 -20    0.40   10.40
  -4  -5 -20   -5.70   11.10
  -5   9 -20   21.20   10.80
   4   5  20  -10.60    7.50
   4   5  20   14.10    8.40
  -9   4  20   21.70   14.70
   5  -9  20   -2.00    7.10
  -6  -4 -20    5.50    9.80
  -4  10 -20   -9.70   11.00
  -6  -4 -20   -5.60   11.70
  10  -6 -20   -3.00    9.70
  -4  10 -20  -13.70    8.80
 -10   6  20   -0.80   14.60
   4 -10  20  -13.80    6.50
   6   4  20   11.10    8.80
 -10   6  20   -3.00    8.60
   6   4  20    0.80    6.60
   7  -6 -20   -0.90    9.80
  -6  -1 -20    2.90   12.10
  -1   7 -20  -19.00    8.90
  -6  -1 -20   15.70   20.50
  -7   6  20  -18.40   11.80
   1  -7  20   -2.40    6.60
   6   1  20   -5.10    6.60
   6   1  20  -10.60    8.50
  -7   6  20  -26.10   21.50
   1  -7  20   14.00   15.80
  -6   2 -20  -18.70   11.30
   4  -6 -20   -1.00   10.00
   2   4 -20    9.40    8.10
  -6   2 -20    5.10    8.80
   2   4 -20  -13.40    9.90
  -4   6  20    5.30   10.00
  -2  -4  20   26.40   17.80
  -4   6  20   -7.60    6.60
   6  -2  20   -2.00    7.80
   5   1 -20    5.00   11.50
   5   1 -20   20.60   18.00
  -6   5 -20   -1.10    7.80
   6  -5  20   -0.40    8.30
  -5  -1  20  -11.80    8.20
  -5  -1  20  -22.60   14.90
  -1   6  20    3.10    8.30
  -1   6  20    7.70    8.20
  -6   8 -20   -7.10   10.70
  -6   8 -20  -19.00   10.00
   8  -2 -20   17.30   10.20
  -8   2  20   -8.70    9.10
   2   6  20   -8.60    7.00
   6  -8  20    0.60    7.10
  -8   2  20   -8.10   12.80
   2   6  20  -13.90    8.30
  -5  -6 -20  -16.90   12.00
  -6  11 -20   -4.70   10.40
  11  -5 -20   -0.40   10.40
   6 -11  20    0.40    7.10
 -11   5  20   -4.50   14.40
   5   6  20   20.30    9.20
   5   6  20   12.40    9.10
 -11   5  20   11.50   10.20
  -7  -5 -20   -1.80   13.80
  -5  12 -20   14.90   10.10
  12  -7 -20  -18.60   11.30
  -5  12 -20    1.40   11.50
   7   5  20   10.20    9.30
   7   5  20    4.20    9.00
 -12   7  20   25.30   15.10
   5 -12  20   -4.20    7.20
 -12   7  20  -11.60   10.50
   9  -7 -20   19.90   10.20
  -7  -2 -20   -1.20   11.50
  -7  -2 -20    3.60   18.10
  -2   9 -20  -12.10    9.00
  -7  -2 -20   12.70   14.40
  -2   9 -20   -5.30   10.20
  -9   7  20  -10.20    8.60
   7   2  20    5.10    7.50
   2  -9  20   32.60   14.80
   2  -9  20    4.60    6.10
  -9   7  20   -2.00   24.10
  -7   1 -20   11.70   27.00
   1   6 -20   -8.70    8.30
   6  -7 -20    7.50    9.60
  -7   1 -20   12.60   12.40
   1   6 -20   -2.50    8.50
  -1  -6  20    1.20   16.10
  -6   7  20   -9.10    8.40
  -1  -6  20    7.00    8.00
  -6   7  20   18.10   10.80
   7  -1  20    4.60    7.20
  -7   4 -20   -6.20   10.60
   4   3 -20   11.20    8.20
   4   3 -20    6.30   11.10
  -4  -3  20   12.40    7.90
   7  -4  20    4.60    6.80
   7  -4  20    1.20    6.60
  -3   7  20   14.00    7.20
  -4  -3  20   -3.10   15.60
  -7   7 -20  -15.30   10.60
   7   0 -20   -4.70   14.80
  -7   7 -20    4.60    9.50
   7  -7  20    0.60    6.70
   0   7  20   17.60    8.90
   7  -7  20    1.30    8.10
   0   7  20    3.00    8.60
  -7   0  20    7.10    8.70
  -7   0  20   -9.30   12.30
  10  -3 -20   13.50   10.40
  -7  10 -20    4.70   12.50
  -7  10 -20   16.20   11.10
   3   7  20   -9.30    9.00
 -10   3  20    5.60   10.30
 -10   3  20  -11.60   13.00
  -7  13 -20   -6.50   13.30
  -6  -7 -20  -13.10   15.20
  -7  13 -20  -25.70   12.10
   7 -13  20    3.40    8.00
   6   7  20    8.00   10.00
 -13   6  20    0.70   15.90
 -13   6  20    1.40   11.30
   6   7  20   -5.60    8.50
  -8  -6 -20  -14.60   15.40
  -6  14 -20   -0.80   11.40
  14  -8 -20   -1.60   12.70
 -14   8  20   -6.10   13.60
   8   6  20  -10.40   12.60
 -14   8  20   -2.30   16.00
  -3  11 -20    0.70   11.70
  -3  11 -20   12.40    9.50
  -8  -3 -20   -5.40   10.70
  11  -8 -20   19.60   11.10
   8   3  20  -15.00    9.00
   3 -11  20  -12.30    6.50
   8   3  20    0.00    8.70
  -8   0 -20    8.00   14.60
   0   8 -20    4.40   10.30
  -8   0 -20   14.50   25.90
   8  -8 -20   -2.80   11.30
  -8   0 -20   11.00    9.60
   0   8 -20   -2.90    8.80
   8   0  20   -4.40    7.70
  -8   8  20   13.50   22.10
   0  -8  20   22.70   14.80
   0  -8  20    6.10    8.00
  -8   8  20    4.60   12.70
   8   0  20   -4.70    6.60
  -8   8  20   -7.00    8.70
  -8   3 -20    4.60   10.00
   3   5 -20   -8.00    9.60
   3   5 -20  -13.00    8.30
  -8   3 -20   -4.20   11.20
  -5   8  20   10.70    7.30
  -3  -5  20   -8.00   16.60
   8  -3  20    9.00    6.70
   6   2 -20   -7.90   11.30
   2  -8 -20    5.10   10.20
   6   2 -20   14.40   16.50
  -8   6 -20    8.80    8.00
   6   2 -20   15.90    9.70
  -2   8  20    5.80    8.40
  -2   8  20   -7.90    8.50
   8  -6  20    6.90    6.70
   8  -6  20   19.70    8.20
  -6  -2  20   14.40    9.00
  -6  -2  20   13.00   14.40
  -8   9 -20  -11.90   10.80
   9  -1 -20   -9.00   10.60
   8  -9  20    7.30    8.60
   1   8  20    2.30    9.20
   1   8  20   15.70   10.40
  -9   1  20   11.10   10.00
  -4  -8 -20   -0.90   14.30
  -8  12 -20   -0.40   11.60
 -12   4  20   28.90   16.60
   8 -12  20    9.60    8.00
 -12   4  20    2.00   11.70
   4   8  20   -4.00    9.60
  13  -9 -20    1.60   11.20
  -9  -4 -20   -9.70   13.90
  -4  13 -20   15.20   10.90
  -4  13 -20   18.10   12.80
 -13   9  20    5.60   12.60
 -13   9  20  -19.30   14.90
   4 -13  20   -1.30    7.80
   9   4  20   15.70    9.20
  -9  -1 -20   15.40   15.20
  10  -9 -20   -9.80   10.00
  -1  10 -20    9.30   10.60
  -9  -1 -20  -11.10   29.70
  -1  10 -20   -7.10    8.80
  -9  -1 -20   -3.70   10.70
   1 -10  20   -2.80    7.50
 -10   9  20   21.70   14.50
   9   1  20  -11.00    8.00
   1 -10  20   27.10   15.70
 -10   9  20   13.50   26.30
 -10   9  20   15.30    9.50
   2   7 -20  -11.00    8.90
  -9   2 -20  -10.10    8.70
   2   7 -20   -1.70    9.30
   7  -9 -20   -1.80   10.70
  -9   2 -20   -9.40   12.70
  -9   2 -20   14.60   14.50
  -7   9  20   16.50    8.80
   9  -2  20   -8.90    7.80
  -7   9  20   15.80   11.30
   9  -2  20  -18.40    8.60
  -2  -7  20  -14.30   15.20
   5   4 -20   10.20    8.60
   5   4 -20    2.60    8.80
  -9   5 -20   22.50   11.20
   5   4 -20    4.70   12.40
  -4   9  20   -2.70    7.50
   9  -5  20    8.50    6.70
  -5  -4  20  -18.90   13.20
  -5  -4  20   -1.40    8.00
   1  -9 -20   11.90   11.20
  -9   8 -20    1.90    9.40
   8   1 -20    4.70   11.40
   9  -8  20    4.10    6.90
  -1   9  20   11.60    9.20
  -8  -1  20  -20.00   12.20
  -1   9  20  -14.80    9.70
  -8  -1  20    0.90    9.50
   9  -8  20   -2.30    7.80
  -2  -9 -20    0.30   11.80
  -9  11 -20    7.90   10.90
  -9  11 -20   -6.60   11.60
  11  -2 -20   17.70   11.80
   9 -11  20   -8.00    7.70
 -11   2  20  -15.50   11.40
   2   9  20   22.60    9.70
 -11   2  20    3.30   13.70
   9 -11  20    5.00    9.60
  -5  -9 -20   -5.20   14.90
   9 -14  20   20.70    9.90
 -14   5  20   19.90   17.60
   5   9  20    3.30   11.80
 -14   5  20    4.00   12.70
  -2  12 -20   18.10   16.30
  -2  12 -20  -16.00   11.40
 -10  -2 -20   14.90   17.20
  10   2  20   -9.00    7.70
  10   2  20   17.00    9.60
   2 -12  20   -8.60   15.60
   2 -12  20  -11.40    7.30
 -12  10  20  -17.70   22.30
 -12  10  20  -14.50   15.40
   1   9 -20   -4.70    9.70
 -10   1 -20  -10.60   13.90
   1   9 -20   -9.70    9.30
 -10   1 -20  -16.80   10.90
   9 -10 -20  -11.10    9.90
 -10   1 -20   20.00   15.80
  -9  10  20  -22.30   11.00
  -9  10  20  -11.90    9.80
  10  -1  20   14.70    8.30
  -1  -9  20    8.10   17.00
 -10   4 -20    6.00   13.50
 -10   4 -20   20.20   14.30
   4   6 -20   -0.50   10.30
   4   6 -20   20.60    9.10
 -10   4 -20   15.90   10.50
   6 -10 -20   -5.60   10.30
  -6  10  20   19.50    8.70
  -4  -6  20  -16.10   15.30
  10  -4  20   12.20    7.10
  -6  10  20    7.20   10.40
   3 -10 -20   18.90   11.30
   7   3 -20   -1.70   14.00
 -10   7 -20   15.50   10.40
   7   3 -20  -11.30    9.80
   7   3 -20    7.90   11.70
  -7  -3  20    7.60   12.80
  -3  10  20    4.90    8.90
  -3  10  20   15.30    9.70
  10  -7  20    6.80    7.60
  -7  -3  20   10.40    7.80
   0 -10 -20    1.20   12.90
 -10  10 -20   13.90   11.80
  10   0 -20    9.70   13.00
 -10  10 -20  -13.80   12.80
 -10   0  20   36.20   14.60
   0  10  20    9.00   10.90
  10 -10  20    2.50    8.10
  -3 -10 -20  -12.60   14.80
 -10  13 -20   22.30   14.10
 -10  13 -20  -20.10   14.10
  13  -3 -20   -4.60   11.80
 -13   3  20    6.60   16.10
   3  10  20  -17.50   11.60
  10 -13  20   -0.10    9.00
   3  10  20  -16.90   10.60
   3  10  20    9.40   10.60
  10 -13  20    4.60    9.20
 -13   3  20   42.60   19.20
  11   3  20   -2.00    9.60
   3 -14  20   -1.80   25.70
 -14  11  20   -0.50   17.80
   3 -14  20   -9.00    7.40
 -14  11  20   -7.00   13.70
 -11   0 -20   -7.50   13.50
 -11   0 -20    3.60   15.90
 -11   0 -20   29.00   13.80
   0  11 -20  -10.60   11.30
  11 -11 -20   19.50   10.50
 -11  11  20   -7.30   12.90
   0 -11  20    7.00    8.10
  11   0  20   10.30    8.30
  11   0  20   -4.60    8.70
 -11  11  20   23.00   10.80
   8 -11 -20   -6.20   10.10
   3   8 -20  -14.50    9.90
   3   8 -20    6.90    9.90
 -11   3 -20   -8.70   10.90
  11  -3  20   -4.00    8.00
  11  -3  20    6.40    7.60
  -3  -8  20   -6.90    8.00
  -8  11  20   10.50    9.70
  -3  -8  20  -34.10   16.30
 -11   6 -20  -11.00   11.40
   6   5 -20    6.30   27.70
   6   5 -20  -13.50    9.90
   5 -11 -20    2.00   11.10
  -6  -5  20   -5.50    7.90
  11  -6  20    6.90    7.70
  -5  11  20    8.10   10.40
  11  -6  20   -1.00    7.70
  -6  -5  20   16.10   14.70
  -5  11  20   -7.90    9.40
   2 -11 -20   26.60   12.60
 -11   9 -20   14.80   11.00
   9   2 -20   -8.10   14.40
  11  -9  20    4.70    7.20
  -9  -2  20   13.20    9.80
  -2  11  20    2.80    9.60
  -9  -2  20   -9.40   13.50
 -11  12 -20   18.40   17.50
  -1 -11 -20  -26.20   12.90
  12  -1 -20  -19.00   11.90
 -11  12 -20    8.20   13.40
 -12   1  20  -10.10   14.50
  11 -12  20  -14.80    6.90
   1  11  20   -1.40   10.80
  13 -12 -20  -11.00   11.60
 -12  -1 -20   12.70   14.70
  -1  13 -20    0.20   11.80
 -12  -1 -20  -13.80   15.00
 -12  -1 -20  -31.00   17.80
 -13  12  20   20.50   14.60
   1 -13  20   -8.10    8.20
  12   1  20   13.00    9.10
 -13  12  20   15.50   12.80
   1 -13  20  -11.00   29.10
  12   1  20    9.60    8.80
 -12   2 -20  -29.80   17.10
 -12   2 -20   -0.30   15.60
   2  10 -20   -5.90   13.90
   2  10 -20   -4.80   15.20
  10 -12 -20   -0.20   12.00
 -12   2 -20   -5.40   14.00
  12  -2  20   17.40    9.50
  12  -2  20    2.90    8.50
  -2 -10  20  -11.80   16.90
 -10  12  20   -5.70   11.00
 -10  12  20   30.60   14.70
  -2 -10  20    4.70    9.20
   5   7 -20  -17.90   10.20
 -12   5 -20   13.20    9.90
   7 -12 -20  -10.60   11.30
   5   7 -20  -19.40    9.20
 -12   5 -20   21.50   13.80
 -12   5 -20  -13.30   14.30
  -5  -7  20   -5.30   14.60
  -5  -7  20   -6.10    8.70
  -7  12  20   -8.90    9.90
  -7  12  20   -6.40   10.40
   8   4 -20   15.60   10.30
   4 -12 -20    2.30   12.00
   8   4 -20    6.90   13.80
 -12   8 -20    6.90   10.80
  -8  -4  20    5.00   13.30
  -8  -4  20   21.00    9.90
  -4  12  20  -11.40   11.50
  12  -8  20    2.20    7.80
  12  -8  20    3.40    8.80
 -12  11 -20   -0.50   13.40
   1 -12 -20   19.80   15.80
  11   1 -20   -6.00   13.30
 -12  11 -20   17.70   13.30
  12 -11  20    8.60    6.40
  -1  12  20   26.60   13.70
 -11  -1  20    1.80   20.60
 -11  -1  20   -5.80   13.20
  12 -11  20   -1.60    9.20
  -1  12  20  -19.90   11.60
  12 -13 -20   -4.60   11.60
 -13   1 -20    5.90   12.40
 -13   1 -20  -10.10   13.30
 -13   1 -20    3.90   19.00
   1  12 -20   -4.40   12.20
 -12  13  20   10.80   14.60
  -1 -12  20  -17.40    8.70
 -12  13  20    0.50   11.20
  13  -1  20  -11.60    8.00
  -1 -12  20  -13.80   21.50
   4   9 -20   10.00   16.30
 -13   4 -20  -11.10   13.00
 -13   4 -20  -17.70   15.60
   9 -13 -20   11.00   11.40
   4   9 -20  -16.40    9.80
 -13   4 -20   -9.30   15.70
  -4  -9  20  -19.90   19.00
  13  -4  20   -3.70    7.60
  -9  13  20    0.90   10.40
  -4  -9  20  -19.30    8.90
  -9  13  20   14.70   13.80
   7   6 -20   -0.20   10.90
  13  -7  20   15.70    9.10
  -6  13  20   27.90   15.40
  -7  -6  20   21.50   16.00
  -6  13  20    4.60   12.30
  13  -7  20   13.90    7.70
  10   3 -20    2.70   13.80
  10   3 -20   -3.80   11.50
 -13  10 -20   -0.50   11.80
  -3  13  20   17.70   12.90
  13 -10  20    5.80    9.00
  13 -10  20    6.00    7.00
 -10  -3  20    8.50   13.40
 -10  -3  20   17.70   14.90
  -3  13  20   24.10   13.60
 -14   3 -20   12.00   20.10
  11 -14 -20   32.80   14.40
  -3 -11  20    8.00    9.30
 -11  14  20   -0.20   13.70
  14  -3  20    2.50    7.60
  14  -3  20  -10.20    9.40
 -14   6 -20   38.90   14.10
 -14   6 -20    5.70   12.90
  14  -6  20   14.50    8.30
  -8  14  20   16.10   12.40
  -6  -8  20   10.20    9.60
  -6  -8  20   18.40   17.80
  -8  14  20  -13.50   12.80
   5 -14 -20   16.30   12.30
   9   5 -20  -24.00   14.30
  -9  -5  20    3.50   12.00
  -5  14  20   -1.50   11.80
  14  -9  20    5.80    8.50
  -9  -5  20  -27.10   15.70
   0   0 -21   21.80   12.10
   0   0 -21    3.30    8.80
   0   0  21    8.00    6.30
   0   0  21   18.00    9.80
  -1  -1 -21    8.40    9.30
  -1  -1 -21   17.50   13.00
   2  -1 -21    8.00    8.80
  -1   2 -21    0.40    8.30
  -1   2 -21    8.00   11.50
   2  -1 -21   18.00   11.20
   1   1  21   21.40    9.10
   1  -2  21   -2.80    6.50
   1  -2 -21   18.30   12.00
   1  -2 -21   -2.10    9.20
   1   1 -21   24.30    8.80
  -2   1 -21   17.10    9.10
   2  -1  21   14.70    9.90
  -1  -1  21   13.80    8.20
  -1   2  21    9.80    6.40
  -1  -1  21   16.20   29.10
   2  -1  21   18.90    7.10
   4  -2 -21   -4.10   11.70
  -2   4 -21   21.40   10.50
  -2  -2 -21  -21.30   11.60
  -2  -2 -21    8.30    9.30
   2   2  21   11.30    9.00
   2   2  21    0.60    7.50
  -4   2  21  -13.10   24.90
  -4   2  21    0.10    7.90
   2  -4  21    8.30    6.50
   0   3 -21    9.80    8.80
  -3   0 -21  -12.10    8.80
   3  -3 -21   -6.30   11.20
   0  -3  21   -5.80    6.80
   0  -3  21  -28.40   16.90
   3   0  21   -5.60    8.20
  -3   3  21    3.50   10.50
   0  -3 -21  -10.50    9.80
   3   0 -21  -13.30   11.60
   3   0 -21   -0.30    9.00
  -3   3 -21    6.70    9.70
  -3   3 -21   -6.60   10.50
   3  -3  21    8.30    6.30
   0   3  21   14.30    7.70
  -3   0  21    9.00   32.40
   3  -3  21   13.80   10.60
   0   3  21  -13.50    9.70
   6  -3 -21   -3.20   11.70
  -3   6 -21    8.20    9.30
  -3  -3 -21   -3.40    9.30
  -3   6 -21    0.80    9.30
  -3  -3 -21    8.80   12.00
  -6   3  21    9.70   28.40
  -6   3  21   11.80    8.10
   3   3  21   14.10    7.40
   3  -6  21   13.90    7.20
   5  -4 -21  -11.00   11.10
  -4  -1 -21    1.60   12.50
  -4  -1 -21  -14.60    8.90
  -1   5 -21   10.40    8.60
  -4  -1 -21   -4.30   18.10
   1  -5  21  -11.50    6.60
   4   1  21    0.60    8.30
  -5   4  21    1.00    7.40
  -5   4  21   -0.60   22.50
   2   2 -21   -3.10    8.70
  -4   2 -21    4.50    9.40
   2   2 -21   -7.10   10.80
  -2  -2  21   21.80   19.70
  -2   4  21   12.60    6.20
   4  -2  21    8.60    7.20
   4  -2  21   19.20    8.80
  -2   4  21   12.00    8.50
  -2  -2  21    2.90    7.30
  -1  -4 -21   27.10   10.30
   5  -1 -21    2.10   11.20
  -4   5 -21    4.70    8.80
  -1  -4 -21  -14.90   11.20
   5  -1 -21    6.60    9.70
   4  -5  21   -0.60   10.20
   4  -5  21    6.30    7.70
   1   4  21   -8.10    8.20
   1   4  21    8.50    7.50
  -5   1  21   10.50    7.50
  -4  -4 -21   15.70   10.80
   8  -4 -21    0.60   10.20
  -4   8 -21   -8.10    9.40
  -4  -4 -21   23.10   12.90
  -4   8 -21   -2.50   10.80
   4   4  21    2.10    7.20
   4  -8  21   12.30    7.50
   4   4  21    1.30    8.80
  -8   4  21  -14.90    8.20
  -2   7 -21  -12.10    8.70
  -5  -2 -21    3.60   14.00
  -5  -2 -21  -15.90    9.40
  -2   7 -21    0.40    9.50
   5   2  21   12.40    8.80
   2  -7  21   -4.40    6.70
  -7   5  21  -11.20   25.50
   4  -5 -21   18.90   10.00
   1   4 -21  -16.90    8.40
  -5   1 -21   19.80    9.50
   1   4 -21   -0.60    9.90
  -5   1 -21    6.20   12.50
  -1  -4  21   -6.20   16.00
  -4   5  21   11.60    7.80
   5  -1  21   -4.20    7.50
  -1  -4  21   -2.70    7.50
   5  -1  21   -8.10    7.50
   4   1 -21   17.10    9.50
   4   1 -21   -8.20   11.70
   1  -5 -21    6.30   11.00
  -5   4 -21   -8.30   11.10
  -1   5  21   -2.90   10.10
  -4  -1  21   -1.90   18.60
  -4  -1  21    8.60    8.00
   5  -4  21   -9.20    7.20
   5  -4  21   11.60    8.50
  -1   5  21    5.30    7.90
   7  -2 -21   13.80   11.80
  -2  -5 -21   14.40   11.00
  -7   2  21    3.10   16.90
   2   5  21   11.00    8.40
  10  -5 -21  -18.80    9.80
  -5  10 -21   -0.30   11.30
  -5  -5 -21   -2.80   11.60
  -5  10 -21   -1.10   10.20
   5   5  21   19.00    8.90
 -10   5  21   -3.80    9.40
   5   5  21   -1.20    8.70
   5 -10  21  -11.80    7.10
  -3   9 -21    9.60    9.70
  -3   9 -21  -17.90    9.70
  -6  -3 -21  -12.00   11.70
  -6  -3 -21   13.50   13.60
   9  -6 -21   21.40   10.40
  -9   6  21   -0.10   28.30
   6   3  21   -1.60    8.40
   6   3  21    0.10    8.50
  -9   6  21   -9.60    8.60
   0   6 -21    9.10    9.10
   6  -6 -21   10.70   10.90
  -6   0 -21  -34.20   22.70
  -6   0 -21   -4.80   13.30
   0   6 -21  -10.10    9.10
   0  -6  21  -10.70    8.40
  -6   6  21  -14.10    6.80
  -6   6  21    2.50   27.20
   6   0  21   -9.80    7.90
   6   0  21   -3.10    7.10
   0  -6  21   -7.10   15.70
   3   3 -21   -4.80   10.70
  -6   3 -21   -1.60   10.50
   3   3 -21   -2.50    8.90
  -6   3 -21   20.00   10.10
   3  -6 -21   14.60   10.10
  -3   6  21    0.70    6.90
  -3   6  21    5.10   10.30
  -3  -3  21   -8.50   16.20
  -6   6 -21  -14.90    9.40
   6   0 -21  -26.80   20.20
   0  -6 -21    9.60   10.30
   6   0 -21   13.80   12.20
  -6   0  21   -6.10    8.20
   0   6  21    0.90    7.80
   0   6  21    3.30   10.30
   6  -6  21   -0.40    7.00
  -6   0  21    1.90   15.70
   6  -6  21  -17.80    9.20
   9  -3 -21   -6.80   11.30
  -6   9 -21   14.10   11.60
  -9   3  21    9.10   12.80
   6  -9  21    4.10    7.20
   3   6  21   -5.60    7.90
  -9   3  21   -2.30    8.90
   3   6  21   12.40   10.70
  12  -6 -21   12.70   12.10
  -6  12 -21  -12.60   10.90
  -6  -6 -21    2.70   14.70
  -6  12 -21   23.50   18.60
 -12   6  21   -3.90    9.70
   6 -12  21   -3.00    8.30
 -12   6  21   27.50   16.40
   6   6  21   -4.40   10.70
   6   6  21   -6.90    8.40
  11  -7 -21    4.60   11.10
  -7  -4 -21   -6.70   13.70
  -4  11 -21  -16.40    9.30
  -4  11 -21    3.70   11.30
 -11   7  21   28.10   16.00
   4 -11  21   10.90    7.30
 -11   7  21   -1.00   11.10
  -7  -1 -21   22.90   14.10
  -1   8 -21   15.30   10.20
   8  -7 -21   14.60   11.50
  -7  -1 -21   14.30   20.80
   7   1  21   25.40    8.80
   1  -8  21   -1.90   15.60
  -8   7  21   35.20   14.00
  -8   7  21  -17.40   29.40
   1  -8  21   21.80    8.10
  -8   7  21   19.50    9.40
  -7   2 -21   13.40   12.70
   2   5 -21    0.20    9.00
   5  -7 -21   21.20    9.70
  -7   2 -21   13.40    9.20
  -2  -5  21    8.30    8.50
  -2  -5  21   25.00   16.80
  -5   7  21   -2.20    6.80
   7  -2  21    6.80    7.80
   7  -2  21   -1.30    8.10
  -5   7  21  -13.90    9.30
   2  -7 -21    5.10   10.50
   5   2 -21   12.10    9.30
  -5  -2  21   -3.70    7.80
  -2   7  21   -7.80    9.40
   7  -5  21   10.60    6.70
  -5  -2  21  -10.80   15.80
  -2   7  21   -2.70    7.90
  -7   8 -21   11.20    9.90
  -1  -7 -21    6.50   11.40
   8  -1 -21   -1.40   12.90
   7  -8  21   18.50   10.10
   1   7  21    2.50    8.90
  -8   1  21    7.30   13.00
   7  -8  21   -0.50    7.30
  -8   1  21  -13.70    9.70
  11  -4 -21    6.40   11.00
  -4  -7 -21   21.90   14.10
  -7  11 -21   -0.80   13.10
  -7  11 -21   22.20   12.10
 -11   4  21    5.00   13.60
   4   7  21   16.90    9.70
   7 -11  21    4.50    7.80
 -11   4  21    7.70    9.20
   4   7  21   -8.70    9.40
   7 -14  21  -15.30    8.40
 -14   7  21   27.90   17.80
   7   7  21  -13.60    9.10
  -5  13 -21    8.60   12.90
  -8  -5 -21    9.00   16.40
   5 -13  21    4.80    8.20
  -8  -2 -21  -23.40   13.30
  -2  10 -21    0.90    8.90
  -8  -2 -21   -2.70   11.00
  -2  10 -21   22.20   11.20
 -10   8  21   10.40   37.80
   2 -10  21  -13.60    7.40
 -10   8  21    2.10   10.60
   2 -10  21   16.60   17.80
 -10   8  21    0.70   15.00
   8   2  21    0.90    8.10
   1   7 -21   -8.40    8.90
  -8   1 -21   23.30   15.00
   1   7 -21   -8.80    9.80
   7  -8 -21   -4.50   10.80
  -8   1 -21   -7.50   11.00
   8  -1  21    2.10    8.80
  -7   8  21   11.00    9.00
  -1  -7  21   30.10   15.20
  -1  -7  21   19.30    8.50
  -7   8  21    6.70   11.90
   4  -8 -21   -3.60   10.70
  -8   4 -21   -4.60    9.80
   4   4 -21   12.30   10.00
   8  -4  21   12.60    7.30
   8  -4  21   -4.70    8.30
  -4   8  21    4.20    8.60
  -4   8  21    2.50    8.70
  -4  -4  21   -3.60   17.00
   1  -8 -21  -12.20   11.40
   7   1 -21  -24.20   16.10
   8  -7  21   -6.60    7.80
  -7  -1  21    4.00   15.70
  -1   8  21    5.50    9.80
  -7  -1  21   -2.70    9.40
  -2  -8 -21    4.80   12.50
  -8  10 -21   25.30   12.50
  10  -2 -21   -3.90   11.20
  -8  10 -21  -13.40   12.80
   8 -10  21   -2.70    9.30
 -10   2  21   29.90   14.70
 -10   2  21    3.00   10.40
   8 -10  21    9.00    7.80
   2   8  21    3.60    9.60
  13  -5 -21  -12.70   12.50
  -8  13 -21  -11.00   18.50
  -5  -8 -21   -2.00   15.80
 -13   5  21   22.00   14.00
 -13   5  21   24.10   17.90
   5   8  21    7.60   11.10
   8 -13  21   13.30    9.20
   5   8  21   10.00   10.60
  -3  12 -21    9.60   11.30
  -9  -3 -21   -4.90   15.10
  12  -9 -21  -10.10   11.00
  -9  -3 -21    6.00   11.60
 -12   9  21  -18.50   11.10
   3 -12  21    2.30    7.50
 -12   9  21    4.30   15.50
   9   3  21   -4.60    9.00
   0   9 -21   -7.00    9.60
   9  -9 -21    8.40   12.40
  -9   0 -21   23.50   14.70
  -9   0 -21   -0.30   17.80
  -9   0 -21    2.40   10.60
   0  -9  21   12.10    8.50
   0  -9  21   11.60   17.50
  -9   9  21    1.70    9.20
   9   0  21   17.30    8.90
  -9   3 -21    3.10   15.20
  -9   3 -21    6.60   11.30
   3   6 -21    5.80    9.70
   6  -9 -21   -0.90   11.00
  -9   3 -21   32.20   13.70
  -3  -6  21   30.60   17.90
   9  -3  21    3.20    7.30
   9  -3  21    6.30    8.50
  -3  -6  21   -0.10    9.00
  -6   9  21    3.20    8.10
   6   3 -21  -25.50   12.00
   3  -9 -21   -5.20   11.00
   6   3 -21    4.30   21.70
   6   3 -21    0.30    9.60
  -6  -3  21   -7.50    8.40
  -3   9  21   13.50    9.30
  -3   9  21  -17.00    9.90
  -6  -3  21   -6.10   15.10
  -9   9 -21   18.00   10.00
   9   0 -21  -11.90   13.00
   9  -9  21   -5.00    8.20
  -9   0  21  -14.80   13.90
  -9   0  21   17.60    9.60
   0   9  21    0.10    9.70
   0   9  21  -12.00   10.50
  -9  12 -21   -6.50   12.50
  12  -3 -21   -6.20   11.50
  -3  -9 -21  -20.00   13.50
   9 -12  21   -4.80    8.70
   3   9  21   20.60   14.80
 -12   3  21  -13.40   14.50
   9 -12  21   -5.30   10.00
  -1  11 -21  -12.90   10.40
 -10  -1 -21   -7.30   16.90
  -1  11 -21   13.60   11.80
 -11  10  21   -3.60   14.70
   1 -11  21   -3.00    7.50
  10   1  21   23.10   12.60
   8 -10 -21   24.10   12.60
   2   8 -21    2.60    9.90
 -10   2 -21  -10.30    9.50
 -10   2 -21   -9.90   13.10
   2   8 -21   16.80   11.60
  10  -2  21   -5.20    7.90
  -2  -8  21   11.90    8.80
  10  -2  21   -3.70    8.30
  -8  10  21   -4.70   11.70
  -2  -8  21    6.60   18.80
  -8  10  21   -5.30    8.90
   5 -10 -21   10.60   12.30
 -10   5 -21  -22.20   11.70
   5   5 -21    1.00   10.30
  10  -5  21   -2.10    8.10
  10  -5  21   13.60    8.20
  -5  -5  21   -3.80    9.10
 -10   8 -21   13.20   11.80
   8   2 -21    4.80   13.50
   2 -10 -21   33.90   12.70
  -2  10  21   14.50    9.90
  -8  -2  21   -9.00   14.00
  -2  10  21    5.00    9.80
  10  -8  21    0.60    7.90
  -8  -2  21    8.90    8.40
 -10  11 -21   18.20   14.10
  11  -1 -21   -5.40   13.00
  -1 -10 -21    1.30   13.30
   1  10  21  -14.10   11.10
 -11   1  21    9.10   15.30
  10 -11  21   21.40    8.40
 -11   1  21   17.50   14.10
  10 -11  21    5.10    9.10
  11   2  21    9.00    9.50
   2 -13  21   -3.50    8.70
 -13  11  21    7.80   12.20
 -11   1 -21   -2.60   13.50
 -11   1 -21  -16.30   13.40
 -11   1 -21   -4.20   17.60
  10 -11 -21   13.20   13.10
   1  10 -21  -14.10   11.20
   1  10 -21    7.70   11.20
  -1 -10  21    5.40    8.50
 -10  11  21   30.90   13.40
 -10  11  21   23.60   11.40
  -1 -10  21   10.00   16.00
  11  -1  21   14.20    7.80
   4   7 -21    4.20   10.40
 -11   4 -21   23.50   15.10
   4   7 -21   -5.00   10.00
   7 -11 -21   17.60   12.50
 -11   4 -21  -15.00   14.10
  11  -4  21    3.90    7.80
  -4  -7  21   -5.20    8.30
  -4  -7  21  -19.00   17.90
  -7  11  21  -10.70   12.00
   4 -11 -21   11.60   12.60
 -11   7 -21   -0.60   12.30
   7   4 -21  -10.60   12.70
  11  -7  21  -15.40    7.60
  11  -7  21   16.30    8.90
  -7  -4  21   16.60   15.20
  -4  11  21   -1.20   10.30
  -4  11  21   15.20   10.30
   1 -11 -21   10.80   14.10
 -11  10 -21  -33.40   15.80
  11 -10  21   -3.70    8.00
  -1  11  21   -1.00   11.10
 -10  -1  21   25.70   15.70
 -13   2  21   18.80   12.10
  11 -13  21   -2.70   10.30
   2  11  21   23.00   11.70
  12 -12 -21   19.50   12.60
 -12  12  21    2.30   14.30
   0 -12  21  -40.20   27.10
  12   0  21   -6.30    9.20
  12   0  21   17.90    9.20
   3   9 -21   -2.50   14.80
 -12   3 -21   -8.30   13.40
   3   9 -21  -17.00   11.40
 -12   3 -21   -7.50   13.60
 -12   3 -21  -25.90   17.30
   9 -12 -21    6.60   12.70
  -3  -9  21  -41.90   20.10
  -9  12  21   -7.10   12.40
  12  -3  21   10.50    8.00
  -9  12  21   -6.00    9.70
  12  -3  21   -3.50    7.70
  -3  -9  21    2.90    8.80
   6 -12 -21   -7.00   12.70
  12  -6  21    0.10    8.40
  -6  12  21  -18.00   10.70
  12  -6  21   -9.20    7.50
  -6  12  21   -9.30   12.00
  -6  -6  21   10.90   16.00
  -6  -6  21   16.70    9.60
   9   3 -21    5.50   11.70
   9   3 -21  -11.70   14.90
  -9  -3  21   18.80    9.80
  -9  -3  21   16.20   14.80
  -3  12  21  -13.50   15.20
  12  -9  21   22.00    7.90
  -3  12  21   14.60   12.20
   0 -12 -21   19.50   15.60
   0  12  21   14.30   13.00
  12 -12  21    6.20    9.80
 -12   0  21   16.30   12.10
   0  12  21   -1.30   11.10
 -12   0  21   12.30   16.70
 -11  13  21  -19.70   11.70
  13  -2  21    7.10    9.40
  -2 -11  21   -2.90    9.60
  -2 -11  21   -5.70   18.60
 -13   5 -21   10.80   13.30
 -13   5 -21    3.90   18.40
  -8  13  21    8.80   12.00
  13  -5  21    1.30    8.80
  -5  -8  21   -6.20    9.60
  -8  13  21   -5.80   11.00
  13  -5  21    6.70   12.90
  -5  -8  21   23.50   20.20
 -13   8 -21    1.80   13.10
   8   5 -21  -22.30   14.60
  -8  -5  21   13.40   16.50
  13  -8  21   -1.50    8.20
  -5  13  21   13.80   12.50
  -8  -5  21  -11.80   10.00
  13  -8  21    1.90    7.60
  13 -11  21    0.70   10.00
 -11  -2  21  -12.60   16.20
 -14   7 -21   22.80   16.40
  -7  14  21   -1.60   12.80
  -7  -7  21   18.70   16.70
  -7  -7  21    1.10   10.50
  -1   0 -22   12.30    9.10
   1  -1 -22  -11.20    8.80
   0   1 -22  -17.10   12.50
   0   1 -22   16.90    9.30
   0  -1  22    1.80    5.90
  -1   1  22   -8.50   10.30
   1   0  22   -5.70    7.20
  -2  -1 -22   -6.20   10.10
   3  -2 -22   -5.00   11.30
   3  -2 -22   16.10    9.20
  -2  -1 -22   14.00   11.60
  -1   3 -22  -10.40    9.50
   1  -3  22   -7.40    6.50
  -3   2  22   -4.00    7.50
   2   1  22   -2.80    8.00
   2   1  22    1.00    8.10
  -2   2 -22   41.20   10.80
  -2   2 -22   27.10   12.80
   0  -2 -22   14.50   12.60
   0  -2 -22    3.50    9.80
  -2   0  22   24.90   29.10
  -2   0  22   22.40    8.80
   2  -2  22   36.00   10.80
  -3  -2 -22    8.40   10.40
   5  -3 -22   29.10   11.50
  -3  -2 -22    5.80   11.80
  -2   5 -22   -9.30   10.20
  -5   3  22   15.90    8.30
  -5   3  22   -9.50   27.10
   2  -3 -22    2.40   11.30
   2  -3 -22   15.20   10.20
  -3   1 -22   11.80   10.80
  -3   1 -22  -13.80   10.60
  -1  -2  22  -18.50   18.10
   3  -1  22   -5.30    7.80
  -1  -2  22    8.80    7.30
   3  -1  22   -9.80    8.70
  -2   3  22    1.50   10.60
  -1  -3 -22    8.20   11.80
  -1  -3 -22   35.10   10.30
  -3   4 -22   24.70   11.70
   4  -1 -22   25.80   11.80
   1   3  22   17.50    9.10
   3  -4  22   -4.30   11.30
  -4   1  22  -16.50   34.60
  -4   1  22   19.80    7.90
   3  -4  22   17.50    7.70
   7  -4 -22   -8.40   10.90
  -3   7 -22   -4.20    9.30
  -4  -3 -22    6.20   10.40
  -7   4  22    2.20    7.50
   3  -7  22   -2.90    7.70
   4   3  22    2.60    7.30
   4   3  22    0.30    9.60
  -7   4  22  -19.40   30.50
   4  -4 -22  -12.90   11.10
  -4   0 -22  -14.90    9.50
   0   4 -22  -18.90   10.40
   0   4 -22  -11.90    9.80
  -4   0 -22  -22.70   12.60
   4   0  22    4.80    7.70
   0  -4  22    2.30    7.30
  -4   4  22    4.20   11.40
   4   0  22   -9.10    8.50
   0  -4  22  -12.20   16.80
  -4   4  22  -12.00    7.10
  -4   3 -22   13.50   10.90
   3   1 -22   -2.70   12.00
   1  -4 -22   26.20   13.90
  -4   3 -22   -2.10   11.10
   3   1 -22    6.60    9.50
   4  -3  22    3.70    9.70
  -1   4  22   -5.10    7.40
  -1   4  22   20.30   10.80
   4  -3  22  -14.80    7.40
  -3  -1  22    1.00    7.90
  -4   6 -22   18.30   11.10
  -2  -4 -22   25.50   13.10
   6  -2 -22    5.90   12.80
  -2  -4 -22  -15.20    8.60
  -6   2  22   10.70   12.50
   4  -6  22   -4.50    7.70
   2   4  22   -4.20    9.70
  -5  -4 -22   -9.50    8.90
  -4   9 -22  -17.10    9.70
  -4   9 -22  -14.30   10.50
  -5  -4 -22   24.10   14.30
  -9   5  22    7.60   14.70
  -9   5  22   -9.60    9.10
   5   4  22    2.40    9.00
   5   4  22   -1.60    9.30
   4  -9  22    0.70    7.80
  -5  -1 -22    5.70   10.10
  -5  -1 -22   15.80   12.60
  -5  -1 -22   -4.00   22.70
  -1   6 -22  -10.10    9.90
  -6   5  22   -4.90   34.20
   1  -6  22    3.80    7.20
  -6   5  22    6.50    8.30
   2   3 -22   12.40   11.90
   3  -5 -22   -6.80   11.10
  -5   2 -22   -3.40    9.30
  -5   2 -22   -4.10   11.10
  -2  -3  22    9.60   18.60
   5  -2  22    3.30    9.20
  -2  -3  22   -9.50    8.60
   5  -2  22   17.10    7.80
  -3   5  22   -1.90   10.60
  -3   5  22  -13.60    7.10
   0  -5 -22   24.90   13.20
  -5   5 -22   15.10   11.30
   5   0 -22    2.10   10.10
   5   0 -22   -9.30   11.70
   5  -5  22   15.00   10.60
   0   5  22    5.90   10.10
  -5   0  22   18.20    8.70
  -5   0  22    0.40   18.80
   8  -3 -22   -4.90   12.30
  -5   8 -22   -5.80   10.90
  -5   8 -22   -5.60   10.50
  -3  -5 -22   -8.50   12.20
   3   5  22    8.80    9.00
   5  -8  22   16.80    7.80
   3   5  22   -6.40    9.10
  -8   3  22   -3.30   17.20
  -5  11 -22   14.80   15.70
  -5  11 -22  -20.00   13.60
  11  -6 -22    3.30   12.10
   6   5  22    5.90    9.70
   6   5  22  -13.10    9.40
 -11   6  22   17.60   14.90
   5 -11  22   -6.80    7.60
 -11   6  22   -7.80   10.00
  -2   8 -22  -17.20    9.50
  -6  -2 -22    2.20   10.00
  -6  -2 -22    3.60   14.60
   8  -6 -22   19.70   11.10
  -2   8 -22  -16.30   10.70
  -8   6  22  -22.80   41.70
   6   2  22    2.90    8.20
   2  -8  22    5.20    6.90
   6   2  22    2.40    9.70
   1   5 -22   19.50   10.10
   1   5 -22  -11.20    8.70
   5  -6 -22  -15.10   10.20
  -6   1 -22  -17.70    9.60
  -6   1 -22   -6.80   12.90
  -1  -5  22   -1.20   17.20
   6  -1  22   -1.80    8.00
  -5   6  22    0.90   12.40
  -5   6  22   -8.00    8.20
   6  -1  22    9.60    8.50
  -6   4 -22   24.50   10.50
   2  -6 -22    3.30   11.20
   4   2 -22   11.70   10.20
  -2   6  22   20.90   10.60
   6  -4  22    4.90    7.30
   7  -1 -22   -3.80   13.10
  -7   1  22   21.30   15.10
   1   6  22    2.80    8.00
  -7   1  22   -6.10    9.30
   6  -7  22   -7.60    9.20
   6  -7  22   -1.80    7.30
   1   6  22  -22.20   10.20
  -4  -6 -22   -0.90   14.10
  -6  10 -22  -18.40   12.30
  -6  10 -22   -9.40   10.40
  10  -4 -22   15.80   12.30
   4   6  22    1.10    9.40
   4   6  22   -9.90   10.00
   6 -10  22  -12.90    8.10
   7   6  22    5.30   10.00
  -7  -3 -22  -19.10   14.80
  -7  -3 -22  -15.00   11.60
  -3  10 -22   -1.60   10.50
  10  -7 -22   -7.40   11.40
 -10   7  22   -1.60   10.30
   7   3  22   10.60    9.20
  -7   0 -22    0.90   11.00
  -7   0 -22    0.30   14.40
   0   7 -22    6.20    9.80
  -7   0 -22   16.70   23.60
   0   7 -22   11.40   10.00
   7   0  22   -3.90    8.50
  -7   7  22  -12.70   12.00
  -7   7  22  -13.90    8.30
   7   0  22   17.10    9.30
   3   4 -22    4.60    9.90
  -7   3 -22   -3.00   10.00
   3   4 -22    6.50   11.80
   3   4 -22   16.20   10.10
  -7   3 -22   -2.30   13.60
   7  -3  22    7.70    7.30
  -3  -4  22   22.30   17.50
  -4   7  22   19.50    7.50
  -3  -4  22   19.80    8.20
   6   1 -22    1.50   14.00
   6   1 -22   -2.20    8.50
  -7   6 -22   -7.80    9.70
   1  -7 -22  -14.80   11.00
  -6  -1  22  -10.80    8.60
   7  -6  22   16.40    9.10
  -1   7  22  -12.30    8.70
  -6  -1  22    7.70   15.70
   9  -2 -22  -14.10   12.50
  -2  -7 -22  -15.00   11.10
  -7   9 -22  -19.10   11.30
   7  -9  22  -22.20   10.00
  -9   2  22    0.10   10.10
   2   7  22   15.70    9.60
   7  -9  22   -4.90    7.90
  -9   2  22  -19.10   13.40
  12  -5 -22  -15.00   12.60
  -5  -7 -22  -17.90   13.70
 -12   5  22   19.90   12.00
   7 -12  22   -5.20    7.90
 -12   5  22  -10.00   15.80
   5   7  22   -6.90   11.00
   5   7  22  -16.30   10.20
  -4  12 -22   -3.80   12.60
  12  -8 -22   -4.20   12.20
  -8  -4 -22  -15.30   15.10
   8   4  22   11.90   11.00
 -12   8  22   12.60   18.00
  -8  -1 -22   -8.10   11.70
  -8  -1 -22    2.50   16.70
  -1   9 -22   -0.20   11.40
  -9   8  22    6.50   14.10
   8   1  22   12.80    8.60
   8   1  22   -4.20    8.50
   1  -9  22   -5.80   17.20
  -8   2 -22  -10.10   13.70
   2   6 -22   13.10   10.00
   2   6 -22   -8.90    8.90
  -8   2 -22   30.00   16.60
   8  -2  22   -3.00    8.40
  -6   8  22   -5.40    7.70
  -6   8  22   23.00   12.10
  -2  -6  22   -0.70   18.00
  -2  -6  22   -5.60    8.20
   5   3 -22   -7.60    9.70
  -8   5 -22   12.90    9.80
   5   3 -22  -26.10   12.90
  -3   8  22   14.40    8.70
  -5  -3  22   15.50    8.30
   8  -5  22   -4.10    8.80
  -3   8  22  -13.40    9.20
  -5  -3  22   -5.00   18.10
   8  -5  22   -3.10    7.40
   8   0 -22   18.50   13.10
   0  -8 -22   -9.00   11.30
  -8   8 -22   -3.50   10.70
  -8   0  22   -6.40    9.50
  -8   0  22   26.90   16.10
   0   8  22   16.20    9.80
   0   8  22    1.80    9.20
   8  -8  22    1.70    9.00
   8  -8  22    8.30    7.80
  -8  11 -22    6.00   14.80
  -8  11 -22   -0.20   18.60
  -3  -8 -22  -11.50   14.20
   3   8  22    7.50   15.60
   8 -11  22  -13.60   11.00
 -11   3  22  -23.40   15.20
   3   8  22   16.10   10.90
   8 -11  22   -0.90    8.40
  -9  -2 -22   14.30   11.70
  -2  11 -22   -1.30   11.50
  -9  -2 -22   -7.30   17.80
  11  -9 -22   25.40   12.60
   2 -11  22   -1.00   20.90
 -11   9  22   14.10   11.20
 -11   9  22   34.30   16.20
   2 -11  22   -0.50    8.10
   9   2  22    1.10    9.60
  -9   1 -22   -6.10   17.20
  -9   1 -22   -5.30   13.50
   1   8 -22   -2.90   11.50
  -9   1 -22  -16.80   11.60
   1   8 -22    5.00   11.50
   9  -1  22  -11.30    8.20
  -1  -8  22    9.40   19.30
  -8   9  22    4.60   11.20
  -8   9  22   -0.60    9.70
  -1  -8  22   -7.00    8.10
   4   5 -22   10.30   10.70
   4   5 -22  -10.50   10.40
  -9   4 -22   -6.00   11.80
  -9   4 -22    1.60   13.00
  -4  -5  22   12.80    9.00
   9  -4  22   12.00    8.10
  -5   9  22   -4.80    8.80
  -5   9  22   33.60   11.50
   9  -4  22    4.40    8.30
   2  -9 -22   -2.20   11.60
   7   2 -22   24.20   14.20
  -2   9  22    1.20   10.50
   9  -7  22   10.10    7.30
  -7  -2  22   11.90    9.00
   9  -7  22    9.80    8.70
  -2   9  22  -11.40    9.80
  -9  10 -22  -14.10   17.20
  -9  10 -22  -11.80   13.30
  10  -1 -22    3.40   13.20
 -10   1  22   -8.50   14.70
   9 -10  22  -15.00    8.90
 -10   1  22   -6.70   16.20
   9 -10  22    3.30    8.30
   0  10 -22   20.50   10.50
  10 -10 -22   -2.70   12.00
 -10  10  22   13.20   12.90
  10   0  22    7.00   15.10
  10   0  22   19.00    9.00
   0 -10  22   13.50    8.60
   0 -10  22    5.80   21.30
 -10  10  22   18.70   11.30
   7 -10 -22   22.20   12.50
 -10   3 -22    0.60   14.40
   3   7 -22    1.10   10.40
  10  -3  22    3.90    8.80
  10  -3  22  -12.50    8.40
  -7  10  22   10.20   11.60
  -7  10  22   -4.40    9.40
  -3  -7  22   -7.30    9.20
  -3  -7  22   -1.70   20.20
   6   4 -22   28.30   13.50
   4 -10 -22   -7.40   11.90
   6   4 -22   -2.90   11.60
   6   4 -22    1.50    9.40
  10  -6  22   -0.60    8.20
  10  -6  22   -8.30    8.50
  -4  10  22  -18.80   10.40
  -4  10  22   -7.90    9.40
  -6  -4  22    3.50    9.80
   9   1 -22   22.10   14.10
   1 -10 -22  -11.60   21.30
  10  -9  22   10.20    8.90
  -9  -1  22  -13.00    9.90
  -1  10  22  -13.40   10.50
  -9  -1  22  -12.50   15.40
  10 -12  22   -5.50    9.70
 -12   2  22  -13.70   16.10
 -12   2  22   -9.50   11.70
 -11   2 -22  -17.20   19.30
 -11   2 -22   14.40   13.20
   2   9 -22    5.60   12.10
   9 -11 -22   17.30   10.70
  -9  11  22    5.30   11.30
  -2  -9  22   48.70   20.90
  11  -2  22   -5.20    8.70
  -9  11  22    7.70   13.00
   5   6 -22   -3.60   10.60
 -11   5 -22  -19.40   15.40
   5   6 -22    7.40    8.80
 -11   5 -22    6.50   13.30
   6 -11 -22   42.20   20.30
 -11   5 -22   13.90   14.80
  11  -5  22   16.70    8.90
  -6  11  22  -17.70   10.30
  -5  -6  22  -18.50   17.90
  -5  -6  22   -2.00    9.80
   3 -11 -22  -12.60   15.90
   8   3 -22   15.50   14.90
 -11   8 -22    0.80   12.60
  -3  11  22   24.70   11.90
  -8  -3  22   17.80   17.00
  -8  -3  22   33.20    8.90
  11  -8  22   20.20    9.10
  11  -8  22    2.50    8.60
   0 -11 -22  -21.30   13.00
 -11   0  22  -15.30   19.10
  11 -11  22   15.50    7.50
 -11   0  22  -15.80   11.80
   0  11  22   -2.30   12.60
  11 -11  22  -16.30    8.80
   0  11  22   20.30   14.20
   4   8 -22   13.20   10.10
   8 -12 -22   -4.10   15.00
 -12   4 -22   -2.60   15.20
 -12   4 -22  -16.30   11.60
 -12   4 -22  -15.40   16.80
  -8  12  22    5.00   10.80
  -4  -8  22    3.30    9.80
  12  -4  22   12.50    9.10
  -4  -8  22   -0.40   18.60
   7   5 -22    8.40   14.20
   5 -12 -22   -5.70   12.20
  -5  12  22   -1.80   11.90
  -7  -5  22  -12.90   17.20
  12  -7  22   -0.40    8.30
  12  -7  22  -15.70    8.80
  -7  -5  22    3.80    9.70
  -2  12  22    5.40   14.00
  12 -10  22    3.60    9.60
 -10  -2  22    4.80   10.20
 -10  -2  22   23.20   16.20
  13  -6  22   13.60    9.40
  -1   1 -23   -6.10   10.50
   0  -1 -23   25.40    9.70
   1   0 -23   27.10   10.00
   1   0 -23   12.40   12.00
   1  -1  23   26.70   10.30
  -1   0  23   -3.50    6.60
   1  -1  23   11.50    7.30
   0   1  23    7.80   10.50
  -1   0  23    6.00   11.30
   0   1  23   -4.50    7.70
  -2   0 -23    4.90   13.40
  -2   0 -23    9.50    9.60
   0   2 -23   -7.60   10.60
   2  -2 -23   21.90   12.00
   2  -2 -23   -9.30    9.50
  -2   2  23    3.60    6.90
   0  -2  23   -0.20    6.70
   2   0  23    7.60    7.30
  -2   2  23   18.80   12.50
   2   0  23   -5.10    8.90
  -2   3 -23   12.10   10.50
  -1  -2 -23   27.90    9.70
  -1  -2 -23   -6.80   13.10
  -2   3 -23  -13.40   13.30
   2  -3  23    9.80   10.50
   1   2  23   -0.10    9.70
   2  -3  23    7.30    7.80
   1   2  23   -6.10    7.20
  -3   1  23    9.10   28.90
  -1   4 -23    9.10   11.50
  -3  -1 -23   -2.80   11.90
  -3  -1 -23    3.70   11.10
  -1   4 -23   12.60   10.00
  -4   3  23  -14.80   11.50
   3   1  23   11.10    8.70
   3   1  23    8.30    9.50
   1  -4  23    8.60    6.80
  -3   2 -23   22.90   12.80
   2   1 -23   -1.80    9.00
  -3   2 -23    4.60    9.30
   1  -3 -23   10.20    9.80
   3  -2  23   15.30   10.10
  -2  -1  23   -7.20   17.00
  -1   3  23    7.30    8.90
   3  -2  23   -1.70    8.00
  -2  -3 -23    6.80   13.70
  -3   5 -23   -6.10   10.70
  -2  -3 -23   -6.70   11.10
   5  -2 -23   13.10   14.70
   3  -5  23   -0.70    7.50
   2   3  23  -11.50    9.70
  -5   2  23   -1.20   34.50
   2   3  23   13.10    8.30
  -2   6 -23    8.60   10.00
   6  -4 -23   -5.30   11.90
  -4  -2 -23   23.70   13.40
  -4  -2 -23    5.20   11.00
  -6   4  23    3.40    8.60
   4   2  23   -2.30    7.50
   4   2  23   -9.50   10.20
   2  -6  23   13.20    7.30
  -4   1 -23    6.00   10.00
   1   3 -23   -2.10   11.90
   1   3 -23   -0.90    9.80
  -4   1 -23   14.10   13.10
   4  -1  23   12.40    9.90
  -1  -3  23  -12.60    7.20
  -3   4  23    1.60    7.40
   4  -1  23    1.50    7.80
  -4   4 -23    1.90   11.00
   4   0 -23   -3.40    9.90
   4   0 -23    5.90   14.20
  -4   4 -23   -8.60   12.60
   0  -4 -23    8.10   14.00
   4  -4  23  -10.90    7.80
  -4   0  23    4.30    7.60
   0   4  23   12.50    8.50
  -4   0  23   -6.00   20.80
   4  -4  23    6.10   10.60
  -4   7 -23    5.10   10.80
   7  -3 -23    8.30   12.60
  -3  -4 -23    1.20   12.90
  -3  -4 -23    6.30   10.40
  -7   3  23    0.50    8.60
   3   4  23   10.70    8.70
   3   4  23   -7.30    9.70
  -7   3  23  -13.50   25.90
   4  -7  23   17.70    7.50
  -5  -3 -23    9.60   13.40
   3  -8  23   13.30    7.00
  -8   5  23   16.80    9.30
   5   3  23   30.20   10.30
  -5   0 -23    7.60   13.70
  -5   0 -23  -11.90   32.60
   0   5 -23  -14.90   10.00
   0   5 -23    0.70    9.80
   5  -5 -23    3.50   12.00
   5   0  23    3.00    7.60
  -5   5  23  -16.40    9.60
  -5   5  23   -4.80    8.10
   5   0  23   -1.00    8.50
   0  -5  23   -2.30    8.80
   0  -5  23  -28.80   17.70
   2  -5 -23    0.40   11.80
   3   2 -23  -17.90   13.30
   3   2 -23  -15.90   10.10
  -3  -2  23   -2.70    8.40
   5  -3  23   20.60    9.60
   5  -3  23   11.00    7.50
  -2   5  23   14.60    7.30
  -3  -2  23  -33.50   16.60
   6  -1 -23   -1.50   14.00
  -1  -5 -23    1.40   11.60
   1   5  23    6.70    8.50
   1   5  23  -17.00   11.40
  -6   1  23   25.90   18.90
   5  -6  23    3.60    9.60
  -6   1  23   16.70   10.20
   5  -6  23    0.60    8.60
  -5   9 -23  -14.00   11.00
  -4  -5 -23   -9.40   12.30
   9  -4 -23   -2.30   11.20
  -9   4  23   -3.60   16.50
   4   5  23   14.80   11.00
  -4  10 -23   14.30   11.70
  -6  -4 -23   25.80   10.70
  -4  10 -23  -19.30   12.80
  10  -6 -23    3.20   12.60
 -10   6  23   -2.10   11.00
   6   4  23   18.20   12.70
   6   4  23  -15.90    9.40
   7  -6 -23  -14.70   13.00
  -1   7 -23  -20.70   10.50
  -6  -1 -23  -16.10   14.60
  -6  -1 -23    4.90   11.00
  -1   7 -23   -2.00    9.60
   1  -7  23   -3.00    7.30
  -7   6  23   -9.70    9.10
   6   1  23   10.70    9.60
   6   1  23   13.00    9.10
  -6   2 -23    6.90   11.90
   2   4 -23   -0.10   13.50
   2   4 -23   -6.30   11.10
   2   4 -23    9.40   10.60
   4  -6 -23    0.90   11.10
  -4   6  23   11.40    9.50
  -2  -4  23   -1.80   19.50
  -4   6  23    7.10    7.80
  -2  -4  23   13.80    9.90
   6  -2  23    0.30    7.90
   5   1 -23   -4.10   13.50
   1  -6 -23    8.80   12.60
   5   1 -23   -0.20   10.00
  -6   5 -23  -13.00   10.90
  -1   6  23   -0.10   10.80
   6  -5  23   11.40    9.10
  -5  -1  23    8.60    8.70
  -5  -1  23  -17.10   17.40
  -1   6  23   12.70    8.80
  -2  -6 -23    1.90   11.60
  -6   8 -23   -5.20   11.40
  -6   8 -23  -12.30   10.50
   8  -2 -23   -6.00   13.30
   2   6  23   -1.20    9.30
  -8   2  23   -1.80    8.60
  -8   2  23  -11.30   16.60
   6  -8  23    1.80   11.70
   6  -8  23   -4.40    7.00
   2   6  23    5.00    9.40
  -6  11 -23    2.20   13.30
  11  -5 -23  -11.70   12.10
   5   6  23   12.50   11.20
 -11   5  23   -2.50   11.50
 -11   5  23  -11.70   15.40
   9  -7 -23  -17.20   12.60
  -2   9 -23  -13.50   10.90
  -7  -2 -23    6.20   21.90
  -2   9 -23   10.70   11.50
   7   2  23    5.90    8.60
  -9   7  23  -22.60   14.00
   2  -9  23    9.30    7.40
  -9   7  23   27.00   10.30
   1   6 -23    2.30   10.00
  -7   1 -23  -13.60   14.60
   1   6 -23   -3.60    9.90
   6  -7 -23   -3.40   11.30
  -7   1 -23  -50.29   31.20
  -6   7  23    8.40    9.40
   7  -1  23    9.40    8.80
  -1  -6  23   14.40   19.40
  -6   7  23    6.50   10.70
   3  -7 -23   -6.70   11.50
  -7   4 -23  -23.50   13.20
  -7   4 -23   18.10   11.60
   4   3 -23   -7.20   12.70
   7  -4  23    2.00    8.20
  -3   7  23   -3.60    8.70
  -3   7  23  -14.70    9.60
  -4  -3  23   -5.10   18.00
   7  -4  23    6.70    7.80
  -7   0  23  -22.20   15.90
   7  -7  23   -1.20    9.30
   0   7  23   -6.40    9.80
  10  -3 -23  -13.30   12.30
  -7  10 -23  -19.70   15.20
  -3  -7 -23    8.00   21.20
  -7  10 -23   -0.60   12.80
   7 -10  23    6.10   12.10
   3   7  23   16.60   11.00
 -10   3  23   29.20   13.30
 -10   3  23  -15.30   14.40
  -8  -3 -23   29.60   18.60
  11  -8 -23   10.70   13.80
   3 -11  23   14.40    8.40
   8   3  23    8.10   14.60
   8   3  23    1.00    8.10
   0   8 -23    3.00   10.60
   8  -8 -23    3.50   11.80
  -8   0 -23   13.10   16.00
   0   8 -23  -10.80   11.40
  -8   8  23  -10.60   13.30
  -8   8  23  -19.00    9.90
   0  -8  23  -10.70    8.30
  -8   3 -23   18.20   14.40
  -8   3 -23   10.60   11.40
   3   5 -23   26.60   11.40
   8  -3  23    1.80    8.90
  -5   8  23    9.90   12.20
  -3  -5  23   33.70   20.30
  -3  -5  23   19.30    9.20
   6   2 -23    9.30   15.10
   6   2 -23   -1.80    9.50
  -2   8  23   -5.80   10.60
   8  -6  23   -7.40    7.70
  -2   8  23    9.50   10.70
  -6  -2  23   -7.30   17.80
  -6  -2  23  -12.40    8.90
   9  -1 -23    9.40   14.60
  -8   9 -23    7.80   14.20
   8  -9  23   14.10    7.90
  -9   1  23  -20.50   18.80
   8  -9  23   -3.90   10.30
  -9  -1 -23   13.30   14.50
  -1  10 -23   -7.20   12.80
  10  -9 -23  -10.60   12.40
  -9  -1 -23   20.90   19.90
 -10   9  23  -29.40   20.30
 -10   9  23    8.10   10.30
   1 -10  23   10.80   22.20
   9   1  23   18.40    8.90
   2   7 -23   19.60   12.70
   7  -9 -23   -1.00   11.70
   2   7 -23  -18.50   11.40
  -9   2 -23   -2.20   13.40
  -9   2 -23   28.10   16.80
  -2  -7  23    1.80    8.70
  -7   9  23    8.00    9.00
   9  -2  23    8.60    8.00
   9  -2  23   11.40    9.60
  -2  -7  23   20.70   18.30
  -7   9  23   -4.00   11.60
  -9   5 -23   -5.20   13.40
   5   4 -23   15.70   10.40
  -5  -4  23  -18.00    9.10
  -4   9  23    4.60    9.70
   9  -5  23   -7.60    9.20
   9  -5  23   -8.10    8.40
   8   1 -23  -13.40   14.60
  -1   9  23    3.70   10.00
   9  -8  23    2.20    8.90
  -8  -1  23  -26.40   13.20
  -8  -1  23    4.60   17.50
  -1   9  23   -5.90   16.90
 -11   2  23  -13.50   14.80
   9 -11  23  -11.70    9.40
   2   9  23   -0.70   13.40
   9 -10 -23   14.80   15.20
 -10   1 -23   -3.20   10.80
   1   9 -23    2.10   13.10
 -10   1 -23   19.80   18.60
  -9  10  23   -2.50   10.90
  10  -1  23  -13.60    9.20
  -1  -9  23    9.20    9.80
  -1  -9  23  -40.70   21.30
  -9  10  23    0.10   21.80
 -10   4 -23   46.80   17.50
 -10   4 -23   12.90   15.60
 -10   4 -23   -6.40   12.50
  -4  -6  23   10.30   19.80
  -6  10  23   13.30   10.90
  10  -4  23   16.80    9.00
 -10   7 -23   -1.20   11.10
   7   3 -23   18.90   12.10
   3 -10 -23    7.30   13.20
   7   3 -23   17.20   15.70
  -3  10  23   17.10   12.50
  10  -7  23   -4.90    8.60
  -3  10  23   19.80   12.70
  -7  -3  23    4.30   14.00
  -7  -3  23   15.20   18.00
  10  -7  23    5.70    9.00
  10   0 -23   15.20   15.40
   0 -10 -23  -13.90   17.00
 -10   0  23   -1.80   16.40
  10 -10  23   12.40    9.30
  10 -10  23    9.20    9.70
   0  10  23   20.90   10.80
   0  10  23   -3.50   12.20
 -11   3 -23    0.00   17.10
   8 -11 -23   19.70   14.30
 -11   3 -23   15.60   13.70
  11  -3  23   -1.10   10.00
  11  -3  23   11.20    9.80
  -8  11  23   32.80   10.90
  -3  -8  23   13.60   21.60
   5 -11 -23    2.10   13.40
   6   5 -23  -11.90   13.30
  -6  -5  23  -11.80   19.40
  11  -6  23   -6.80    9.30
  11  -6  23   10.50    9.10
  -5  11  23  -16.50   11.80
  -5  11  23   -3.30   12.10
  -2  11  23   -2.10   12.90
  11  -9  23   10.70    8.80
  -9  -2  23  -32.20   17.70
  -9  -2  23    2.80   10.10
   0   0 -24   -7.70    9.30
   0   0 -24  -11.00   14.90
   0   0  24    4.00    8.50
   2  -1 -24  -21.20   12.60
  -1  -1 -24   13.40   13.00
  -1   2 -24  -15.00   10.00
   2  -1 -24   16.50   10.10
  -1   2 -24   13.70   11.90
  -2   1  24    3.20   13.40
   1   1  24  -13.10   10.30
   1   1  24    2.50    7.80
   1  -2  24   -5.30   11.40
  -2   1  24   -8.50    8.10
   1  -2  24  -11.30    7.80
  -2   1 -24   20.70   10.30
   1   1 -24    5.90    9.70
   1   1 -24   -3.00   13.90
   1  -2 -24   -8.90   12.70
  -2   1 -24    1.30   14.30
  -1   2  24   -6.20    8.20
   2  -1  24  -13.00    7.40
  -1  -1  24  -13.50    7.80
  -1   2  24  -17.10   11.70
  -2   4 -24  -19.10   11.60
  -2   4 -24  -16.30   12.90
  -2  -2 -24   11.50   10.60
   2   2  24  -15.40    8.90
   2  -4  24   -4.60    8.10
   0   3 -24  -23.40   12.20
   3  -3 -24  -10.80   11.50
  -3   0 -24    5.90   10.00
   0   3 -24  -15.20    9.90
   0  -3  24   -1.10    8.10
   3   0  24  -20.50    9.70
  -3   3  24  -13.50    7.30
   3   0  24  -13.70    8.80
  -3   3  24   24.80   12.30
   0  -3 -24   -7.10   10.70
   3   0 -24   27.60   14.20
   3   0 -24    0.00   10.90
  -3   3 -24   22.40   12.90
   3  -3  24   18.80   11.20
  -3   0  24  -10.30    9.00
   3  -3  24  -16.30    7.50
   0   3  24    2.60   10.30
   0   3  24    2.70    7.90
  -3   6 -24   12.10   11.30
  -3  -3 -24   -8.30   10.90
  -3  -3 -24   -7.90   13.20
   3  -6  24    6.10    8.80
   3   3  24   22.70    9.00
  -6   3  24   15.20    9.10
   3   3  24    9.10    9.60
   5  -4 -24  -23.80   13.30
  -4  -1 -24   -8.60   14.00
  -4  -1 -24   22.00   11.90
  -1   5 -24   -5.60   11.50
  -5   4  24   16.40    8.30
   4   1  24  -13.20    7.90
  -5   4  24   24.00   13.40
   1  -5  24  -13.80    7.50
   2   2 -24   18.40   10.70
  -4   2 -24   -5.70   12.70
   2  -4 -24   17.60   13.10
  -4   2 -24    2.60   10.70
   4  -2  24   16.50    9.80
  -2  -2  24   18.40    8.40
  -2   4  24    2.10    8.10
  -2   4  24   -4.30   11.80
  -2  -2  24   -3.80   18.10
   4  -2  24  -11.70    9.10
   5  -1 -24   15.30   10.60
   5  -1 -24   27.80   14.00
  -1  -4 -24   20.90   13.40
   4  -5  24   18.20    9.00
   4  -5  24   17.60   10.90
   1   4  24    3.90    9.70
  -5   1  24   17.70   21.90
  -4   8 -24    6.10   11.70
  -4   8 -24    4.10   11.70
   8  -4 -24    0.80   12.90
  -4  -4 -24   -8.10    9.90
   4  -8  24   -6.30    8.20
  -8   4  24    4.80   13.00
   4   4  24   12.00    7.80
   4   4  24   -8.00    9.90
   7  -5 -24   13.60   13.90
  -2   7 -24    1.50   10.00
  -2   7 -24  -11.10   11.40
  -5  -2 -24   -1.40   10.60
  -5  -2 -24    4.80   15.70
   2  -7  24   -4.60    7.60
  -7   5  24    3.60    8.60
   5   2  24    8.20   10.50
  -7   5  24   14.60   13.50
  -5   1 -24  -23.10   15.40
  -5   1 -24  -11.30   11.20
   1   4 -24   -1.40   12.90
   5  -1  24   -5.00    8.30
  -1  -4  24  -15.20   18.40
  -4   5  24  -22.60   11.50
   5  -1  24  -16.40    8.00
  -1  -4  24    9.10    9.30
  -4   5  24  -15.30    7.80
   4   1 -24   -0.70    9.50
  -5   4 -24   -6.40   12.90
  -5   4 -24   16.20   11.50
   4   1 -24   -6.20   14.60
   5  -4  24    1.50    7.30
  -1   5  24  -18.10    8.90
  -4  -1  24   16.60   18.80
   5  -4  24    4.10    8.90
  -2  -5 -24    4.20   13.00
   2   5  24   13.00    8.40
  -7   2  24   26.10   18.60
   5  -7  24    8.20   11.90
   5  -7  24   -6.70    8.40
  -7   2  24    4.70    7.70
   2   5  24    1.50    9.90
  -5  -5 -24    6.90   15.70
 -10   5  24   23.20   11.10
   5   5  24   22.70   10.80
   5 -10  24    6.00    9.10
   5   5  24   -6.50   10.10
  -3   9 -24   11.50   11.40
  -6  -3 -24   26.30   12.90
   6   3  24   -1.20   10.80
   3  -9  24    9.10    8.30
  -6   0 -24    6.90   15.90
  -6   0 -24  -10.00   10.60
   0   6 -24   -8.60   11.20
   6  -6 -24   -0.90   12.70
   0  -6  24   19.40   20.00
  -6   6  24   -1.00   12.20
   6   0  24    5.10    9.10
   6   0  24  -11.30    8.10
  -6   6  24    2.60    8.10
  -6   3 -24  -17.70   13.80
   3   3 -24  -11.70   10.10
   3   3 -24    3.60   14.50
  -6   3 -24    9.50   11.00
   3  -6 -24   17.80   12.30
  -3  -3  24   -2.70   19.10
  -3   6  24   22.40   11.60
   6  -3  24   -6.90    7.90
  -3  -3  24    3.00    9.20
  -6   6 -24   15.90   12.40
   6   0 -24   24.30   14.40
   0  -6 -24    6.20   12.20
   6   0 -24    7.20    9.20
   6  -6  24  -10.40    9.80
  -6   0  24  -31.60   19.20
   0   6  24    1.20    9.20
   0   6  24    4.50    9.70
  -6   0  24   18.50    8.40
   6  -6  24   14.80    8.80
  -6   9 -24    8.10   11.50
  -3  -6 -24   -0.90   15.80
   6  -9  24   14.80   12.60
   6  -9  24   10.00    8.20
  -9   3  24    8.80   10.30
   8  -7 -24  -12.30   11.60
  -7  -1 -24    7.50   18.10
  -7  -1 -24    3.00   12.50
  -8   7  24    7.50   10.40
  -8   7  24    9.00   14.30
   7   1  24    7.70   10.80
   1  -8  24   13.10    8.50
   5  -7 -24    5.90   11.30
  -7   2 -24    7.60   14.80
   2   5 -24    9.10   14.30
  -7   2 -24  -19.80   12.40
   2   5 -24    3.10   14.50
  -5   7  24   16.50   11.70
  -5   7  24  -11.20    8.50
  -2  -5  24    7.30    9.50
   7  -2  24    5.50    9.50
   7  -2  24   -3.20    9.20
  -2  -5  24   35.90   20.90
  -7   5 -24   -6.80   10.90
   2  -7 -24    7.30   12.70
   5   2 -24    2.40   14.90
   5   2 -24   10.20   10.00
  -2   7  24   -1.70   11.60
   7  -5  24   10.80    9.90
  -5  -2  24   10.60   18.60
   7  -5  24   23.50    9.00
  -7   8 -24   15.40   14.30
  -1  -7 -24    0.00   16.70
   8  -1 -24    3.00   12.70
   1   7  24   21.60   10.40
  -8   1  24   15.50   17.20
  -8   1  24   25.40   13.20
   1   7  24    0.10   11.40
   7  -8  24   23.60   11.70
   7  -8 -24   -2.30   13.70
  -8   1 -24    5.90   17.50
  -8   1 -24   -5.40   10.00
  -7   8  24  -14.80   15.30
  -7   8  24    9.30   10.70
  -1  -7  24  -25.20   19.10
   4   4 -24   -5.70   14.50
   4   4 -24   16.40   10.40
   4   4 -24   16.40   20.80
  -8   4 -24   17.40   15.80
  -4  -4  24  -32.20   20.40
  -4   8  24    4.00    9.60
  -4  -4  24    6.10    9.60
  -8   7 -24   -4.20   20.80
   1  -8 -24  -14.50   12.30
   8  -7  24  -14.00    8.50
  -7  -1  24  -30.80   17.40
  -1   8  24  -23.70   11.50
   0  -9  24   -7.00    9.80
   0  -9  24  -14.00   21.10
   9   0  24  -10.70    9.10
  -9   3 -24  -18.90   11.30
   6  -9 -24   27.80   13.00
  -9   3 -24    8.40   21.30
  -9   3 -24   11.70   20.00
  -6   9  24   -1.70   12.20
   9  -3  24    5.30    9.00
  -6   9  24   -3.20    9.20
  -3  -6  24  -21.10   20.30
   6   3 -24   24.60   15.80
  -9   6 -24  -20.70   10.40
   3  -9 -24   12.90   12.70
   9  -6  24   -6.40    9.00
  -3   9  24   -1.90   11.00
  -3   9  24   16.60   12.40
  -6  -3  24   18.80   19.70
   0   9  24   29.30   20.10
   9  -9  24    5.60    9.10
  -9   0  24    2.90   11.00
  -9   0  24   -4.70   17.30
  -2  -8  24  -44.60   21.40
 -10   5 -24   17.40   19.80
   5   5 -24   -4.50   14.10
   5 -10 -24  -18.80   13.40
  -5  10  24    0.60   11.00
  -5  -5  24   10.40   29.70
  -5  10  24   14.90   14.90
  10  -5  24   -9.40    9.60
  10  -5  24  -20.00    9.80
  -1   0 -25  -12.60   10.60
  -1   0 -25   14.90   14.70
   1  -1 -25   17.60   11.20
   0   1 -25  -18.60   10.40
  -1   1  25   -3.60   12.20
   0  -1  25   14.80   12.30
   1   0  25   19.60   10.50
   1   0  25   -6.00    8.80
  -2  -1 -25   -6.20   14.50
  -2  -1 -25   22.40   11.80
   2   1  25   21.90   11.60
  -3   2  25   -6.60   12.10
   2   1  25   -2.80    8.40
   1  -3  25  -22.10   13.00
   1  -3  25    7.00    7.70
   2   0 -25   -5.70   10.80
  -2   2 -25  -16.40   12.30
   0  -2 -25   24.90   12.10
  -2   2 -25    5.80   11.20
   2   0 -25   -7.30   14.40
   2  -2  25  -19.40   11.60
   0   2  25   21.20   12.60
   0   2  25   -6.40    8.20
   2  -2  25   10.60    8.80
  -2   0  25    4.40    7.40
  -2   5 -25   -8.20   11.00
  -2   5 -25   11.40   13.60
  -3  -2 -25   15.70   18.10
   5  -3 -25   18.80   13.40
  -5   3  25    3.50    9.20
   3   2  25  -12.70   11.10
   2  -5  25    1.70    8.10
   3   2  25   -5.80    7.60
   1   2 -25  -10.30   11.30
  -3   1 -25    7.40   11.00
   2  -3 -25  -12.50   13.30
   3  -1  25    4.30   10.80
  -2   3  25    2.50    8.30
  -2   3  25    3.70   11.90
  -1  -2  25   -8.40    8.20
  -1  -3 -25   -0.50   10.90
  -3   4 -25   -2.10   14.40
   4  -1 -25   25.80   14.70
  -4   1  25  -13.80    9.50
   1   3  25  -13.00    9.60
   1   3  25    2.20    8.70
  -4  -3 -25    6.20   18.50
   7  -4 -25  -16.30   12.50
  -7   4  25   13.80   12.00
   3  -7  25    1.30    8.90
   4   3  25  -14.10   11.80
   0   4 -25  -17.80   13.00
  -4   0 -25   -4.00   14.60
   0   4 -25   10.20   11.10
  -4   0 -25  -11.90   11.60
   4  -4 -25   10.20   13.60
   4   0  25    3.70   10.50
  -4   4  25  -14.10   13.20
   4   0  25   -7.20    8.50
  -4   3 -25   22.90   11.00
   3   1 -25  -14.00   15.10
   1  -4 -25   -3.70   13.30
   3   1 -25    6.70   11.10
  -3  -1  25   13.40    9.30
  -1   4  25   -7.00    7.70
   4  -3  25    4.60    9.30
  -3  -1  25   -3.90   19.20
  -1   4  25   12.80   11.20
   4  -3  25  -16.10    8.70
  -4   6 -25    3.70   12.60
   6  -2 -25   18.50   14.10
  -2  -4 -25  -25.10   20.40
   4  -6  25    0.00    8.70
   2   4  25    5.40   13.20
  -1   6 -25    4.30   12.50
  -5  -1 -25   20.90   17.20
   5   1  25   11.90   10.30
   2   3 -25  -19.30   13.60
  -5   2 -25    7.40   11.70
   3  -5 -25   19.90   13.30
  -5   2 -25   13.30   15.80
   5  -2  25   -1.50    8.30
  -2  -3  25  -12.00    8.70
  -2  -3  25   -7.40   18.30
   5  -2  25   -8.40   10.20
   5   0 -25   -4.40   10.40
   5   0 -25  -25.70   15.20
  -5   5 -25   22.60   12.70
   5  -5  25  -13.90    8.60
   0   5  25   -9.60    9.70
  -5   0  25  -29.30   19.10
   8  -3 -25   22.50   13.50
   3   5  25    9.00    9.80
   5  -8  25  -10.40   12.50
  -8   3  25   24.60   10.90
   5  -8  25   -1.70    9.00
   3   5  25   12.60   11.20
  -8   6  25   24.20   11.10
   6   2  25   42.70   11.40
  -8   6  25   34.50   18.20
   5  -6 -25  -13.70   19.70
  -6   1 -25    9.30   20.00
   1   5 -25  -10.30   14.00
  -5   6  25   -5.00    9.40
   6  -1  25  -10.30    9.80
  -1  -5  25  -18.40   20.70
  -5   6  25  -14.30   11.90
   2  -6 -25  -12.60   15.10
   4   2 -25   22.20   11.30
  -6   4 -25   -4.90   11.00
  -4  -2  25    0.70   15.40
  -2   6  25    1.60    8.70
  -2   6  25   -8.70   12.00
   6  -4  25   -7.80    7.90
  -1  -6 -25  -19.00   12.70
   7  -1 -25   -6.50   15.70
   6  -7  25    4.00    8.20
  -7   1  25   -4.30   19.10
  -7   1  25   10.70   10.40
   6  -7  25    5.60   11.10
   1   6  25    1.40   11.20
  -7   0 -25    9.70   15.80
   7   0  25    1.10   10.10
  -7   7  25  -12.50   13.40
   0  -7  25  -33.60   20.70
   7   0  25    5.40    9.40
  -7   3 -25    4.30   15.70
   4  -7 -25   30.00   13.60
   3   4 -25   20.30   11.80
  -7   3 -25   44.80   15.10
  -3  -4  25   -2.10   11.10
  -3  -4  25   20.90   21.80
   7  -3  25    1.30   10.10
  -4   7  25   24.20    9.90
  -4   7  25   13.60   13.50
   1  -7 -25   18.00   14.10
  -7   6 -25   18.70   17.30
   6   1 -25   27.70   15.60
  -1   7  25   -0.80   19.10
   7  -6  25    8.60    8.30
  -6  -1  25   -2.60    9.60
   2   6 -25   19.80   14.20
  -8   2 -25   17.80   18.30
  -2  -6  25   41.50   16.20
  -6   8  25   33.50   14.40
  -8   5 -25  -11.60   15.70
   3  -8 -25   20.70   14.10
   5   3 -25    5.10   17.20
  -5  -3  25  -27.80   20.40
  -5  -3  25    9.90   10.30
   1   0 -26   29.00   17.60
   0  -1 -26   26.70   11.40
  -1   0  26   28.20   13.70
   1  -1  26    3.50   11.80
   1  -1  26  -14.20   11.40
   2  -2 -26   -2.20   11.70
   0   2 -26   -9.80   11.60
  -2   0 -26    4.20   12.40
  -2   0 -26    1.10   18.20
   0  -2  26    3.30   13.50
   2   0  26   21.40   10.30
   0  -2  26  -16.10   13.00
  -1  -2 -26   -2.10   16.60
  -2   3 -26   -2.70   22.50
  -2   3 -26   23.50   11.60
  -3   1  26   -0.60   16.00
  -3   1  26   10.10   14.10
   2  -3  26   -2.60   11.20
   2  -3  26    5.50    9.10
   4  -3 -26   -8.80   29.00
  -1   4 -26   -7.10   11.90
  -3  -1 -26  -18.90   16.10
  -3  -1 -26   14.90   12.20
   1  -4  26   20.90   11.50
   3   1  26  -15.00    9.50
   3   1  26  -13.50   12.70
   2   1 -26  -14.80   11.80
   2   1 -26   13.10   17.00
   1  -3 -26    4.10   16.10
  -3   2 -26   -7.40   15.40
  -1   3  26  -20.40   11.90
   3  -2  26   21.00   10.00
   5  -2 -26  -28.20   21.30
  -3   5 -26   -3.60   12.80
  -3   5 -26  -23.50   15.30
  -2  -3 -26    1.00   12.00
  -2  -3 -26  -23.20   14.30
  -5   2  26    4.00   10.20
   2   3  26  -12.50    8.90
   3  -5  26    9.40   13.60
   3  -5  26   -6.70    9.70
  -6   4  26   12.90   10.40
   4   2  26   22.80   11.70
  -6   4  26   14.40   15.20
   4   2  26   12.40   10.10
   3  -4 -26    0.00   15.20
   1   3 -26   30.50   12.80
  -4   1 -26   41.50   16.80
  -3   4  26    9.40   10.40
   4  -1  26  -19.40   12.40
   4  -1  26   22.80   10.30
   0  -4 -26    7.60   15.00
   4   0 -26  -20.80   18.60
  -4   4 -26    7.20   15.10
  -4   4 -26  -14.20   11.60
   4   0 -26   -2.70   11.80
  -4   0  26    8.10   10.70
   0   4  26   16.70   11.20
   4  -4  26    9.90   16.90
   4  -4  26    9.80   11.20
  -5   0 -26   -5.80   16.40
   0   5 -26  -19.50   14.50
   5  -5 -26    3.40   12.80
   5   0  26   11.10   10.40
   3   2 -26  -16.40   12.50
  -5   3 -26   13.30   15.00
  -5   3 -26   11.20   14.70
   5  -3  26    3.80   11.10
  -2   5  26    6.80   10.70
  -3  -2  26   11.30   19.70
   1   5  26  -19.80   10.60
   4  -6 -26   -7.00   13.30
  -6   2 -26   18.10   17.70
  -2  -4  26  -13.30    9.00
   6  -2  26   -3.60    9.10
  -2  -4  26   14.20   20.80
  -4   6  26    8.90   12.70
  -4   6  26  -13.20    9.50
   6  -2  26   -3.10   10.30
  -5  -1  26   -3.30   20.70
  -5  -1  26    4.70   10.90
   6  -5  26  -16.60   11.10
  -1   6  26  -12.00   10.30
   0   0 -27   11.50   17.00
   0   0  27   -8.90   10.00
   2  -1 -27   -4.40   15.20
  -1  -1 -27   27.80   16.30
  -1   2 -27   -4.60   16.70
   1   1  27   14.30   11.30
  -2   1  27    9.50    9.40
  -2   1  27   -2.50   12.50
   1  -2  27   40.40   22.00
   1   1  27   13.80   10.70
  -2   1 -27   23.70   16.50
   1  -2 -27   18.50   16.20
   1   1 -27    7.70   15.90
  -1  -1  27   12.50   14.00
  -1   2  27    8.80   10.90
   2  -1  27   24.10   10.40
  -1   2  27    0.80   10.00
  -1  -1  27   12.80    9.40
   0  -3  27   26.60    9.60
  -3   3  27   16.90    8.30
   3   0  27   12.50    9.90
   0   3  27   13.20    8.90
   3  -3  27   12.40   10.50
   0   0   0    0.00    0.00

_computing_structure_solution     'SHELXT 2014/5 (Sheldrick, 2014)'
;
_shelx_hkl_checksum              20845
_shelx_fab_file
;
   -1    2    0   -167.60      0.00
    0    3    0     18.87      0.00
   -2    4    0    148.79      0.00
   -4    5    0    -29.16      0.00
   -1    5    0    -31.99      0.00
    0    6    0     -5.39      0.00
   -5    7    0     18.33      0.00
   -2    7    0     36.70      0.00
   -7    8    0      6.25      0.00
   -4    8    0     23.75      0.00
   -1    8    0     -7.38      0.00
   -6    9    0     -4.66      0.00
   -3    9    0      1.41      0.00
    0    9    0      8.25      0.00
   -8   10    0      3.05      0.00
   -5   10    0     -5.46      0.00
   -2   10    0     -2.01      0.00
  -10   11    0      0.68      0.00
   -7   11    0      3.23      0.00
   -4   11    0     -1.64      0.00
   -1   11    0      4.30      0.00
   -9   12    0      2.67      0.00
   -6   12    0      7.19      0.00
   -3   12    0     -0.02      0.00
    0   12    0     -6.42      0.00
  -11   13    0      1.24      0.00
   -8   13    0     -5.82      0.00
   -5   13    0      2.50      0.00
   -2   13    0      2.97      0.00
  -13   14    0      3.90      0.00
  -10   14    0      0.12      0.00
   -7   14    0      0.55      0.00
   -4   14    0     -0.26      0.00
   -1   14    0      3.66      0.00
  -12   15    0     -2.88      0.00
   -9   15    0      4.17      0.00
   -6   15    0     -4.30      0.00
   -3   15    0     -4.89      0.00
    0   15    0     -1.08      0.00
  -14   16    0      1.67      0.00
  -11   16    0      2.07      0.00
   -8   16    0     -3.03      0.00
   -5   16    0      3.91      0.00
   -2   16    0     -7.32      0.00
  -16   17    0      3.89      0.00
  -13   17    0     -0.27      0.00
  -10   17    0     -0.55      0.00
   -7   17    0      3.84      0.00
   -4   17    0      0.75      0.00
   -1   17    0      1.48      0.00
  -15   18    0      5.60      0.00
  -12   18    0     -0.37      0.00
   -9   18    0      2.52      0.00
   -6   18    0     -2.26      0.00
   -3   18    0      3.26      0.00
    0   18    0     -1.66      0.00
  -17   19    0      4.84      0.00
  -14   19    0     -1.91      0.00
  -11   19    0      3.42      0.00
   -8   19    0      7.82      0.00
   -5   19    0      0.49      0.00
   -2   19    0      6.77      0.00
  -16   20    0      3.43      0.00
  -13   20    0     -5.62      0.00
  -10   20    0      7.18      0.00
   -7   20    0     -1.96      0.00
   -4   20    0     -0.43      0.00
  -15   21    0     -3.63      0.00
  -12   21    0      3.79      0.00
   -9   21    0      3.90      0.00
   -6   21    0     -5.18      0.00
  -11   22    0      8.60      0.00
   -3    2    1    -66.26      0.00
    0    2    1    186.82      0.00
   -5    3    1     -7.40      0.00
   -2    3    1     47.49      0.00
    1    3    1     24.29      0.00
   -7    4    1     -9.88      0.00
   -4    4    1      8.56      0.00
   -1    4    1   -125.26      0.00
    2    4    1     18.63      0.00
   -9    5    1      3.00      0.00
   -6    5    1    -17.14      0.00
   -3    5    1     -5.45      0.00
    0    5    1     13.31      0.00
    3    5    1     -8.77      0.00
  -11    6    1      1.95      0.00
   -8    6    1     -1.43      0.00
   -5    6    1      5.55      0.00
   -2    6    1     65.51      0.00
    1    6    1      3.73      0.00
    4    6    1     -6.02      0.00
  -13    7    1      1.24      0.00
  -10    7    1     -0.93      0.00
   -7    7    1      5.69      0.00
   -4    7    1    -29.67      0.00
   -1    7    1     -5.11      0.00
    2    7    1     -2.40      0.00
    5    7    1     -1.76      0.00
  -15    8    1      1.92      0.00
  -12    8    1     -6.02      0.00
   -9    8    1      3.21      0.00
   -6    8    1      6.56      0.00
   -3    8    1    -23.31      0.00
    0    8    1     -7.35      0.00
    3    8    1      1.80      0.00
    6    8    1     -5.05      0.00
  -17    9    1     -5.74      0.00
  -14    9    1      1.27      0.00
  -11    9    1      1.59      0.00
   -8    9    1    -15.46      0.00
   -5    9    1     -7.91      0.00
   -2    9    1     -9.23      0.00
    1    9    1    -10.52      0.00
    4    9    1      1.05      0.00
    7    9    1      5.42      0.00
  -19   10    1     -9.32      0.00
  -16   10    1     -1.10      0.00
  -13   10    1     -3.78      0.00
  -10   10    1     -1.62      0.00
   -7   10    1     15.93      0.00
   -4   10    1     12.08      0.00
   -1   10    1      5.33      0.00
    2   10    1      3.48      0.00
    5   10    1     -4.44      0.00
    8   10    1      5.05      0.00
  -21   11    1     -3.72      0.00
  -18   11    1     -3.41      0.00
  -15   11    1      3.98      0.00
  -12   11    1     -1.78      0.00
   -9   11    1     -7.67      0.00
   -6   11    1     -9.96      0.00
   -3   11    1      2.39      0.00
    0   11    1     -2.93      0.00
    3   11    1      1.68      0.00
    6   11    1     -1.88      0.00
    9   11    1     -3.25      0.00
  -20   12    1     -5.53      0.00
  -17   12    1     -3.32      0.00
  -14   12    1      4.07      0.00
  -11   12    1      4.83      0.00
   -8   12    1     -3.71      0.00
   -5   12    1     -7.03      0.00
   -2   12    1      0.62      0.00
    1   12    1     -1.65      0.00
    4   12    1      1.13      0.00
    7   12    1     -6.75      0.00
   10   12    1     -1.21      0.00
  -19   13    1      0.00      0.00
  -16   13    1      3.35      0.00
  -13   13    1      1.24      0.00
  -10   13    1      4.92      0.00
   -7   13    1      4.94      0.00
   -4   13    1     -8.13      0.00
   -1   13    1      5.42      0.00
    2   13    1     -1.85      0.00
    5   13    1      4.84      0.00
    8   13    1      1.12      0.00
  -21   14    1      0.95      0.00
  -18   14    1      5.30      0.00
  -15   14    1      2.42      0.00
  -12   14    1     -6.96      0.00
   -9   14    1     -3.56      0.00
   -6   14    1      5.02      0.00
   -3   14    1     -5.43      0.00
    0   14    1     -5.30      0.00
    3   14    1     -0.45      0.00
    6   14    1      8.91      0.00
  -20   15    1      2.89      0.00
  -17   15    1     -1.02      0.00
  -14   15    1     -0.12      0.00
  -11   15    1      4.69      0.00
   -8   15    1     -1.73      0.00
   -5   15    1      6.16      0.00
   -2   15    1      0.37      0.00
    1   15    1     -0.20      0.00
    4   15    1     -2.91      0.00
  -19   16    1     -9.72      0.00
  -16   16    1      1.29      0.00
  -13   16    1      3.39      0.00
  -10   16    1     -3.51      0.00
   -7   16    1     -1.60      0.00
   -4   16    1     -3.23      0.00
   -1   16    1     -2.85      0.00
    2   16    1     -5.17      0.00
    5   16    1     -3.10      0.00
  -18   17    1      0.42      0.00
  -15   17    1     -6.83      0.00
  -12   17    1      1.91      0.00
   -9   17    1      0.18      0.00
   -6   17    1     -0.17      0.00
   -3   17    1      5.07      0.00
    0   17    1      5.41      0.00
    3   17    1      2.42      0.00
  -20   18    1      3.63      0.00
  -17   18    1     -4.65      0.00
  -14   18    1     -9.77      0.00
  -11   18    1     -0.90      0.00
   -8   18    1     -5.78      0.00
   -5   18    1     -2.01      0.00
   -2   18    1     -3.70      0.00
    1   18    1     -2.68      0.00
  -19   19    1     -3.58      0.00
  -16   19    1      0.88      0.00
  -13   19    1     -2.29      0.00
  -10   19    1      5.39      0.00
   -7   19    1      2.69      0.00
   -4   19    1     -4.04      0.00
   -1   19    1      2.48      0.00
  -18   20    1     -5.74      0.00
  -15   20    1     -0.34      0.00
  -12   20    1     -4.85      0.00
   -9   20    1     -6.46      0.00
   -6   20    1     -0.54      0.00
   -3   20    1     -5.39      0.00
  -14   21    1     15.76      0.00
  -11   21    1    -10.39      0.00
   -8   21    1      2.70      0.00
   -5   21    1      8.71      0.00
  -10   22    1     -3.98      0.00
   -2    2    2    -95.56      0.00
    1    2    2      2.04      0.00
   -4    3    2      4.59      0.00
   -1    3    2    -27.69      0.00
    2    3    2    -18.19      0.00
   -6    4    2     24.41      0.00
   -3    4    2    109.79      0.00
    0    4    2     -9.35      0.00
    3    4    2    -10.79      0.00
   -8    5    2      5.63      0.00
   -5    5    2     -5.04      0.00
   -2    5    2    -30.68      0.00
    1    5    2     11.15      0.00
    4    5    2     -9.70      0.00
  -10    6    2      0.85      0.00
   -7    6    2      2.24      0.00
   -4    6    2    -11.81      0.00
   -1    6    2     -2.38      0.00
    2    6    2      1.61      0.00
    5    6    2     14.57      0.00
  -12    7    2     -2.49      0.00
   -9    7    2     -5.23      0.00
   -6    7    2    -18.41      0.00
   -3    7    2     -9.19      0.00
    0    7    2    -31.31      0.00
    3    7    2      6.72      0.00
    6    7    2      1.64      0.00
  -14    8    2     -3.53      0.00
  -11    8    2     -2.04      0.00
   -8    8    2      6.27      0.00
   -5    8    2     35.41      0.00
   -2    8    2     32.21      0.00
    1    8    2     20.51      0.00
    4    8    2    -11.43      0.00
    7    8    2     -0.86      0.00
  -16    9    2      1.63      0.00
  -13    9    2      6.03      0.00
  -10    9    2     -0.31      0.00
   -7    9    2     -4.74      0.00
   -4    9    2     -7.41      0.00
   -1    9    2     -1.76      0.00
    2    9    2     -3.36      0.00
    5    9    2      6.95      0.00
    8    9    2     -3.94      0.00
  -18   10    2     11.38      0.00
  -15   10    2      2.17      0.00
  -12   10    2      3.12      0.00
   -9   10    2      2.20      0.00
   -6   10    2    -11.44      0.00
   -3   10    2     -0.85      0.00
    0   10    2      1.25      0.00
    3   10    2      3.49      0.00
    6   10    2     -4.64      0.00
    9   10    2     -5.24      0.00
  -20   11    2      8.82      0.00
  -17   11    2     -2.21      0.00
  -14   11    2     -6.83      0.00
  -11   11    2     -0.31      0.00
   -8   11    2      2.95      0.00
   -5   11    2      9.84      0.00
   -2   11    2     -4.84      0.00
    1   11    2     -0.22      0.00
    4   11    2      0.00      0.00
    7   11    2      9.23      0.00
   10   11    2     -6.19      0.00
  -19   12    2      3.44      0.00
  -16   12    2     -0.03      0.00
  -13   12    2      0.33      0.00
  -10   12    2      1.33      0.00
   -7   12    2      2.41      0.00
   -4   12    2      3.54      0.00
   -1   12    2     -2.48      0.00
    2   12    2     -4.02      0.00
    5   12    2      0.12      0.00
    8   12    2     -0.79      0.00
  -21   13    2      0.30      0.00
  -18   13    2      3.13      0.00
  -15   13    2     -3.20      0.00
  -12   13    2     -4.43      0.00
   -9   13    2     -2.73      0.00
   -6   13    2      3.21      0.00
   -3   13    2      5.73      0.00
    0   13    2     -3.04      0.00
    3   13    2      3.91      0.00
    6   13    2     -2.32      0.00
  -20   14    2     -3.00      0.00
  -17   14    2     -1.51      0.00
  -14   14    2     -0.35      0.00
  -11   14    2     -4.40      0.00
   -8   14    2     -2.92      0.00
   -5   14    2     -6.91      0.00
   -2   14    2      6.95      0.00
    1   14    2      4.19      0.00
    4   14    2     -7.35      0.00
    7   14    2      1.45      0.00
  -19   15    2     -2.63      0.00
  -16   15    2     -3.33      0.00
  -13   15    2      3.73      0.00
  -10   15    2      4.41      0.00
   -7   15    2      0.40      0.00
   -4   15    2     -2.49      0.00
   -1   15    2      6.97      0.00
    2   15    2     -4.08      0.00
    5   15    2      1.18      0.00
  -21   16    2     -2.87      0.00
  -18   16    2      5.75      0.00
  -15   16    2     -0.69      0.00
  -12   16    2     -2.10      0.00
   -9   16    2     -2.03      0.00
   -6   16    2      2.79      0.00
   -3   16    2     -0.52      0.00
    0   16    2      4.22      0.00
    3   16    2      9.93      0.00
  -20   17    2     -4.41      0.00
  -17   17    2      0.97      0.00
  -14   17    2      3.58      0.00
  -11   17    2     -0.41      0.00
   -8   17    2      6.69      0.00
   -5   17    2      4.62      0.00
   -2   17    2     -7.19      0.00
    1   17    2      1.50      0.00
  -19   18    2      0.61      0.00
  -16   18    2      7.29      0.00
  -13   18    2      4.41      0.00
  -10   18    2     -3.15      0.00
   -7   18    2     -9.11      0.00
   -4   18    2      7.28      0.00
   -1   18    2     -3.74      0.00
    2   18    2    -13.99      0.00
  -18   19    2      4.85      0.00
  -15   19    2     -3.32      0.00
  -12   19    2     10.76      0.00
   -9   19    2     -2.96      0.00
   -6   19    2      1.42      0.00
   -3   19    2      2.78      0.00
    0   19    2     -2.39      0.00
  -17   20    2      0.68      0.00
  -14   20    2     -6.69      0.00
  -11   20    2     -6.32      0.00
   -8   20    2      0.96      0.00
   -5   20    2     -3.88      0.00
   -2   20    2      0.18      0.00
  -16   21    2     18.24      0.00
  -13   21    2     -6.17      0.00
  -10   21    2      9.91      0.00
   -7   21    2     -6.30      0.00
    0    0    3     43.11      0.00
    1    1    3    -83.27      0.00
   -1    2    3     77.62      0.00
    2    2    3     -6.55      0.00
   -3    3    3     61.74      0.00
    0    3    3     53.34      0.00
    3    3    3    -36.35      0.00
   -5    4    3      8.80      0.00
   -2    4    3    -81.98      0.00
    1    4    3     40.31      0.00
    4    4    3      9.73      0.00
   -7    5    3     19.77      0.00
   -4    5    3    -56.44      0.00
   -1    5    3    -23.62      0.00
    2    5    3     -5.21      0.00
    5    5    3     -9.22      0.00
   -9    6    3    -11.87      0.00
   -6    6    3    -15.66      0.00
   -3    6    3     79.83      0.00
    0    6    3     -2.38      0.00
    3    6    3     14.73      0.00
    6    6    3     -0.41      0.00
  -11    7    3     13.77      0.00
   -8    7    3      4.87      0.00
   -5    7    3      7.42      0.00
   -2    7    3      2.74      0.00
    1    7    3      8.68      0.00
    4    7    3    -13.84      0.00
    7    7    3     -1.36      0.00
  -13    8    3     -3.32      0.00
  -10    8    3     -0.83      0.00
   -7    8    3      3.10      0.00
   -4    8    3    -32.91      0.00
   -1    8    3     10.43      0.00
    2    8    3    -11.14      0.00
    5    8    3      4.53      0.00
    8    8    3      0.18      0.00
  -15    9    3      1.50      0.00
  -12    9    3     -4.07      0.00
   -9    9    3      1.79      0.00
   -6    9    3      4.03      0.00
   -3    9    3     -8.91      0.00
    0    9    3     -9.23      0.00
    3    9    3     11.62      0.00
    6    9    3     -1.82      0.00
    9    9    3      2.29      0.00
  -17   10    3     -0.50      0.00
  -14   10    3     -2.46      0.00
  -11   10    3     -0.19      0.00
   -8   10    3     -0.38      0.00
   -5   10    3      5.78      0.00
   -2   10    3      5.68      0.00
    1   10    3      3.70      0.00
    4   10    3     -6.62      0.00
    7   10    3      2.29      0.00
   10   10    3     10.98      0.00
  -19   11    3    -13.25      0.00
  -16   11    3      0.55      0.00
  -13   11    3      4.14      0.00
  -10   11    3     -3.57      0.00
   -7   11    3      7.41      0.00
   -4   11    3     -2.06      0.00
   -1   11    3      2.43      0.00
    2   11    3     -0.06      0.00
    5   11    3      4.65      0.00
    8   11    3      0.40      0.00
  -21   12    3     -7.81      0.00
  -18   12    3     -4.46      0.00
  -15   12    3      3.06      0.00
  -12   12    3      0.95      0.00
   -9   12    3     -4.88      0.00
   -6   12    3     -8.25      0.00
   -3   12    3     -2.31      0.00
    0   12    3     -1.93      0.00
    3   12    3      2.06      0.00
    6   12    3    -12.74      0.00
    9   12    3     -0.38      0.00
  -20   13    3      5.67      0.00
  -17   13    3     -3.02      0.00
  -14   13    3      0.64      0.00
  -11   13    3      9.08      0.00
   -8   13    3      4.04      0.00
   -5   13    3     -1.46      0.00
   -2   13    3      0.42      0.00
    1   13    3      2.33      0.00
    4   13    3     -0.50      0.00
    7   13    3      2.40      0.00
  -19   14    3      7.61      0.00
  -16   14    3     -1.97      0.00
  -13   14    3     -3.83      0.00
  -10   14    3      2.36      0.00
   -7   14    3     -1.90      0.00
   -4   14    3      2.55      0.00
   -1   14    3      2.01      0.00
    2   14    3     -2.80      0.00
    5   14    3      7.59      0.00
  -21   15    3     -0.35      0.00
  -18   15    3      3.99      0.00
  -15   15    3     -0.04      0.00
  -12   15    3     -1.09      0.00
   -9   15    3     -1.49      0.00
   -6   15    3      7.24      0.00
   -3   15    3     -7.10      0.00
    0   15    3    -14.62      0.00
    3   15    3      1.09      0.00
    6   15    3     -6.17      0.00
  -20   16    3     -2.83      0.00
  -17   16    3      0.61      0.00
  -14   16    3      5.73      0.00
  -11   16    3     -2.42      0.00
   -8   16    3      1.74      0.00
   -5   16    3     -1.87      0.00
   -2   16    3      2.89      0.00
    1   16    3      5.39      0.00
    4   16    3     -7.73      0.00
  -19   17    3      4.71      0.00
  -16   17    3     -3.70      0.00
  -13   17    3     -0.86      0.00
  -10   17    3      3.15      0.00
   -7   17    3     -2.31      0.00
   -4   17    3     -4.54      0.00
   -1   17    3      4.07      0.00
    2   17    3     -4.43      0.00
  -18   18    3     -1.02      0.00
  -15   18    3     -4.72      0.00
  -12   18    3     -6.10      0.00
   -9   18    3     -5.25      0.00
   -6   18    3      4.09      0.00
   -3   18    3      0.95      0.00
    0   18    3      5.45      0.00
  -17   19    3     -3.15      0.00
  -14   19    3      1.29      0.00
  -11   19    3      7.52      0.00
   -8   19    3      8.91      0.00
   -5   19    3     -3.73      0.00
   -2   19    3     -5.52      0.00
  -16   20    3      0.70      0.00
  -13   20    3      1.46      0.00
  -10   20    3      4.59      0.00
   -7   20    3      1.62      0.00
   -4   20    3      5.87      0.00
  -15   21    3     -9.72      0.00
  -12   21    3      3.67      0.00
   -9   21    3     -3.19      0.00
   -6   21    3      7.25      0.00
   -1    1    4    -96.32      0.00
   -3    2    4    -80.31      0.00
    0    2    4     63.52      0.00
   -5    3    4     68.87      0.00
   -2    3    4     19.17      0.00
    1    3    4    -39.92      0.00
   -7    4    4     -0.82      0.00
   -4    4    4    -31.01      0.00
   -1    4    4    -26.97      0.00
    2    4    4    -15.86      0.00
   -9    5    4     16.96      0.00
   -6    5    4    -12.53      0.00
   -3    5    4     31.40      0.00
    0    5    4     32.48      0.00
    3    5    4    -22.58      0.00
  -11    6    4     -4.25      0.00
   -8    6    4    -18.41      0.00
   -5    6    4     10.21      0.00
    1    6    4     15.35      0.00
    4    6    4      4.94      0.00
  -13    7    4      7.69      0.00
  -10    7    4      1.09      0.00
   -7    7    4     12.61      0.00
   -4    7    4    -12.65      0.00
   -1    7    4    -19.35      0.00
    2    7    4     -1.95      0.00
    5    7    4     -3.40      0.00
  -15    8    4     -4.17      0.00
  -12    8    4    -12.17      0.00
   -9    8    4     -2.78      0.00
   -6    8    4     -4.86      0.00
   -3    8    4     27.49      0.00
    0    8    4    -15.64      0.00
    3    8    4      5.08      0.00
    6    8    4      6.99      0.00
  -17    9    4     -1.50      0.00
  -14    9    4      0.74      0.00
  -11    9    4      9.29      0.00
   -8    9    4      1.28      0.00
   -5    9    4      0.44      0.00
   -2    9    4      2.06      0.00
    1    9    4      3.96      0.00
    4    9    4     -8.29      0.00
    7    9    4     -3.69      0.00
  -19   10    4      5.00      0.00
  -16   10    4      1.97      0.00
  -13   10    4     -0.07      0.00
  -10   10    4     -5.69      0.00
   -7   10    4     -5.60      0.00
   -4   10    4     -5.73      0.00
   -1   10    4      2.17      0.00
    2   10    4     -1.07      0.00
    5   10    4      2.66      0.00
    8   10    4      0.83      0.00
  -21   11    4    -10.42      0.00
  -18   11    4      1.58      0.00
  -15   11    4      2.80      0.00
  -12   11    4     -3.12      0.00
   -9   11    4      3.05      0.00
   -6   11    4     -4.24      0.00
   -3   11    4     -3.54      0.00
    0   11    4     -4.91      0.00
    3   11    4      0.64      0.00
    6   11    4     -2.53      0.00
    9   11    4     -4.32      0.00
  -20   12    4      5.25      0.00
  -17   12    4     -0.23      0.00
  -14   12    4     -0.42      0.00
  -11   12    4      0.60      0.00
   -8   12    4      2.56      0.00
   -5   12    4      2.49      0.00
   -2   12    4      0.21      0.00
    1   12    4     -1.54      0.00
    4   12    4     -2.88      0.00
    7   12    4     -0.17      0.00
  -19   13    4     -3.69      0.00
  -16   13    4      2.67      0.00
  -13   13    4      3.27      0.00
  -10   13    4     -2.47      0.00
   -7   13    4      0.33      0.00
   -4   13    4     -0.10      0.00
   -1   13    4      3.65      0.00
    2   13    4      1.66      0.00
    5   13    4      9.99      0.00
    8   13    4      0.42      0.00
  -21   14    4    -11.57      0.00
  -18   14    4     -6.45      0.00
  -15   14    4      2.37      0.00
  -12   14    4     -6.82      0.00
   -9   14    4     -6.28      0.00
   -6   14    4      3.27      0.00
   -3   14    4     -3.05      0.00
    0   14    4      0.12      0.00
    3   14    4      2.75      0.00
    6   14    4     -0.23      0.00
  -20   15    4      2.47      0.00
  -17   15    4     -2.57      0.00
  -14   15    4      1.41      0.00
  -11   15    4      6.34      0.00
   -8   15    4     -0.83      0.00
   -5   15    4     -6.39      0.00
   -2   15    4      3.55      0.00
    1   15    4      2.71      0.00
    4   15    4     -1.80      0.00
  -19   16    4     -6.91      0.00
  -16   16    4     -1.35      0.00
  -13   16    4      2.78      0.00
  -10   16    4      2.76      0.00
   -7   16    4     -1.45      0.00
   -4   16    4     -0.43      0.00
   -1   16    4      4.52      0.00
    2   16    4      2.69      0.00
  -18   17    4      7.16      0.00
  -15   17    4     -0.39      0.00
  -12   17    4     -0.89      0.00
   -9   17    4      0.38      0.00
   -6   17    4      0.70      0.00
   -3   17    4     -0.69      0.00
    0   17    4     -5.34      0.00
    3   17    4      4.94      0.00
  -17   18    4     -2.77      0.00
  -14   18    4     -2.78      0.00
  -11   18    4     -5.06      0.00
   -8   18    4     -4.19      0.00
   -5   18    4      3.20      0.00
   -2   18    4     -4.17      0.00
    1   18    4     -8.51      0.00
  -19   19    4      4.26      0.00
  -16   19    4      1.10      0.00
  -13   19    4      3.40      0.00
  -10   19    4     -3.06      0.00
   -7   19    4     -5.59      0.00
   -4   19    4     -3.01      0.00
   -1   19    4      0.35      0.00
  -15   20    4      5.35      0.00
  -12   20    4     -4.52      0.00
   -9   20    4     -3.72      0.00
   -6   20    4     -7.63      0.00
   -3   20    4      5.41      0.00
  -14   21    4     -2.00      0.00
  -11   21    4     -2.23      0.00
   -8   21    4      3.82      0.00
    0    1    5     61.48      0.00
   -2    2    5     23.43      0.00
    1    2    5     16.39      0.00
   -4    3    5     82.66      0.00
   -1    3    5      0.87      0.00
    2    3    5    -32.36      0.00
   -6    4    5    -27.47      0.00
   -3    4    5    -34.50      0.00
    0    4    5      5.77      0.00
    3    4    5      1.31      0.00
   -8    5    5     13.36      0.00
   -5    5    5      6.19      0.00
   -2    5    5     29.70      0.00
    1    5    5      7.14      0.00
    4    5    5      3.94      0.00
  -10    6    5    -12.20      0.00
   -7    6    5     12.08      0.00
   -4    6    5      2.08      0.00
   -1    6    5    -14.58      0.00
    2    6    5      7.63      0.00
    5    6    5      3.01      0.00
  -12    7    5      8.31      0.00
   -9    7    5      2.49      0.00
   -6    7    5     -3.69      0.00
   -3    7    5      6.33      0.00
    0    7    5     -0.55      0.00
    3    7    5    -10.00      0.00
    6    7    5     -4.26      0.00
  -14    8    5     -1.84      0.00
  -11    8    5      3.09      0.00
   -8    8    5     -5.71      0.00
   -5    8    5      3.37      0.00
   -2    8    5     12.14      0.00
    1    8    5     12.62      0.00
    4    8    5      5.30      0.00
    7    8    5      3.35      0.00
  -16    9    5      0.92      0.00
  -13    9    5      7.55      0.00
  -10    9    5      2.89      0.00
   -7    9    5     -4.07      0.00
   -4    9    5    -16.20      0.00
   -1    9    5     -9.28      0.00
    2    9    5      0.05      0.00
    5    9    5     -4.58      0.00
    8    9    5      3.05      0.00
  -18   10    5     -2.46      0.00
  -15   10    5     -6.65      0.00
  -12   10    5     -4.70      0.00
   -9   10    5      2.04      0.00
   -6   10    5      8.99      0.00
   -3   10    5     10.87      0.00
    0   10    5      1.17      0.00
    3   10    5      3.59      0.00
    6   10    5      2.50      0.00
    9   10    5     -6.77      0.00
  -20   11    5     -2.02      0.00
  -17   11    5     -2.47      0.00
  -14   11    5     -3.63      0.00
  -11   11    5      1.45      0.00
   -8   11    5      3.95      0.00
   -5   11    5      4.03      0.00
   -2   11    5      6.59      0.00
    1   11    5     -1.53      0.00
    4   11    5     -0.50      0.00
    7   11    5      1.65      0.00
   10   11    5      8.11      0.00
  -19   12    5      3.25      0.00
  -16   12    5      2.58      0.00
  -13   12    5      2.76      0.00
  -10   12    5     -4.18      0.00
   -7   12    5      0.26      0.00
   -4   12    5     -0.32      0.00
   -1   12    5     -5.69      0.00
    2   12    5      5.12      0.00
    5   12    5     -0.97      0.00
    8   12    5      1.28      0.00
  -21   13    5      3.98      0.00
  -18   13    5      7.64      0.00
  -15   13    5     -1.98      0.00
  -12   13    5      0.95      0.00
   -9   13    5     -2.96      0.00
   -6   13    5      0.57      0.00
   -3   13    5      5.70      0.00
    0   13    5     -2.07      0.00
    3   13    5     -1.68      0.00
    6   13    5     -2.51      0.00
  -20   14    5     11.00      0.00
  -17   14    5     -1.04      0.00
  -14   14    5     -6.50      0.00
  -11   14    5      3.09      0.00
   -8   14    5      2.83      0.00
   -5   14    5     -3.67      0.00
   -2   14    5      0.79      0.00
    1   14    5     -2.90      0.00
    4   14    5     -4.69      0.00
    7   14    5      2.42      0.00
  -19   15    5      4.67      0.00
  -16   15    5      0.24      0.00
  -13   15    5     -0.90      0.00
  -10   15    5     -0.45      0.00
   -7   15    5     -1.27      0.00
   -4   15    5      4.42      0.00
   -1   15    5      2.83      0.00
    2   15    5     -4.61      0.00
    5   15    5      1.10      0.00
  -18   16    5     -3.64      0.00
  -15   16    5      3.36      0.00
  -12   16    5     -6.05      0.00
   -9   16    5      2.13      0.00
   -6   16    5      6.12      0.00
   -3   16    5      1.87      0.00
    0   16    5     -5.02      0.00
    3   16    5     -1.49      0.00
  -20   17    5     10.47      0.00
  -17   17    5      3.13      0.00
  -14   17    5      1.19      0.00
  -11   17    5     -4.12      0.00
   -8   17    5     -1.37      0.00
   -5   17    5     -0.99      0.00
   -2   17    5      0.13      0.00
    1   17    5      7.20      0.00
  -19   18    5      1.97      0.00
  -16   18    5     -9.21      0.00
  -13   18    5      4.76      0.00
  -10   18    5      2.99      0.00
   -7   18    5      6.40      0.00
   -4   18    5      1.03      0.00
   -1   18    5      2.74      0.00
  -18   19    5      4.67      0.00
  -15   19    5      1.02      0.00
  -12   19    5      5.34      0.00
   -9   19    5      5.70      0.00
   -6   19    5      4.79      0.00
   -3   19    5     -1.83      0.00
  -17   20    5      8.38      0.00
  -14   20    5     -1.31      0.00
  -11   20    5      2.71      0.00
   -8   20    5     -5.17      0.00
   -5   20    5     10.71      0.00
  -13   21    5     -1.82      0.00
  -10   21    5      3.67      0.00
   -7   21    5     -0.48      0.00
    0    0    6    -67.75      0.00
    1    1    6    -28.51      0.00
   -1    2    6     -0.40      0.00
    2    2    6    -43.22      0.00
   -3    3    6    -14.74      0.00
    0    3    6     14.65      0.00
    3    3    6     42.67      0.00
   -5    4    6    -22.88      0.00
   -2    4    6    -20.27      0.00
    1    4    6     -9.45      0.00
    4    4    6     -1.28      0.00
   -7    5    6     -6.51      0.00
   -4    5    6     12.59      0.00
   -1    5    6    -19.18      0.00
    2    5    6    -20.93      0.00
    5    5    6      9.46      0.00
   -9    6    6     -8.35      0.00
   -6    6    6    -13.11      0.00
   -3    6    6     -3.78      0.00
    0    6    6     33.24      0.00
    3    6    6     -9.07      0.00
    6    6    6     -8.31      0.00
  -11    7    6     -1.48      0.00
   -8    7    6      5.98      0.00
   -5    7    6     -2.22      0.00
   -2    7    6     -3.95      0.00
    1    7    6      4.70      0.00
    4    7    6     -0.10      0.00
    7    7    6      5.61      0.00
  -13    8    6     -7.30      0.00
  -10    8    6      1.42      0.00
   -7    8    6      3.87      0.00
   -4    8    6      7.03      0.00
   -1    8    6    -14.80      0.00
    2    8    6      3.61      0.00
    5    8    6      2.08      0.00
    8    8    6     -6.58      0.00
  -15    9    6      3.83      0.00
  -12    9    6     -0.90      0.00
   -9    9    6     -5.10      0.00
   -6    9    6      4.36      0.00
   -3    9    6     -0.44      0.00
    0    9    6     -0.03      0.00
    3    9    6     -5.93      0.00
    6    9    6      1.35      0.00
    9    9    6      2.30      0.00
  -17   10    6      4.77      0.00
  -14   10    6     -0.95      0.00
  -11   10    6      0.74      0.00
   -8   10    6     -4.34      0.00
   -5   10    6     -8.00      0.00
   -2   10    6      3.60      0.00
    1   10    6      0.30      0.00
    4   10    6      1.66      0.00
    7   10    6     -3.69      0.00
   10   10    6      4.49      0.00
  -19   11    6     -1.93      0.00
  -16   11    6      3.53      0.00
  -13   11    6      0.34      0.00
  -10   11    6      3.41      0.00
   -7   11    6     -0.43      0.00
   -4   11    6     -0.90      0.00
   -1   11    6    -10.03      0.00
    2   11    6     -4.74      0.00
    5   11    6     -6.87      0.00
    8   11    6      8.69      0.00
  -21   12    6     -0.23      0.00
  -18   12    6     -7.68      0.00
  -15   12    6      3.52      0.00
  -12   12    6     -3.12      0.00
   -9   12    6      4.96      0.00
   -6   12    6     -6.41      0.00
   -3   12    6     -8.26      0.00
    0   12    6      9.65      0.00
    3   12    6      1.88      0.00
    6   12    6     -0.24      0.00
    9   12    6      0.22      0.00
  -20   13    6     -2.63      0.00
  -17   13    6     -4.76      0.00
  -14   13    6      3.68      0.00
  -11   13    6     -1.45      0.00
   -8   13    6      2.91      0.00
   -5   13    6     -2.62      0.00
   -2   13    6      5.75      0.00
    1   13    6     -2.63      0.00
    4   13    6      3.32      0.00
    7   13    6    -11.31      0.00
  -19   14    6     -6.31      0.00
  -16   14    6     -0.56      0.00
  -13   14    6      2.74      0.00
  -10   14    6     -1.31      0.00
   -7   14    6      2.85      0.00
   -4   14    6      0.31      0.00
   -1   14    6     -3.49      0.00
    2   14    6      4.58      0.00
    5   14    6      3.58      0.00
  -18   15    6      0.66      0.00
  -15   15    6      0.04      0.00
  -12   15    6      2.73      0.00
   -9   15    6     -3.71      0.00
   -6   15    6      2.95      0.00
   -3   15    6     -9.94      0.00
    0   15    6     -5.24      0.00
    3   15    6     -4.93      0.00
  -20   16    6      1.28      0.00
  -17   16    6      5.03      0.00
  -14   16    6     -0.17      0.00
  -11   16    6      9.58      0.00
   -8   16    6     -1.95      0.00
   -5   16    6     -0.17      0.00
   -2   16    6      4.18      0.00
    1   16    6      7.73      0.00
    4   16    6     -1.57      0.00
  -19   17    6     -1.88      0.00
  -16   17    6      2.86      0.00
  -13   17    6      0.26      0.00
  -10   17    6     -0.97      0.00
   -7   17    6     -5.83      0.00
   -4   17    6    -11.17      0.00
   -1   17    6      3.85      0.00
    2   17    6     -1.82      0.00
  -18   18    6     -4.99      0.00
  -15   18    6      2.02      0.00
  -12   18    6     -6.90      0.00
   -9   18    6      3.76      0.00
   -6   18    6     -3.29      0.00
   -3   18    6      2.66      0.00
    0   18    6     -9.40      0.00
  -17   19    6     -5.50      0.00
  -14   19    6      2.25      0.00
  -11   19    6     -3.66      0.00
   -8   19    6     -3.90      0.00
   -5   19    6     -3.14      0.00
   -2   19    6     -2.85      0.00
  -16   20    6     -1.02      0.00
  -13   20    6      0.39      0.00
  -10   20    6     -6.37      0.00
   -7   20    6      8.08      0.00
   -4   20    6      9.00      0.00
  -12   21    6      3.67      0.00
   -9   21    6     -0.96      0.00
   -1    1    7    -12.81      0.00
   -3    2    7     15.35      0.00
    0    2    7     43.43      0.00
   -5    3    7     27.58      0.00
   -2    3    7     -1.62      0.00
    1    3    7    -14.95      0.00
   -7    4    7    -26.00      0.00
   -4    4    7     -2.87      0.00
   -1    4    7     -7.42      0.00
    2    4    7      1.92      0.00
   -9    5    7      1.32      0.00
   -6    5    7      8.80      0.00
   -3    5    7     13.16      0.00
    0    5    7     25.98      0.00
    3    5    7     16.39      0.00
  -11    6    7     -0.14      0.00
   -8    6    7      9.40      0.00
   -5    6    7      1.71      0.00
   -2    6    7      0.21      0.00
    1    6    7    -20.09      0.00
    4    6    7     -0.75      0.00
  -13    7    7      5.62      0.00
  -10    7    7      2.96      0.00
   -7    7    7      8.63      0.00
   -4    7    7      2.24      0.00
   -1    7    7    -12.87      0.00
    2    7    7     -3.51      0.00
    5    7    7      5.13      0.00
  -15    8    7      2.74      0.00
  -12    8    7     -2.23      0.00
   -9    8    7     -8.91      0.00
   -6    8    7    -14.87      0.00
   -3    8    7     -0.32      0.00
    0    8    7      4.58      0.00
    3    8    7     -3.23      0.00
    6    8    7     -4.08      0.00
  -17    9    7     -1.78      0.00
  -14    9    7      1.14      0.00
  -11    9    7     -2.83      0.00
   -8    9    7      7.40      0.00
   -5    9    7      0.01      0.00
   -2    9    7      6.26      0.00
    1    9    7      3.51      0.00
    4    9    7     -2.31      0.00
    7    9    7      2.11      0.00
  -19   10    7     -1.58      0.00
  -16   10    7     -1.90      0.00
  -13   10    7      4.15      0.00
  -10   10    7      1.67      0.00
   -7   10    7     -2.54      0.00
   -4   10    7      4.00      0.00
   -1   10    7     -4.44      0.00
    2   10    7      6.47      0.00
    5   10    7     -1.32      0.00
    8   10    7     -2.03      0.00
  -21   11    7      5.50      0.00
  -18   11    7     -4.07      0.00
  -15   11    7     -7.44      0.00
  -12   11    7      3.26      0.00
   -9   11    7      3.53      0.00
   -6   11    7      8.30      0.00
   -3   11    7      1.03      0.00
    0   11    7     -3.31      0.00
    3   11    7     -1.21      0.00
    6   11    7      8.03      0.00
    9   11    7    -12.18      0.00
  -20   12    7     -1.61      0.00
  -17   12    7      7.72      0.00
  -14   12    7     -0.56      0.00
  -11   12    7     -2.91      0.00
   -8   12    7     -6.97      0.00
   -5   12    7     -3.30      0.00
   -2   12    7     12.42      0.00
    1   12    7      3.31      0.00
    4   12    7      8.88      0.00
    7   12    7      1.87      0.00
  -19   13    7     10.85      0.00
  -16   13    7      2.16      0.00
  -13   13    7     -1.18      0.00
  -10   13    7     -4.92      0.00
   -7   13    7      1.87      0.00
   -4   13    7      5.93      0.00
   -1   13    7     -9.63      0.00
    2   13    7     -0.84      0.00
    5   13    7     -9.36      0.00
    8   13    7     12.35      0.00
  -18   14    7     -8.15      0.00
  -15   14    7     -2.43      0.00
  -12   14    7     -1.50      0.00
   -9   14    7      2.16      0.00
   -6   14    7     -3.79      0.00
   -3   14    7      0.66      0.00
    0   14    7      8.41      0.00
    3   14    7      2.65      0.00
    6   14    7      6.47      0.00
  -20   15    7      4.78      0.00
  -17   15    7     -6.65      0.00
  -14   15    7      2.47      0.00
  -11   15    7      0.96      0.00
   -8   15    7     -1.18      0.00
   -5   15    7     -2.95      0.00
   -2   15    7      2.25      0.00
    1   15    7     -7.30      0.00
    4   15    7     10.62      0.00
  -19   16    7     -1.53      0.00
  -16   16    7      0.83      0.00
  -13   16    7     -2.49      0.00
  -10   16    7     -3.14      0.00
   -7   16    7      4.67      0.00
   -4   16    7     10.48      0.00
   -1   16    7      0.29      0.00
    2   16    7      4.32      0.00
  -18   17    7      2.29      0.00
  -15   17    7     -6.26      0.00
  -12   17    7     -5.65      0.00
   -9   17    7      1.39      0.00
   -6   17    7     -0.98      0.00
   -3   17    7      4.07      0.00
    0   17    7     -6.76      0.00
  -17   18    7     -1.58      0.00
  -14   18    7     -1.08      0.00
  -11   18    7      3.35      0.00
   -8   18    7     -5.30      0.00
   -5   18    7      6.57      0.00
   -2   18    7      2.06      0.00
    1   18    7      9.96      0.00
  -16   19    7      0.63      0.00
  -13   19    7      5.07      0.00
  -10   19    7      4.65      0.00
   -7   19    7     -1.35      0.00
   -4   19    7    -14.55      0.00
   -1   19    7     -0.55      0.00
  -15   20    7      6.01      0.00
  -12   20    7     -4.24      0.00
   -9   20    7      7.62      0.00
   -6   20    7      0.54      0.00
  -11   21    7     -2.10      0.00
   -8   21    7     -8.18      0.00
    0    1    8     -1.59      0.00
   -2    2    8     37.55      0.00
    1    2    8    -11.31      0.00
   -4    3    8    -14.59      0.00
   -1    3    8    -13.44      0.00
    2    3    8     -7.31      0.00
   -6    4    8      1.15      0.00
   -3    4    8     -8.87      0.00
    0    4    8     11.87      0.00
    3    4    8     -1.15      0.00
   -8    5    8      2.82      0.00
   -5    5    8     13.55      0.00
   -2    5    8      8.88      0.00
    1    5    8     -6.11      0.00
    4    5    8      1.24      0.00
  -10    6    8     -5.87      0.00
   -7    6    8     -5.51      0.00
   -4    6    8    -11.23      0.00
   -1    6    8    -21.67      0.00
    2    6    8     -2.24      0.00
    5    6    8      0.72      0.00
  -12    7    8      1.51      0.00
   -9    7    8      0.04      0.00
   -6    7    8     -8.04      0.00
   -3    7    8      6.79      0.00
    0    7    8     23.91      0.00
    3    7    8      3.29      0.00
    6    7    8     -0.21      0.00
  -14    8    8     -0.82      0.00
  -11    8    8      6.34      0.00
   -8    8    8     -1.73      0.00
   -5    8    8     12.17      0.00
   -2    8    8      0.23      0.00
    1    8    8      5.40      0.00
    4    8    8      2.06      0.00
    7    8    8     -4.35      0.00
  -16    9    8     -3.80      0.00
  -13    9    8     -4.98      0.00
  -10    9    8      7.00      0.00
   -7    9    8      5.89      0.00
   -4    9    8     -5.92      0.00
   -1    9    8     -9.31      0.00
    2    9    8     -4.82      0.00
    5    9    8      1.25      0.00
    8    9    8      7.58      0.00
  -18   10    8     -1.34      0.00
  -15   10    8      0.98      0.00
  -12   10    8     -3.67      0.00
   -9   10    8    -11.93      0.00
   -6   10    8     -4.52      0.00
   -3   10    8      1.04      0.00
    0   10    8      2.21      0.00
    3   10    8     -5.40      0.00
    6   10    8     -4.02      0.00
    9   10    8      2.52      0.00
  -20   11    8      1.32      0.00
  -17   11    8      0.03      0.00
  -14   11    8      2.75      0.00
  -11   11    8      2.77      0.00
   -8   11    8      3.22      0.00
   -5   11    8      3.15      0.00
   -2   11    8     -5.86      0.00
    1   11    8      5.17      0.00
    4   11    8      2.20      0.00
    7   11    8     -1.05      0.00
   10   11    8     -0.81      0.00
  -19   12    8      1.24      0.00
  -16   12    8      6.17      0.00
  -13   12    8     -1.67      0.00
  -10   12    8      6.21      0.00
   -7   12    8     -4.24      0.00
   -4   12    8     -0.87      0.00
   -1   12    8      0.34      0.00
    2   12    8     -1.34      0.00
    5   12    8     -4.80      0.00
    8   12    8     -0.96      0.00
  -18   13    8     -2.10      0.00
  -15   13    8     -1.49      0.00
  -12   13    8     -2.88      0.00
   -9   13    8      3.24      0.00
   -6   13    8      1.86      0.00
   -3   13    8     -1.35      0.00
    0   13    8    -10.29      0.00
    3   13    8     -7.29      0.00
    6   13    8     -1.38      0.00
  -20   14    8     -4.74      0.00
  -17   14    8      1.91      0.00
  -14   14    8      3.18      0.00
  -11   14    8      1.59      0.00
   -8   14    8     -0.86      0.00
   -5   14    8     -1.46      0.00
   -2   14    8      4.71      0.00
    1   14    8      1.40      0.00
    4   14    8     -6.92      0.00
  -19   15    8     14.16      0.00
  -16   15    8      2.51      0.00
  -13   15    8     -4.79      0.00
  -10   15    8     -0.56      0.00
   -7   15    8      7.55      0.00
   -4   15    8     -3.68      0.00
   -1   15    8      0.68      0.00
    2   15    8     -0.38      0.00
    5   15    8     -3.56      0.00
  -18   16    8      2.31      0.00
  -15   16    8      2.47      0.00
  -12   16    8      4.75      0.00
   -9   16    8     -2.80      0.00
   -6   16    8     -3.89      0.00
   -3   16    8    -12.64      0.00
    0   16    8      4.19      0.00
    3   16    8     -4.57      0.00
  -17   17    8      3.11      0.00
  -14   17    8      2.03      0.00
  -11   17    8      2.75      0.00
   -8   17    8     -0.36      0.00
   -5   17    8      2.15      0.00
   -2   17    8      0.12      0.00
    1   17    8     -0.25      0.00
  -16   18    8      0.74      0.00
  -13   18    8     -1.25      0.00
  -10   18    8     -2.42      0.00
   -7   18    8      5.65      0.00
   -4   18    8      3.05      0.00
   -1   18    8     -2.11      0.00
  -15   19    8      4.92      0.00
  -12   19    8     -0.92      0.00
   -9   19    8      0.69      0.00
   -6   19    8      4.57      0.00
   -3   19    8     13.32      0.00
  -14   20    8     -2.11      0.00
  -11   20    8     -3.12      0.00
   -8   20    8     -2.78      0.00
   -5   20    8      1.50      0.00
  -10   21    8      6.15      0.00
    0    0    9     -7.92      0.00
    1    1    9    -22.84      0.00
   -1    2    9     -2.76      0.00
    2    2    9     -0.12      0.00
   -3    3    9    -11.54      0.00
    0    3    9      2.02      0.00
    3    3    9      6.85      0.00
   -5    4    9      4.98      0.00
   -2    4    9     -3.77      0.00
    1    4    9     -3.90      0.00
    4    4    9     -5.13      0.00
   -7    5    9     -8.09      0.00
   -4    5    9     -0.53      0.00
   -1    5    9     -1.38      0.00
    2    5    9      1.39      0.00
    5    5    9     -0.71      0.00
   -9    6    9      8.31      0.00
   -6    6    9      0.70      0.00
   -3    6    9     -2.49      0.00
    0    6    9     19.22      0.00
    3    6    9      3.73      0.00
    6    6    9     -1.23      0.00
  -11    7    9     -2.23      0.00
   -8    7    9     -1.59      0.00
   -5    7    9      3.47      0.00
   -2    7    9     -3.85      0.00
    1    7    9    -18.24      0.00
    4    7    9     -2.02      0.00
    7    7    9      6.73      0.00
  -13    8    9     -2.05      0.00
  -10    8    9     -6.84      0.00
   -7    8    9     -0.53      0.00
   -4    8    9     -3.35      0.00
   -1    8    9     -7.12      0.00
    2    8    9     -6.54      0.00
    5    8    9     -5.91      0.00
    8    8    9     -0.18      0.00
  -15    9    9     -0.91      0.00
  -12    9    9     -0.81      0.00
   -9    9    9     -1.54      0.00
   -6    9    9     -6.73      0.00
   -3    9    9      9.47      0.00
    0    9    9      7.12      0.00
    3    9    9      1.88      0.00
    6    9    9      4.63      0.00
    9    9    9      0.26      0.00
  -17   10    9      2.06      0.00
  -14   10    9      1.20      0.00
  -11   10    9      1.93      0.00
   -8   10    9     10.10      0.00
   -5   10    9      3.36      0.00
   -2   10    9      1.31      0.00
    1   10    9     -2.08      0.00
    4   10    9      3.31      0.00
    7   10    9     -3.08      0.00
   10   10    9     -0.68      0.00
  -19   11    9     -6.78      0.00
  -16   11    9      3.66      0.00
  -13   11    9      1.38      0.00
  -10   11    9     -1.25      0.00
   -7   11    9      2.88      0.00
   -4   11    9     -2.89      0.00
   -1   11    9     -3.58      0.00
    2   11    9     -1.87      0.00
    5   11    9      3.21      0.00
    8   11    9      3.70      0.00
  -18   12    9      0.78      0.00
  -15   12    9     -6.26      0.00
  -12   12    9     -0.38      0.00
   -9   12    9     -5.57      0.00
   -6   12    9     -6.22      0.00
   -3   12    9      1.82      0.00
    0   12    9      4.75      0.00
    3   12    9      1.63      0.00
    6   12    9      0.86      0.00
  -20   13    9     -3.20      0.00
  -17   13    9     -4.71      0.00
  -14   13    9     -3.14      0.00
  -11   13    9     -4.45      0.00
   -8   13    9      3.30      0.00
   -5   13    9      2.22      0.00
   -2   13    9     -2.40      0.00
    1   13    9      9.92      0.00
    4   13    9      6.57      0.00
    7   13    9      2.78      0.00
  -19   14    9     -7.05      0.00
  -16   14    9      2.96      0.00
  -13   14    9      7.49      0.00
  -10   14    9     -3.18      0.00
   -7   14    9      0.03      0.00
   -4   14    9     -2.52      0.00
   -1   14    9     -4.87      0.00
    2   14    9     -8.27      0.00
    5   14    9      0.67      0.00
  -18   15    9    -16.16      0.00
  -15   15    9     -3.08      0.00
  -12   15    9      2.70      0.00
   -9   15    9      0.49      0.00
   -6   15    9     -0.47      0.00
   -3   15    9      9.18      0.00
    0   15    9     -1.24      0.00
    3   15    9     13.63      0.00
  -17   16    9     -1.58      0.00
  -14   16    9      3.43      0.00
  -11   16    9      3.99      0.00
   -8   16    9     -2.68      0.00
   -5   16    9      1.57      0.00
   -2   16    9      3.29      0.00
    1   16    9      1.97      0.00
  -19   17    9     13.70      0.00
  -16   17    9      2.83      0.00
  -13   17    9     -7.43      0.00
  -10   17    9      0.70      0.00
   -7   17    9     -1.73      0.00
   -4   17    9     -1.04      0.00
   -1   17    9      3.23      0.00
    2   17    9     -3.57      0.00
  -18   18    9     -6.03      0.00
  -15   18    9    -12.81      0.00
  -12   18    9      1.51      0.00
   -9   18    9     -0.57      0.00
   -6   18    9     -8.14      0.00
   -3   18    9    -10.70      0.00
    0   18    9     -3.84      0.00
  -17   19    9     10.87      0.00
  -14   19    9      9.75      0.00
  -11   19    9      3.32      0.00
   -8   19    9      0.93      0.00
   -5   19    9     -4.26      0.00
  -13   20    9     -6.41      0.00
  -10   20    9     -1.87      0.00
   -7   20    9     -7.61      0.00
   -1    1   10     12.42      0.00
   -3    2   10     23.08      0.00
    0    2   10      6.97      0.00
   -5    3   10     -0.25      0.00
   -2    3   10     -0.58      0.00
    1    3   10     -3.85      0.00
   -7    4   10      1.58      0.00
   -4    4   10     -3.31      0.00
   -1    4   10     19.38      0.00
    2    4   10     -0.89      0.00
   -9    5   10      3.20      0.00
   -6    5   10      9.52      0.00
   -3    5   10      4.32      0.00
    0    5   10    -11.01      0.00
    3    5   10     -4.57      0.00
  -11    6   10      2.28      0.00
   -8    6   10      2.53      0.00
   -5    6   10     -3.77      0.00
   -2    6   10      0.03      0.00
    1    6   10     -0.69      0.00
    4    6   10      1.53      0.00
  -13    7   10     -0.79      0.00
  -10    7   10     -5.58      0.00
   -7    7   10     -4.92      0.00
   -4    7   10     -2.89      0.00
   -1    7   10     -2.37      0.00
    2    7   10      8.20      0.00
    5    7   10      1.69      0.00
  -15    8   10     -8.84      0.00
  -12    8   10      2.94      0.00
   -9    8   10      5.63      0.00
   -6    8   10      8.59      0.00
   -3    8   10     -0.15      0.00
    0    8   10     12.77      0.00
    3    8   10      6.35      0.00
    6    8   10      2.00      0.00
  -17    9   10     -5.25      0.00
  -14    9   10      3.41      0.00
  -11    9   10     -0.38      0.00
   -8    9   10     -3.39      0.00
   -5    9   10      5.40      0.00
   -2    9   10     -2.47      0.00
    1    9   10     -7.49      0.00
    4    9   10     -2.54      0.00
    7    9   10      2.03      0.00
  -19   10   10      2.85      0.00
  -16   10   10      3.10      0.00
  -13   10   10      1.17      0.00
  -10   10   10      6.57      0.00
   -7   10   10     -6.05      0.00
   -4   10   10     -8.43      0.00
   -1   10   10     -6.14      0.00
    2   10   10      8.19      0.00
    5   10   10    -11.26      0.00
    8   10   10      4.91      0.00
  -18   11   10     -2.08      0.00
  -15   11   10     -2.91      0.00
  -12   11   10     -0.90      0.00
   -9   11   10     -4.17      0.00
   -6   11   10     -1.82      0.00
   -3   11   10      3.60      0.00
    0   11   10     11.26      0.00
    3   11   10     -1.93      0.00
    6   11   10      0.71      0.00
    9   11   10    -13.27      0.00
  -20   12   10      4.89      0.00
  -17   12   10      5.69      0.00
  -14   12   10      1.98      0.00
  -11   12   10      5.36      0.00
   -8   12   10     -3.20      0.00
   -5   12   10      2.77      0.00
   -2   12   10      3.56      0.00
    1   12   10     -9.04      0.00
    4   12   10      5.25      0.00
    7   12   10     -5.79      0.00
  -19   13   10      0.58      0.00
  -16   13   10      0.47      0.00
  -13   13   10     -2.86      0.00
  -10   13   10      7.08      0.00
   -7   13   10     -1.52      0.00
   -4   13   10      2.16      0.00
   -1   13   10     -0.65      0.00
    2   13   10      2.45      0.00
    5   13   10     -5.92      0.00
  -18   14   10      7.45      0.00
  -15   14   10      2.90      0.00
  -12   14   10    -10.76      0.00
   -9   14   10      5.46      0.00
   -6   14   10      3.08      0.00
   -3   14   10      1.10      0.00
    0   14   10     -2.54      0.00
    3   14   10     -1.27      0.00
  -17   15   10      3.43      0.00
  -14   15   10      0.66      0.00
  -11   15   10     -1.82      0.00
   -8   15   10     -3.74      0.00
   -5   15   10     -4.25      0.00
   -2   15   10      2.20      0.00
    1   15   10      4.69      0.00
    4   15   10      4.81      0.00
  -19   16   10      5.90      0.00
  -16   16   10     -3.67      0.00
  -13   16   10      2.57      0.00
  -10   16   10     -4.43      0.00
   -7   16   10      3.73      0.00
   -4   16   10     -1.01      0.00
   -1   16   10     -2.49      0.00
    2   16   10     -6.07      0.00
  -18   17   10     -4.42      0.00
  -15   17   10     -2.19      0.00
  -12   17   10     -0.41      0.00
   -9   17   10     -1.56      0.00
   -6   17   10      2.86      0.00
   -3   17   10     -0.12      0.00
    0   17   10     -2.85      0.00
  -17   18   10     -4.99      0.00
  -14   18   10      0.61      0.00
  -11   18   10      0.78      0.00
   -8   18   10     -0.07      0.00
   -5   18   10     11.28      0.00
   -2   18   10      7.82      0.00
  -16   19   10      8.32      0.00
  -13   19   10     -6.07      0.00
  -10   19   10     -5.22      0.00
   -7   19   10     -0.37      0.00
   -4   19   10      0.33      0.00
  -12   20   10      6.62      0.00
   -9   20   10     16.12      0.00
    0    1   11    -12.99      0.00
   -2    2   11     -6.93      0.00
    1    2   11     -4.63      0.00
   -4    3   11     -9.80      0.00
   -1    3   11     -0.79      0.00
    2    3   11      0.79      0.00
   -6    4   11     -6.33      0.00
   -3    4   11      2.22      0.00
    0    4   11     -7.70      0.00
    3    4   11      9.81      0.00
   -8    5   11     -5.18      0.00
   -5    5   11      4.77      0.00
   -2    5   11     -7.62      0.00
    1    5   11      1.76      0.00
    4    5   11     -0.17      0.00
  -10    6   11      3.58      0.00
   -7    6   11     -1.90      0.00
   -4    6   11     -4.49      0.00
   -1    6   11      7.43      0.00
    2    6   11     -3.24      0.00
    5    6   11     -3.17      0.00
  -12    7   11     -0.79      0.00
   -9    7   11     -2.44      0.00
   -6    7   11     -3.07      0.00
   -3    7   11     -1.18      0.00
    0    7   11      4.67      0.00
    3    7   11     -8.28      0.00
    6    7   11      2.44      0.00
  -14    8   11      4.92      0.00
  -11    8   11     -0.98      0.00
   -8    8   11     -0.26      0.00
   -5    8   11      2.86      0.00
   -2    8   11     -0.46      0.00
    1    8   11     -8.17      0.00
    4    8   11     -0.34      0.00
    7    8   11     -2.51      0.00
  -16    9   11     -5.23      0.00
  -13    9   11     -3.12      0.00
  -10    9   11     -1.03      0.00
   -7    9   11      0.54      0.00
   -4    9   11     -2.45      0.00
   -1    9   11     -5.82      0.00
    2    9   11     -1.65      0.00
    5    9   11      2.26      0.00
    8    9   11      4.55      0.00
  -18   10   11      7.83      0.00
  -15   10   11     -2.84      0.00
  -12   10   11      0.80      0.00
   -9   10   11     -2.27      0.00
   -6   10   11      6.65      0.00
   -3   10   11      6.95      0.00
    0   10   11      3.03      0.00
    3   10   11     -1.16      0.00
    6   10   11      8.27      0.00
    9   10   11      3.63      0.00
  -17   11   11     -0.65      0.00
  -14   11   11      0.39      0.00
  -11   11   11     -3.14      0.00
   -8   11   11      3.45      0.00
   -5   11   11      6.19      0.00
   -2   11   11     -0.97      0.00
    1   11   11     -7.32      0.00
    4   11   11      2.76      0.00
    7   11   11     -2.53      0.00
  -19   12   11      2.96      0.00
  -16   12   11      2.21      0.00
  -13   12   11      1.16      0.00
  -10   12   11     -5.76      0.00
   -7   12   11     -4.14      0.00
   -4   12   11     -5.84      0.00
   -1   12   11     -9.59      0.00
    2   12   11      3.94      0.00
    5   12   11     -3.39      0.00
    8   12   11     19.08      0.00
  -18   13   11     -7.78      0.00
  -15   13   11     -4.50      0.00
  -12   13   11      2.67      0.00
   -9   13   11      0.67      0.00
   -6   13   11      0.04      0.00
   -3   13   11     -4.11      0.00
    0   13   11      6.74      0.00
    3   13   11    -18.62      0.00
    6   13   11     -9.80      0.00
  -17   14   11      3.53      0.00
  -14   14   11     -2.32      0.00
  -11   14   11      4.05      0.00
   -8   14   11      6.47      0.00
   -5   14   11     -1.31      0.00
   -2   14   11     -1.31      0.00
    1   14   11     -1.92      0.00
    4   14   11      7.93      0.00
  -19   15   11      2.86      0.00
  -16   15   11      3.34      0.00
  -13   15   11      2.80      0.00
  -10   15   11     -5.45      0.00
   -7   15   11     -2.22      0.00
   -4   15   11     -2.10      0.00
   -1   15   11     -2.94      0.00
    2   15   11      4.27      0.00
  -18   16   11     -5.23      0.00
  -15   16   11     10.93      0.00
  -12   16   11      1.27      0.00
   -9   16   11      4.75      0.00
   -6   16   11      2.31      0.00
   -3   16   11     -1.22      0.00
    0   16   11      1.99      0.00
  -17   17   11     -1.87      0.00
  -14   17   11     -4.53      0.00
  -11   17   11      0.92      0.00
   -8   17   11     -2.98      0.00
   -5   17   11     -8.92      0.00
   -2   17   11     -0.03      0.00
  -16   18   11      2.42      0.00
  -13   18   11      6.48      0.00
  -10   18   11      3.91      0.00
   -7   18   11      8.67      0.00
   -4   18   11      0.41      0.00
  -15   19   11     -0.42      0.00
  -12   19   11      2.54      0.00
   -9   19   11     -4.68      0.00
   -6   19   11     -8.48      0.00
  -11   20   11     -0.85      0.00
   -8   20   11     -8.04      0.00
    0    0   12      6.70      0.00
    1    1   12      7.44      0.00
   -1    2   12     -5.17      0.00
    2    2   12      0.96      0.00
   -3    3   12      6.39      0.00
    0    3   12      1.69      0.00
    3    3   12     -1.92      0.00
   -5    4   12      1.16      0.00
   -2    4   12      3.25      0.00
    1    4   12      2.26      0.00
    4    4   12     -5.20      0.00
   -7    5   12      5.15      0.00
   -4    5   12     -2.94      0.00
   -1    5   12     -0.06      0.00
    2    5   12     -0.20      0.00
    5    5   12      5.31      0.00
   -9    6   12      0.51      0.00
   -6    6   12      2.11      0.00
   -3    6   12      1.96      0.00
    0    6   12    -10.89      0.00
    3    6   12      2.93      0.00
    6    6   12      0.83      0.00
  -11    7   12     -1.32      0.00
   -8    7   12      1.70      0.00
   -5    7   12     -3.76      0.00
   -2    7   12      7.41      0.00
    1    7   12      2.38      0.00
    4    7   12      3.53      0.00
    7    7   12      1.14      0.00
  -13    8   12     -5.65      0.00
  -10    8   12     -3.93      0.00
   -7    8   12      3.51      0.00
   -4    8   12      2.34      0.00
   -1    8   12      2.77      0.00
    2    8   12     -0.89      0.00
    5    8   12     -7.94      0.00
    8    8   12      1.63      0.00
  -15    9   12      0.81      0.00
  -12    9   12      4.35      0.00
   -9    9   12      6.65      0.00
   -6    9   12      0.26      0.00
   -3    9   12     -6.70      0.00
    0    9   12      9.81      0.00
    3    9   12      8.32      0.00
    6    9   12      0.74      0.00
    9    9   12    -14.26      0.00
  -17   10   12      2.05      0.00
  -14   10   12      4.27      0.00
  -11   10   12      2.92      0.00
   -8   10   12     -1.87      0.00
   -5   10   12     -9.08      0.00
   -2   10   12     -3.05      0.00
    1   10   12      3.06      0.00
    4   10   12     -1.91      0.00
    7   10   12     -2.39      0.00
  -19   11   12      1.75      0.00
  -16   11   12      2.33      0.00
  -13   11   12     -1.96      0.00
  -10   11   12     -1.29      0.00
   -7   11   12     -0.36      0.00
   -4   11   12     -4.25      0.00
   -1   11   12     -1.65      0.00
    2   11   12     -2.52      0.00
    5   11   12     -2.71      0.00
    8   11   12    -12.57      0.00
  -18   12   12     -4.67      0.00
  -15   12   12     -3.70      0.00
  -12   12   12      2.44      0.00
   -9   12   12     -2.43      0.00
   -6   12   12      1.34      0.00
   -3   12   12     12.28      0.00
    0   12   12      1.59      0.00
    3   12   12     11.27      0.00
    6   12   12     12.17      0.00
  -17   13   12     -0.01      0.00
  -14   13   12     -3.45      0.00
  -11   13   12      3.99      0.00
   -8   13   12     -2.61      0.00
   -5   13   12      1.70      0.00
   -2   13   12      4.76      0.00
    1   13   12     -1.02      0.00
    4   13   12      0.51      0.00
  -19   14   12     -0.37      0.00
  -16   14   12     -1.24      0.00
  -13   14   12     -2.54      0.00
  -10   14   12      2.71      0.00
   -7   14   12     -2.01      0.00
   -4   14   12      2.46      0.00
   -1   14   12      0.90      0.00
    2   14   12      4.50      0.00
    5   14   12      9.83      0.00
  -18   15   12     -5.05      0.00
  -15   15   12     -2.47      0.00
  -12   15   12     -2.30      0.00
   -9   15   12      0.43      0.00
   -6   15   12      2.81      0.00
   -3   15   12      3.34      0.00
    0   15   12      4.09      0.00
    3   15   12      4.46      0.00
  -17   16   12      3.64      0.00
  -14   16   12     -0.88      0.00
  -11   16   12     -3.04      0.00
   -8   16   12     -2.97      0.00
   -5   16   12      1.77      0.00
   -2   16   12      1.88      0.00
    1   16   12     -5.33      0.00
  -16   17   12     -8.40      0.00
  -13   17   12     -0.79      0.00
  -10   17   12     -1.01      0.00
   -7   17   12     -4.87      0.00
   -4   17   12      3.59      0.00
   -1   17   12     -2.42      0.00
  -15   18   12     -4.17      0.00
  -12   18   12     -4.89      0.00
   -9   18   12     -0.99      0.00
   -6   18   12     -1.40      0.00
   -3   18   12      1.94      0.00
  -14   19   12     -0.83      0.00
  -11   19   12      0.05      0.00
   -8   19   12      7.48      0.00
   -5   19   12      1.00      0.00
   -1    1   13      2.10      0.00
   -3    2   13      2.08      0.00
    0    2   13      5.63      0.00
   -5    3   13     -3.59      0.00
   -2    3   13      1.11      0.00
    1    3   13     -0.40      0.00
   -7    4   13      2.66      0.00
   -4    4   13      1.17      0.00
   -1    4   13     -2.53      0.00
    2    4   13      1.12      0.00
   -9    5   13     -1.53      0.00
   -6    5   13      3.06      0.00
   -3    5   13      3.68      0.00
    0    5   13      0.50      0.00
    3    5   13      2.14      0.00
  -11    6   13     -4.62      0.00
   -8    6   13     -1.41      0.00
   -5    6   13    -14.00      0.00
   -2    6   13     -3.60      0.00
    1    6   13      4.69      0.00
    4    6   13     -4.48      0.00
  -13    7   13     -2.41      0.00
  -10    7   13     -0.56      0.00
   -7    7   13     -3.82      0.00
   -4    7   13      7.46      0.00
   -1    7   13      0.14      0.00
    2    7   13     -0.11      0.00
    5    7   13      4.20      0.00
  -15    8   13     -5.69      0.00
  -12    8   13      4.09      0.00
   -9    8   13     -3.05      0.00
   -6    8   13      5.26      0.00
   -3    8   13     -1.27      0.00
    0    8   13     -7.40      0.00
    3    8   13      2.46      0.00
    6    8   13      8.44      0.00
  -17    9   13      1.59      0.00
  -14    9   13      2.28      0.00
  -11    9   13     -3.02      0.00
   -8    9   13     -0.56      0.00
   -5    9   13     -2.32      0.00
   -2    9   13      4.08      0.00
    1    9   13     -5.45      0.00
    4    9   13     -7.03      0.00
    7    9   13      2.91      0.00
  -19   10   13      3.74      0.00
  -16   10   13     -4.10      0.00
  -13   10   13      1.24      0.00
  -10   10   13     -1.87      0.00
   -7   10   13     -0.17      0.00
   -4   10   13      3.31      0.00
   -1   10   13      4.37      0.00
    2   10   13     -5.38      0.00
    5   10   13     -8.25      0.00
    8   10   13     12.45      0.00
  -18   11   13      7.72      0.00
  -15   11   13      3.17      0.00
  -12   11   13     -1.29      0.00
   -9   11   13     -1.29      0.00
   -6   11   13      7.26      0.00
   -3   11   13      0.42      0.00
    0   11   13      3.26      0.00
    3   11   13      7.57      0.00
    6   11   13     -5.76      0.00
  -17   12   13      0.58      0.00
  -14   12   13      1.23      0.00
  -11   12   13     -5.19      0.00
   -8   12   13     -0.31      0.00
   -5   12   13     -1.21      0.00
   -2   12   13     -9.13      0.00
    1   12   13      1.96      0.00
    4   12   13     -5.28      0.00
    7   12   13     -2.38      0.00
  -16   13   13      4.58      0.00
  -13   13   13      6.38      0.00
  -10   13   13      2.83      0.00
   -7   13   13     -0.71      0.00
   -4   13   13     -4.96      0.00
   -1   13   13     -3.51      0.00
    2   13   13     -4.95      0.00
    5   13   13     -1.99      0.00
  -18   14   13      2.15      0.00
  -15   14   13     -2.96      0.00
  -12   14   13     -0.88      0.00
   -9   14   13      1.66      0.00
   -6   14   13      3.16      0.00
   -3   14   13      4.10      0.00
    0   14   13     -3.13      0.00
    3   14   13     -0.78      0.00
  -17   15   13      5.66      0.00
  -14   15   13      2.59      0.00
  -11   15   13      3.60      0.00
   -8   15   13     -0.69      0.00
   -5   15   13    -10.85      0.00
   -2   15   13     -5.95      0.00
    1   15   13      4.84      0.00
  -16   16   13      2.91      0.00
  -13   16   13     -7.20      0.00
  -10   16   13     -4.79      0.00
   -7   16   13     -0.28      0.00
   -4   16   13     -0.15      0.00
   -1   16   13     -3.72      0.00
  -15   17   13      8.32      0.00
  -12   17   13      6.05      0.00
   -9   17   13      4.90      0.00
   -6   17   13      8.20      0.00
   -3   17   13     -0.25      0.00
  -14   18   13      6.69      0.00
  -11   18   13      3.44      0.00
   -8   18   13     -2.78      0.00
   -5   18   13     -0.67      0.00
  -10   19   13      3.72      0.00
   -7   19   13     -2.22      0.00
    0    1   14     -8.34      0.00
   -2    2   14     -3.20      0.00
    1    2   14     -9.00      0.00
   -4    3   14      5.10      0.00
   -1    3   14     -3.03      0.00
    2    3   14      2.33      0.00
   -6    4   14     -6.78      0.00
   -3    4   14     -6.48      0.00
    0    4   14      4.29      0.00
    3    4   14     -5.85      0.00
   -8    5   14     -0.33      0.00
   -5    5   14      8.48      0.00
   -2    5   14      1.40      0.00
    1    5   14     -2.76      0.00
    4    5   14     -0.11      0.00
  -10    6   14     12.95      0.00
   -7    6   14      1.37      0.00
   -4    6   14     -4.43      0.00
   -1    6   14     -1.10      0.00
    2    6   14      4.68      0.00
    5    6   14      3.54      0.00
  -12    7   14     -8.11      0.00
   -9    7   14     -3.24      0.00
   -6    7   14      5.34      0.00
   -3    7   14      9.84      0.00
    0    7   14     -1.09      0.00
    3    7   14    -13.08      0.00
    6    7   14      3.14      0.00
  -14    8   14      1.86      0.00
  -11    8   14      1.90      0.00
   -8    8   14      6.73      0.00
   -5    8   14     -6.53      0.00
   -2    8   14     -7.75      0.00
    1    8   14      7.31      0.00
    4    8   14      4.57      0.00
    7    8   14     -8.67      0.00
  -16    9   14      3.81      0.00
  -13    9   14      0.15      0.00
  -10    9   14      8.17      0.00
   -7    9   14     -3.20      0.00
   -4    9   14      3.99      0.00
   -1    9   14     -0.26      0.00
    2    9   14      0.03      0.00
    5    9   14      5.37      0.00
    8    9   14      1.36      0.00
  -18   10   14    -11.17      0.00
  -15   10   14     -3.41      0.00
  -12   10   14     -4.78      0.00
   -9   10   14     -1.05      0.00
   -6   10   14     -5.05      0.00
   -3   10   14     -2.20      0.00
    0   10   14     -3.81      0.00
    3   10   14      2.29      0.00
    6   10   14      3.51      0.00
  -17   11   14     -1.38      0.00
  -14   11   14     -2.03      0.00
  -11   11   14      0.41      0.00
   -8   11   14      4.39      0.00
   -5   11   14     -3.01      0.00
   -2   11   14     -5.45      0.00
    1   11   14     -4.20      0.00
    4   11   14      1.63      0.00
    7   11   14      6.22      0.00
  -16   12   14     -9.15      0.00
  -13   12   14     -1.80      0.00
  -10   12   14     -1.75      0.00
   -7   12   14      0.04      0.00
   -4   12   14      3.24      0.00
   -1   12   14      1.00      0.00
    2   12   14     -1.05      0.00
    5   12   14     -1.09      0.00
  -18   13   14     -1.16      0.00
  -15   13   14     -2.30      0.00
  -12   13   14      4.82      0.00
   -9   13   14     -1.66      0.00
   -6   13   14      1.68      0.00
   -3   13   14      8.73      0.00
    0   13   14      5.27      0.00
    3   13   14     -6.31      0.00
  -17   14   14     -1.49      0.00
  -14   14   14      2.01      0.00
  -11   14   14     -1.34      0.00
   -8   14   14      1.20      0.00
   -5   14   14     -4.40      0.00
   -2   14   14      0.80      0.00
    1   14   14     -3.41      0.00
  -16   15   14      1.86      0.00
  -13   15   14     -0.73      0.00
  -10   15   14     -2.11      0.00
   -7   15   14      0.33      0.00
   -4   15   14     -5.47      0.00
   -1   15   14      3.13      0.00
    2   15   14      7.44      0.00
  -15   16   14     -3.58      0.00
  -12   16   14      2.20      0.00
   -9   16   14      5.21      0.00
   -6   16   14     10.86      0.00
   -3   16   14      2.14      0.00
    0   16   14     -2.82      0.00
  -14   17   14     -6.73      0.00
  -11   17   14     -9.02      0.00
   -8   17   14     -8.47      0.00
   -5   17   14     -7.00      0.00
   -2   17   14      1.63      0.00
  -13   18   14      1.97      0.00
  -10   18   14      2.54      0.00
   -7   18   14      3.61      0.00
   -4   18   14      3.71      0.00
    0    0   15     18.93      0.00
    1    1   15     13.51      0.00
   -1    2   15     -6.48      0.00
    2    2   15      1.71      0.00
   -3    3   15     -0.52      0.00
    0    3   15      0.09      0.00
    3    3   15      6.61      0.00
   -5    4   15     -0.86      0.00
   -2    4   15      2.39      0.00
    1    4   15     -2.26      0.00
    4    4   15      5.61      0.00
   -7    5   15     -4.11      0.00
   -4    5   15      3.12      0.00
   -1    5   15     -1.21      0.00
    2    5   15      3.14      0.00
    5    5   15    -11.04      0.00
   -9    6   15      3.25      0.00
   -6    6   15     -9.75      0.00
   -3    6   15     -4.08      0.00
    0    6   15     -2.23      0.00
    3    6   15      5.76      0.00
    6    6   15      1.89      0.00
  -11    7   15     -5.35      0.00
   -8    7   15     -2.81      0.00
   -5    7   15      4.13      0.00
   -2    7   15      1.19      0.00
    1    7   15     -6.30      0.00
    4    7   15      5.07      0.00
    7    7   15     -1.65      0.00
  -13    8   15      0.04      0.00
  -10    8   15     -8.30      0.00
   -7    8   15      1.19      0.00
   -4    8   15     -7.19      0.00
   -1    8   15      2.76      0.00
    2    8   15      4.13      0.00
    5    8   15     -8.11      0.00
    8    8   15    -12.34      0.00
  -15    9   15      7.00      0.00
  -12    9   15      7.92      0.00
   -9    9   15      0.50      0.00
   -6    9   15      7.11      0.00
   -3    9   15      4.33      0.00
    0    9   15      6.13      0.00
    3    9   15     -3.83      0.00
    6    9   15      3.93      0.00
    9    9   15     -3.43      0.00
  -17   10   15     11.55      0.00
  -14   10   15     -0.52      0.00
  -11   10   15     -2.41      0.00
   -8   10   15     -4.21      0.00
   -5   10   15     -3.46      0.00
   -2   10   15      0.30      0.00
    1   10   15      3.69      0.00
    4   10   15     -3.38      0.00
    7   10   15     -0.31      0.00
  -16   11   15      6.39      0.00
  -13   11   15      1.70      0.00
  -10   11   15     -0.45      0.00
   -7   11   15      1.79      0.00
   -4   11   15      0.72      0.00
   -1   11   15      7.85      0.00
    2   11   15     -4.82      0.00
    5   11   15      0.44      0.00
  -18   12   15     -4.61      0.00
  -15   12   15     10.40      0.00
  -12   12   15      4.11      0.00
   -9   12   15      0.22      0.00
   -6   12   15     -0.16      0.00
   -3   12   15     -4.87      0.00
    0   12   15      1.11      0.00
    3   12   15     13.97      0.00
    6   12   15    -13.13      0.00
  -17   13   15      0.85      0.00
  -14   13   15     -7.67      0.00
  -11   13   15     -4.98      0.00
   -8   13   15     -1.70      0.00
   -5   13   15      6.80      0.00
   -2   13   15     -3.02      0.00
    1   13   15     -0.50      0.00
    4   13   15     13.86      0.00
  -16   14   15      2.51      0.00
  -13   14   15      4.00      0.00
  -10   14   15      4.44      0.00
   -7   14   15     -4.49      0.00
   -4   14   15      9.07      0.00
   -1   14   15    -11.26      0.00
    2   14   15      5.16      0.00
  -15   15   15     -8.65      0.00
  -12   15   15     -5.13      0.00
   -9   15   15     -4.08      0.00
   -6   15   15     -8.09      0.00
   -3   15   15      3.16      0.00
    0   15   15      7.13      0.00
  -14   16   15      4.28      0.00
  -11   16   15      6.74      0.00
   -8   16   15      2.89      0.00
   -5   16   15     -1.14      0.00
   -2   16   15      0.41      0.00
  -13   17   15      1.78      0.00
  -10   17   15      1.82      0.00
   -7   17   15      0.61      0.00
   -4   17   15      5.15      0.00
  -12   18   15     -1.77      0.00
   -9   18   15      3.19      0.00
   -6   18   15     -1.26      0.00
   -1    1   16     -5.41      0.00
   -3    2   16     -8.92      0.00
    0    2   16      6.91      0.00
   -5    3   16     -7.69      0.00
   -2    3   16      0.27      0.00
    1    3   16      1.12      0.00
   -7    4   16      1.73      0.00
   -4    4   16      5.29      0.00
   -1    4   16      1.69      0.00
    2    4   16     -7.56      0.00
   -9    5   16     -2.79      0.00
   -6    5   16      6.03      0.00
   -3    5   16     -0.92      0.00
    0    5   16      5.92      0.00
    3    5   16     -6.04      0.00
  -11    6   16      4.58      0.00
   -8    6   16     -1.83      0.00
   -5    6   16      3.34      0.00
   -2    6   16      1.86      0.00
    1    6   16      1.90      0.00
    4    6   16     -7.15      0.00
  -13    7   16      1.17      0.00
  -10    7   16      6.12      0.00
   -7    7   16      1.64      0.00
   -4    7   16      3.85      0.00
   -1    7   16     -0.47      0.00
    2    7   16      4.15      0.00
    5    7   16      5.00      0.00
  -15    8   16      3.89      0.00
  -12    8   16      1.15      0.00
   -9    8   16      4.48      0.00
   -6    8   16     -6.34      0.00
   -3    8   16      8.34      0.00
    0    8   16     -1.36      0.00
    3    8   16      2.36      0.00
    6    8   16      5.42      0.00
  -17    9   16      5.29      0.00
  -14    9   16     -4.00      0.00
  -11    9   16     -3.93      0.00
   -8    9   16      0.12      0.00
   -5    9   16     -1.78      0.00
   -2    9   16     -4.60      0.00
    1    9   16     -8.44      0.00
    4    9   16      0.63      0.00
    7    9   16      8.52      0.00
  -16   10   16     -5.23      0.00
  -13   10   16     -2.37      0.00
  -10   10   16      5.13      0.00
   -7   10   16     -4.46      0.00
   -4   10   16      2.22      0.00
   -1   10   16     -8.95      0.00
    2   10   16     -4.75      0.00
    5   10   16     -9.33      0.00
  -15   11   16     -7.05      0.00
  -12   11   16     -5.13      0.00
   -9   11   16      0.51      0.00
   -6   11   16      0.99      0.00
   -3   11   16      2.46      0.00
    0   11   16      5.32      0.00
    3   11   16      6.57      0.00
    6   11   16      5.87      0.00
  -17   12   16     -3.71      0.00
  -14   12   16     -0.54      0.00
  -11   12   16     -5.92      0.00
   -8   12   16      7.10      0.00
   -5   12   16     -1.74      0.00
   -2   12   16     -4.27      0.00
    1   12   16      5.24      0.00
    4   12   16    -17.63      0.00
  -16   13   16     -0.90      0.00
  -13   13   16      5.67      0.00
  -10   13   16      3.18      0.00
   -7   13   16      4.03      0.00
   -4   13   16     -1.96      0.00
   -1   13   16      6.91      0.00
    2   13   16    -16.48      0.00
  -15   14   16      3.28      0.00
  -12   14   16      2.18      0.00
   -9   14   16     -1.15      0.00
   -6   14   16      0.63      0.00
   -3   14   16     -2.90      0.00
    0   14   16      1.46      0.00
  -14   15   16      0.43      0.00
  -11   15   16      3.07      0.00
   -8   15   16      0.73      0.00
   -5   15   16    -10.52      0.00
   -2   15   16     -1.69      0.00
  -13   16   16     -3.72      0.00
  -10   16   16     -9.13      0.00
   -7   16   16     -1.36      0.00
   -4   16   16      0.35      0.00
  -12   17   16      2.17      0.00
   -9   17   16      1.97      0.00
   -6   17   16     15.54      0.00
    0    1   17     -4.58      0.00
   -2    2   17      1.67      0.00
    1    2   17     -1.60      0.00
   -4    3   17      2.79      0.00
   -1    3   17     -7.76      0.00
    2    3   17      6.79      0.00
   -6    4   17     -2.29      0.00
   -3    4   17      2.69      0.00
    0    4   17     -1.31      0.00
    3    4   17      4.45      0.00
   -8    5   17      2.27      0.00
   -5    5   17     -1.91      0.00
   -2    5   17     -7.13      0.00
    1    5   17     -0.14      0.00
    4    5   17      5.10      0.00
  -10    6   17      4.39      0.00
   -7    6   17     -2.87      0.00
   -4    6   17     -7.12      0.00
   -1    6   17     -3.74      0.00
    2    6   17      1.04      0.00
    5    6   17      3.22      0.00
  -12    7   17     -9.30      0.00
   -9    7   17     -2.02      0.00
   -6    7   17      2.28      0.00
   -3    7   17     -9.48      0.00
    0    7   17      0.62      0.00
    3    7   17     -1.16      0.00
    6    7   17      0.51      0.00
  -14    8   17      7.01      0.00
  -11    8   17     -3.70      0.00
   -8    8   17      3.40      0.00
   -5    8   17      6.68      0.00
   -2    8   17      0.33      0.00
    1    8   17     -3.48      0.00
    4    8   17     -7.77      0.00
    7    8   17    -25.91      0.00
  -16    9   17     -2.19      0.00
  -13    9   17      1.56      0.00
  -10    9   17     -1.63      0.00
   -7    9   17     -5.51      0.00
   -4    9   17     -6.90      0.00
   -1    9   17      1.07      0.00
    2    9   17      5.86      0.00
    5    9   17      6.56      0.00
    8    9   17     -5.07      0.00
  -15   10   17     -5.56      0.00
  -12   10   17      9.89      0.00
   -9   10   17     -0.85      0.00
   -6   10   17      8.50      0.00
   -3   10   17      1.62      0.00
    0   10   17      6.35      0.00
    3   10   17      1.39      0.00
    6   10   17      3.93      0.00
  -14   11   17      4.01      0.00
  -11   11   17      0.20      0.00
   -8   11   17     -0.61      0.00
   -5   11   17     -4.07      0.00
   -2   11   17      2.00      0.00
    1   11   17    -10.72      0.00
    4   11   17     15.25      0.00
  -16   12   17      5.94      0.00
  -13   12   17     -5.72      0.00
  -10   12   17      3.52      0.00
   -7   12   17     -8.89      0.00
   -4   12   17     -1.11      0.00
   -1   12   17      3.43      0.00
    2   12   17     -0.65      0.00
  -15   13   17      0.56      0.00
  -12   13   17      8.97      0.00
   -9   13   17     -3.16      0.00
   -6   13   17     -2.37      0.00
   -3   13   17     -4.55      0.00
    0   13   17     -7.44      0.00
    3   13   17     13.07      0.00
  -14   14   17     -3.22      0.00
  -11   14   17    -13.93      0.00
   -8   14   17     -0.02      0.00
   -5   14   17     10.85      0.00
   -2   14   17     -6.10      0.00
    1   14   17      8.53      0.00
  -13   15   17      0.64      0.00
  -10   15   17      2.31      0.00
   -7   15   17      0.07      0.00
   -4   15   17      6.25      0.00
   -1   15   17      0.21      0.00
  -12   16   17     -2.25      0.00
   -9   16   17      9.65      0.00
   -6   16   17      0.36      0.00
   -3   16   17     14.03      0.00
   -8   17   17      6.60      0.00
    0    0   18     14.28      0.00
    1    1   18      6.19      0.00
   -1    2   18      2.92      0.00
    2    2   18     -7.47      0.00
   -3    3   18     -0.62      0.00
    0    3   18      3.23      0.00
    3    3   18      2.24      0.00
   -5    4   18     -3.04      0.00
   -2    4   18      1.99      0.00
    1    4   18     -1.53      0.00
    4    4   18      0.34      0.00
   -7    5   18      1.10      0.00
   -4    5   18      3.21      0.00
   -1    5   18     11.88      0.00
    2    5   18     -3.59      0.00
    5    5   18     -3.72      0.00
   -9    6   18    -10.10      0.00
   -6    6   18     -1.24      0.00
   -3    6   18      6.67      0.00
    0    6   18     -0.94      0.00
    3    6   18     -1.77      0.00
    6    6   18     -2.03      0.00
  -11    7   18      6.01      0.00
   -8    7   18     -4.43      0.00
   -5    7   18      1.80      0.00
   -2    7   18      8.65      0.00
    1    7   18     -2.15      0.00
    4    7   18     -1.23      0.00
    7    7   18      8.80      0.00
  -13    8   18     -1.31      0.00
  -10    8   18      5.48      0.00
   -7    8   18      2.43      0.00
   -4    8   18      1.75      0.00
   -1    8   18      0.51      0.00
    2    8   18     12.21      0.00
    5    8   18     -0.31      0.00
    8    8   18     13.43      0.00
  -15    9   18      0.98      0.00
  -12    9   18     -6.29      0.00
   -9    9   18     -1.29      0.00
   -6    9   18      4.45      0.00
   -3    9   18     -5.54      0.00
    0    9   18     -0.77      0.00
    3    9   18     -6.83      0.00
    6    9   18     12.27      0.00
  -14   10   18     10.27      0.00
  -11   10   18     -0.56      0.00
   -8   10   18     -4.01      0.00
   -5   10   18     -1.29      0.00
   -2   10   18      2.88      0.00
    1   10   18     -0.24      0.00
    4   10   18    -10.70      0.00
  -16   11   18      0.31      0.00
  -13   11   18     -8.72      0.00
  -10   11   18     -0.05      0.00
   -7   11   18     -3.01      0.00
   -4   11   18      6.19      0.00
   -1   11   18     -5.42      0.00
    2   11   18      4.27      0.00
    5   11   18    -13.65      0.00
  -15   12   18      0.04      0.00
  -12   12   18      0.64      0.00
   -9   12   18      3.57      0.00
   -6   12   18      8.77      0.00
   -3   12   18      7.03      0.00
    0   12   18     10.71      0.00
    3   12   18     -0.70      0.00
  -14   13   18     -3.35      0.00
  -11   13   18     -4.64      0.00
   -8   13   18      2.90      0.00
   -5   13   18      0.32      0.00
   -2   13   18      2.55      0.00
    1   13   18    -11.63      0.00
  -13   14   18      0.32      0.00
  -10   14   18      6.92      0.00
   -7   14   18      1.29      0.00
   -4   14   18     -9.56      0.00
   -1   14   18      9.83      0.00
  -12   15   18      8.09      0.00
   -9   15   18     -9.16      0.00
   -6   15   18     -9.31      0.00
   -3   15   18     -8.40      0.00
  -11   16   18      8.01      0.00
   -8   16   18    -12.55      0.00
   -5   16   18     15.21      0.00
   -1    1   19    -11.25      0.00
   -3    2   19     -9.85      0.00
    0    2   19      0.55      0.00
   -5    3   19      0.85      0.00
   -2    3   19      2.87      0.00
    1    3   19      8.75      0.00
   -7    4   19     -1.97      0.00
   -4    4   19      3.91      0.00
   -1    4   19    -11.32      0.00
    2    4   19     -1.47      0.00
   -9    5   19      4.60      0.00
   -6    5   19      7.85      0.00
   -3    5   19      6.20      0.00
    0    5   19     -8.42      0.00
    3    5   19      0.68      0.00
  -11    6   19     -2.79      0.00
   -8    6   19      1.04      0.00
   -5    6   19     -6.24      0.00
   -2    6   19    -10.26      0.00
    1    6   19      2.68      0.00
    4    6   19     -4.23      0.00
  -13    7   19      6.84      0.00
  -10    7   19      5.86      0.00
   -7    7   19      4.96      0.00
   -4    7   19     -5.26      0.00
   -1    7   19      1.85      0.00
    2    7   19     -3.67      0.00
    5    7   19      7.59      0.00
  -15    8   19    -15.67      0.00
  -12    8   19     -0.94      0.00
   -9    8   19      1.79      0.00
   -6    8   19    -10.68      0.00
   -3    8   19      4.29      0.00
    0    8   19      0.96      0.00
    3    8   19      6.63      0.00
    6    8   19     -7.81      0.00
  -14    9   19     -5.15      0.00
  -11    9   19     -6.37      0.00
   -8    9   19      4.10      0.00
   -5    9   19     -4.23      0.00
   -2    9   19      4.79      0.00
    1    9   19    -14.27      0.00
    4    9   19     -2.86      0.00
  -13   10   19     12.45      0.00
  -10   10   19      0.92      0.00
   -7   10   19      1.51      0.00
   -4   10   19    -10.23      0.00
   -1   10   19      0.13      0.00
    2   10   19      7.83      0.00
    5   10   19      7.16      0.00
  -15   11   19    -18.05      0.00
  -12   11   19     -7.39      0.00
   -9   11   19      1.92      0.00
   -6   11   19     16.01      0.00
   -3   11   19     -5.24      0.00
    0   11   19      1.17      0.00
    3   11   19      6.68      0.00
  -14   12   19     10.09      0.00
  -11   12   19      6.43      0.00
   -8   12   19    -12.06      0.00
   -5   12   19     -8.58      0.00
   -2   12   19     -8.70      0.00
    1   12   19     -1.20      0.00
  -13   13   19      4.96      0.00
  -10   13   19      1.86      0.00
   -7   13   19     -4.89      0.00
   -4   13   19      2.47      0.00
   -1   13   19     -4.78      0.00
  -12   14   19     -5.52      0.00
   -9   14   19      5.25      0.00
   -6   14   19     -5.99      0.00
   -3   14   19      5.14      0.00
  -11   15   19    -10.03      0.00
   -8   15   19     17.10      0.00
   -5   15   19      2.37      0.00
    0    1   20     -0.99      0.00
   -2    2   20      7.29      0.00
    1    2   20      2.64      0.00
   -4    3   20      7.22      0.00
   -1    3   20      2.72      0.00
    2    3   20    -12.36      0.00
   -6    4   20     -3.34      0.00
   -3    4   20     -6.89      0.00
    0    4   20     13.77      0.00
    3    4   20      4.99      0.00
   -8    5   20      1.95      0.00
   -5    5   20    -12.61      0.00
   -2    5   20    -10.86      0.00
    1    5   20      7.62      0.00
    4    5   20      1.58      0.00
  -10    6   20     -2.95      0.00
   -7    6   20      0.14      0.00
   -4    6   20      3.56      0.00
   -1    6   20     -1.11      0.00
    2    6   20      1.60      0.00
    5    6   20      6.32      0.00
  -12    7   20     -8.70      0.00
   -9    7   20     -9.59      0.00
   -6    7   20     13.21      0.00
   -3    7   20      9.12      0.00
    0    7   20     -5.48      0.00
    3    7   20      1.25      0.00
    6    7   20     -3.63      0.00
  -14    8   20      1.87      0.00
  -11    8   20      4.18      0.00
   -8    8   20    -10.66      0.00
   -5    8   20      3.07      0.00
   -2    8   20    -10.94      0.00
    1    8   20      3.72      0.00
    4    8   20    -15.74      0.00
  -13    9   20     -4.72      0.00
  -10    9   20      6.05      0.00
   -7    9   20      5.25      0.00
   -4    9   20      5.65      0.00
   -1    9   20     -0.22      0.00
    2    9   20      2.03      0.00
    5    9   20      9.18      0.00
  -12   10   20      2.23      0.00
   -9   10   20     -6.34      0.00
   -6   10   20    -14.34      0.00
   -3   10   20      9.53      0.00
    0   10   20      5.66      0.00
    3   10   20     -2.38      0.00
  -14   11   20      2.47      0.00
  -11   11   20      4.56      0.00
   -8   11   20      8.98      0.00
   -5   11   20      0.35      0.00
   -2   11   20      6.78      0.00
    1   11   20     -9.36      0.00
  -13   12   20     -7.00      0.00
  -10   12   20     -7.02      0.00
   -7   12   20      0.60      0.00
   -4   12   20     -8.98      0.00
   -1   12   20      3.41      0.00
  -12   13   20     -3.29      0.00
   -9   13   20     -0.26      0.00
   -6   13   20     18.42      0.00
   -3   13   20      5.10      0.00
  -11   14   20      5.01      0.00
   -8   14   20    -19.24      0.00
   -5   14   20      1.37      0.00
    0    0   21      6.28      0.00
    1    1   21     -1.93      0.00
   -1    2   21      5.72      0.00
    2    2   21      4.23      0.00
   -3    3   21     -3.51      0.00
    0    3   21    -17.14      0.00
    3    3   21     10.26      0.00
   -5    4   21      0.21      0.00
   -2    4   21      9.74      0.00
    1    4   21     -5.89      0.00
    4    4   21      6.29      0.00
   -7    5   21     -8.07      0.00
   -4    5   21     12.40      0.00
   -1    5   21     10.53      0.00
    2    5   21    -12.99      0.00
    5    5   21     -7.17      0.00
   -9    6   21      0.41      0.00
   -6    6   21     -1.40      0.00
   -3    6   21      2.37      0.00
    0    6   21      2.92      0.00
    3    6   21     -9.28      0.00
    6    6   21     -4.66      0.00
  -11    7   21      7.70      0.00
   -8    7   21     12.59      0.00
   -5    7   21    -11.26      0.00
   -2    7   21      4.76      0.00
    1    7   21      7.28      0.00
    4    7   21      9.82      0.00
    7    7   21      1.67      0.00
  -13    8   21      9.00      0.00
  -10    8   21      0.61      0.00
   -7    8   21     -5.08      0.00
   -4    8   21     -8.76      0.00
   -1    8   21     -0.87      0.00
    2    8   21      4.74      0.00
    5    8   21      5.30      0.00
  -12    9   21      1.11      0.00
   -9    9   21      5.92      0.00
   -6    9   21     12.33      0.00
   -3    9   21      5.04      0.00
    0    9   21     -9.73      0.00
    3    9   21     -1.96      0.00
  -11   10   21    -12.69      0.00
   -8   10   21     -4.52      0.00
   -5   10   21      2.00      0.00
   -2   10   21      2.94      0.00
    1   10   21      4.66      0.00
  -13   11   21     -0.32      0.00
  -10   11   21      1.96      0.00
   -7   11   21      2.73      0.00
   -4   11   21     -7.69      0.00
   -1   11   21     -6.65      0.00
    2   11   21      9.62      0.00
  -12   12   21      6.17      0.00
   -9   12   21     -0.11      0.00
   -6   12   21     -6.15      0.00
   -3   12   21      3.05      0.00
    0   12   21      8.12      0.00
  -11   13   21      1.59      0.00
   -8   13   21      4.50      0.00
   -5   13   21     -0.65      0.00
   -2   13   21     -5.14      0.00
   -7   14   21      8.03      0.00
   -1    1   22     -7.54      0.00
   -3    2   22     -1.20      0.00
    0    2   22     12.95      0.00
   -5    3   22    -11.09      0.00
   -2    3   22     -6.49      0.00
    1    3   22     15.90      0.00
   -7    4   22     -6.40      0.00
   -4    4   22     -0.93      0.00
   -1    4   22     -9.90      0.00
    2    4   22      6.85      0.00
   -9    5   22     -0.81      0.00
   -6    5   22      8.76      0.00
   -3    5   22     -1.49      0.00
    0    5   22     -7.56      0.00
    3    5   22      4.17      0.00
  -11    6   22      3.14      0.00
   -8    6   22     -2.98      0.00
   -5    6   22     -3.06      0.00
   -2    6   22    -17.06      0.00
    1    6   22     -3.64      0.00
    4    6   22      1.34      0.00
  -13    7   22     -5.93      0.00
  -10    7   22      2.62      0.00
   -7    7   22      4.38      0.00
   -4    7   22      5.51      0.00
   -1    7   22      0.15      0.00
    2    7   22     -0.88      0.00
    5    7   22      0.17      0.00
  -12    8   22    -11.79      0.00
   -9    8   22    -14.54      0.00
   -6    8   22     -9.72      0.00
   -3    8   22      6.71      0.00
    0    8   22     10.25      0.00
    3    8   22     -3.08      0.00
  -11    9   22      5.11      0.00
   -8    9   22      1.97      0.00
   -5    9   22     -9.47      0.00
   -2    9   22    -11.63      0.00
    1    9   22     -3.54      0.00
  -10   10   22      5.90      0.00
   -7   10   22      3.24      0.00
   -4   10   22      3.89      0.00
   -1   10   22     -3.58      0.00
    2   10   22     -0.30      0.00
   -9   11   22      2.43      0.00
   -6   11   22     -1.64      0.00
   -3   11   22      5.29      0.00
    0   11   22     -5.17      0.00
   -8   12   22     -6.62      0.00
   -5   12   22      0.11      0.00
   -2   12   22      9.06      0.00
   -7   13   22      7.20      0.00
    0    1   23      6.16      0.00
   -2    2   23      8.64      0.00
    1    2   23    -10.35      0.00
   -4    3   23     14.35      0.00
   -1    3   23      8.15      0.00
    2    3   23    -10.82      0.00
   -6    4   23     -7.21      0.00
   -3    4   23     -8.92      0.00
    0    4   23      5.93      0.00
    3    4   23      2.52      0.00
   -8    5   23     13.69      0.00
   -5    5   23      0.34      0.00
   -2    5   23     -0.45      0.00
    1    5   23      3.79      0.00
    4    5   23     -0.35      0.00
  -10    6   23    -13.47      0.00
   -7    6   23      2.12      0.00
   -4    6   23      6.18      0.00
   -1    6   23     11.51      0.00
    2    6   23      0.86      0.00
    5    6   23     -2.51      0.00
   -9    7   23      3.78      0.00
   -6    7   23     -3.57      0.00
   -3    7   23      3.36      0.00
    0    7   23     -6.13      0.00
    3    7   23      6.77      0.00
  -11    8   23     10.13      0.00
   -8    8   23     -3.82      0.00
   -5    8   23     17.39      0.00
   -2    8   23     -0.64      0.00
    1    8   23     -7.09      0.00
  -10    9   23      2.48      0.00
   -7    9   23      9.32      0.00
   -4    9   23      0.38      0.00
   -1    9   23      4.21      0.00
    2    9   23     -0.50      0.00
   -9   10   23     -5.30      0.00
   -6   10   23    -13.24      0.00
   -3   10   23      4.11      0.00
    0   10   23     10.93      0.00
   -8   11   23      7.15      0.00
   -5   11   23      2.79      0.00
   -2   11   23     -5.97      0.00
    0    0   24    -14.04      0.00
    1    1   24     -1.94      0.00
   -1    2   24     -5.66      0.00
    2    2   24     -2.12      0.00
   -3    3   24     -2.20      0.00
    0    3   24     -7.44      0.00
    3    3   24     12.97      0.00
   -5    4   24      0.02      0.00
   -2    4   24      7.10      0.00
    1    4   24      8.87      0.00
    4    4   24     -7.28      0.00
   -7    5   24    -12.87      0.00
   -4    5   24      2.88      0.00
   -1    5   24     -2.81      0.00
    2    5   24    -15.17      0.00
    5    5   24     12.49      0.00
   -9    6   24      5.46      0.00
   -6    6   24      1.33      0.00
   -3    6   24     -4.76      0.00
    0    6   24      1.62      0.00
    3    6   24    -11.38      0.00
   -8    7   24      1.84      0.00
   -5    7   24    -12.76      0.00
   -2    7   24    -10.07      0.00
    1    7   24     17.50      0.00
   -7    8   24     -3.12      0.00
   -4    8   24     -6.66      0.00
   -1    8   24     -3.00      0.00
   -9    9   24      1.16      0.00
   -6    9   24      1.85      0.00
   -3    9   24      6.07      0.00
    0    9   24     -8.96      0.00
   -8   10   24     -4.11      0.00
   -5   10   24     -0.19      0.00
   -1    1   25      9.32      0.00
   -3    2   25      4.62      0.00
    0    2   25      4.14      0.00
   -5    3   25     -8.27      0.00
   -2    3   25     -8.02      0.00
    1    3   25     -5.41      0.00
   -7    4   25     -2.53      0.00
   -4    4   25      1.63      0.00
   -1    4   25      5.63      0.00
    2    4   25      5.02      0.00
   -6    5   25      9.12      0.00
   -3    5   25     -4.37      0.00
    0    5   25    -10.34      0.00
    3    5   25     16.30      0.00
   -8    6   25     14.05      0.00
   -5    6   25     -2.50      0.00
   -2    6   25      1.13      0.00
    1    6   25     -5.80      0.00
   -7    7   25     -7.20      0.00
   -4    7   25     14.95      0.00
   -1    7   25     12.18      0.00
   -6    8   25     13.06      0.00
   -3    8   25     -2.28      0.00
    0    1   26     -7.56      0.00
   -2    2   26      3.95      0.00
    1    2   26      6.64      0.00
   -4    3   26     -6.95      0.00
   -1    3   26      2.38      0.00
    2    3   26     -2.29      0.00
   -6    4   26     12.54      0.00
   -3    4   26      4.62      0.00
    0    4   26      9.62      0.00
   -5    5   26     -0.63      0.00
   -2    5   26     -5.91      0.00
    1    5   26      1.99      0.00
   -4    6   26     -0.83      0.00
   -1    6   26      1.12      0.00
    0    0   27     11.37      0.00
    1    1   27     -7.31      0.00
   -1    2   27     -6.91      0.00
   -3    3   27     11.12      0.00
    0    3   27    -11.29      0.00
   -3    6    0    -62.21      0.00
  -14   22    0     -1.54      0.00
   -8   22    0      0.66      0.00
   -1    1    1   -264.37      0.00
  -22   13    1     -3.18      0.00
  -21   17    1      1.03      0.00
  -17   21    1     -3.01      0.00
  -13   22    1     -1.69      0.00
    0    1    2    128.10      0.00
  -22   12    2      2.64      0.00
    9   13    2      1.52      0.00
    4   17    2     -1.47      0.00
   -4   21    2     -1.44      0.00
  -12   22    2      4.15      0.00
   -9   22    2      0.37      0.00
   11   11    3      6.34      0.00
  -11   22    3     -4.49      0.00
   -2    6    4    -38.39      0.00
   10   12    4     -1.75      0.00
  -22   13    4      0.87      0.00
    5   16    4      2.12      0.00
  -20   18    4    -11.57      0.00
  -18   20    4     -5.96      0.00
   -5   21    4     -6.05      0.00
  -13   22    4      2.99      0.00
  -10   22    4     -1.26      0.00
  -21   16    5     -9.69      0.00
    0   19    5      6.16      0.00
  -16   21    5     -0.35      0.00
  -21   15    6     -4.26      0.00
    6   15    6     -1.08      0.00
  -15   21    6     -6.82      0.00
   -6   21    6    -10.11      0.00
  -21   14    7     -2.60      0.00
    3   17    7     -5.46      0.00
   -3   20    7     -4.56      0.00
  -14   21    7     -3.90      0.00
  -21   13    8      6.98      0.00
    7   14    8     -6.61      0.00
  -19   18    8    -11.07      0.00
  -18   19    8      2.14      0.00
  -13   21    8      3.95      0.00
   -7   21    8      7.92      0.00
  -21   12    9      3.11      0.00
    9   12    9      2.46      0.00
   -2   19    9     -2.57      0.00
  -12   21    9     -2.33      0.00
   -9   21    9     -6.71      0.00
    6   14   10      7.09      0.00
  -20   15   10     -1.58      0.00
  -15   20   10     -3.69      0.00
   -6   20   10     10.71      0.00
  -20   11   11     -8.47      0.00
    3   16   11     -7.12      0.00
    1   17   11     -3.02      0.00
   -1   18   11      0.34      0.00
   -3   19   11     -7.00      0.00
   10   10   12      5.52      0.00
  -10   20   12     -5.27      0.00
  -19   13   13      1.21      0.00
    2   16   13     -9.29      0.00
    0   17   13      4.27      0.00
   -2   18   13      0.16      0.00
  -13   19   13     -1.13      0.00
    9   10   14     -5.13      0.00
  -19   12   14      1.70      0.00
    4   14   14     -6.27      0.00
  -12   19   14     -1.71      0.00
   -9   19   14     -4.29      0.00
    8   10   16      2.68      0.00
  -18   11   16     -5.48      0.00
    3   14   16     -7.04      0.00
    1   15   16      0.40      0.00
   -1   16   16     -1.11      0.00
   -3   17   16     -6.14      0.00
  -11   18   16      3.08      0.00
   -8   18   16    -10.51      0.00
  -17   11   17      6.09      0.00
    5   12   17     -1.60      0.00
  -11   17   17     -2.11      0.00
   -5   17   17    -15.95      0.00
    7    9   19    -10.30      0.00
  -16   10   19      0.66      0.00
    0   14   19      4.45      0.00
  -10   16   19    -10.72      0.00
   -7   16   19     12.91      0.00
    7    8   20     10.74      0.00
  -15   10   20      9.44      0.00
    2   12   20      1.18      0.00
    0   13   20     -5.76      0.00
   -2   14   20     -1.48      0.00
  -10   15   20     10.46      0.00
   -7   15   20     -9.01      0.00
  -14   10   21     -2.17      0.00
    4   10   21     -6.29      0.00
  -10   14   21     -3.71      0.00
   -4   14   21      0.30      0.00
    4    9   22     -2.37      0.00
  -12   11   22     -1.64      0.00
  -11   12   22     -5.21      0.00
   -4   13   22     -9.85      0.00
  -12    7   23      6.80      0.00
    4    8   23     -1.97      0.00
   -7   12   23     -2.78      0.00
   -4   12   23     -1.44      0.00
  -11    7   24     -5.87      0.00
    4    7   24      2.93      0.00
  -10    8   24     -8.08      0.00
    2    8   24      1.76      0.00
   -2   10   24     -5.02      0.00
   -7   11   24      1.57      0.00
   -4   11   24      1.58      0.00
   -9    5   25    -14.45      0.00
    2    7   25     -7.12      0.00
    0    8   25      1.53      0.00
   -5    9   25     -4.62      0.00
   -2    9   25     -4.99      0.00
    3    4   26     -8.85      0.00
   -7    6   26    -13.54      0.00
   -6    7   26     -2.73      0.00
   -3    7   26     -3.51      0.00
    2    2   27     -0.12      0.00
   -2    4   27      2.44      0.00
    0    0    0      0.00      0.00
# SQUEEZE RESULTS (Version =  30118)
# Note: Data are Listed for all Voids in the P1 Unit Cell
# i.e. Centre of Gravity, Solvent Accessible Volume,
# Recovered number of Electrons in the Void and
# Details about the Squeezed Material
loop_
  _platon_squeeze_void_nr
  _platon_squeeze_void_average_x
  _platon_squeeze_void_average_y
  _platon_squeeze_void_average_z
  _platon_squeeze_void_volume
  _platon_squeeze_void_count_electrons
  _platon_squeeze_void_content
   1 -0.017 -0.011  0.440      3747       990 ' '
# Missing Reflections Below sin(th)/lambda = 0.25
loop_
  _platon_missing_refln_index_h
  _platon_missing_refln_index_k
  _platon_missing_refln_index_l
  _platon_missing_refln_theta
   -3    6    0     6.584
   -1    1    1     1.543
    0    1    2     2.173
   -2    6    4     7.588
_platon_squeeze_void_probe_radius                  1.20
_platon_squeeze_details
)
TITL shelx     R -3 :h      R = 0.14
CELL   18.5950   18.5950   23.0480     90.00     90.00    120.00
SPGR R-3
# Solvent Accessible Volume =      3747
# Electrons Found in S.A.V. =       974
# Note: Atoms in Void are Labelled as Cxxx and Qxxx for all Others
C101 0.093 0.343 0.070 !       1.86 eA-3
C102 0.302 0.079 0.430 !       1.81 eA-3
C103 0.235 0.315 0.597 !       1.78 eA-3
C104 0.141 0.346 0.454 !       1.60 eA-3
C105 0.999 0.997 0.399 !       1.40 eA-3
C106 0.905 0.285 0.382 !       1.33 eA-3
C107 0.512 0.970 0.915 !       1.31 eA-3
C108 0.326 0.375 0.307 !       1.26 eA-3
C109 0.574 0.878 0.116 !       1.19 eA-3
C110 0.625 0.843 0.186 !       1.12 eA-3
C111 0.293 0.970 0.335 !       1.08 eA-3
C112 0.351 0.089 0.439 !       1.08 eA-3
C113 0.871 0.203 0.421 !       1.06 eA-3
C114 0.271 0.034 0.390 !       1.06 eA-3
C115 0.963 0.484 0.047 !       1.04 eA-3
C116 0.707 0.859 0.288 !       1.04 eA-3
C117 0.340 0.154 0.515 !       1.04 eA-3
C118 0.405 0.968 0.022 !       1.02 eA-3
C119 0.317 0.701 0.060 !       1.01 eA-3
C120 0.516 0.218 0.734 !       0.96 eA-3
C121 0.015 0.517 0.122 !       0.94 eA-3
C122 0.830 0.108 0.412 !       0.93 eA-3
C123 0.702 0.814 0.429 !       0.91 eA-3
C124 0.114 0.384 0.266 !       0.91 eA-3
C125 0.113 0.671 0.102 !       0.88 eA-3
C126 1.003 0.998 0.429 !       0.88 eA-3
C127 0.691 0.802 0.319 !       0.88 eA-3
C128 0.424 0.046 0.974 !       0.87 eA-3
C129 0.793 0.716 0.604 !       0.87 eA-3
C130 0.212 0.835 0.084 !       0.87 eA-3
C131 0.777 0.644 0.657 !       0.87 eA-3
C132 0.593 0.816 0.338 !       0.87 eA-3
C133 0.892 0.907 0.398 !       0.86 eA-3
C134 0.374 0.168 0.664 !       0.86 eA-3
Q135 0.014 0.982 0.952 !       0.86 eA-3
C136 0.362 0.916 0.249 !       0.85 eA-3
C137 0.032 0.484 0.036 !       0.83 eA-3
Q138 0.918 0.668 0.985 !       0.83 eA-3
C139 0.484 0.032 0.985 !       0.83 eA-3
C140 0.080 0.672 0.183 !       0.82 eA-3
C141 0.028 0.951 0.396 !       0.81 eA-3
C142 0.363 0.134 0.711 !       0.81 eA-3
C143 0.855 0.216 0.712 !       0.81 eA-3
C144 0.325 0.156 0.483 !       0.81 eA-3
C145 0.610 0.062 0.827 !       0.80 eA-3
C146 0.474 0.467 0.765 !       0.79 eA-3
Q147 0.758 0.645 0.366 !       0.79 eA-3
C148 0.397 0.454 0.194 !       0.79 eA-3
C149 0.127 0.857 0.423 !       0.79 eA-3
C150 0.253 0.858 0.274 !       0.79 eA-3
C151 0.081 0.330 0.313 !       0.78 eA-3
C152 0.751 0.051 0.493 !       0.77 eA-3
C153 0.278 0.377 0.269 !       0.77 eA-3
C154 0.727 0.590 0.842 !       0.77 eA-3
C155 0.191 0.408 0.164 !       0.76 eA-3
C156 0.793 0.672 0.932 !       0.75 eA-3
C157 0.875 0.939 0.383 !       0.75 eA-3
C158 0.422 0.220 0.704 !       0.75 eA-3
C159 0.092 0.516 0.186 !       0.74 eA-3
Q160 0.688 0.042 0.023 !       0.74 eA-3
C161 1.003 0.910 0.422 !       0.74 eA-3
C162 0.661 0.137 0.784 !       0.74 eA-3
C163 0.970 0.238 0.345 !       0.73 eA-3
C164 0.607 0.516 0.899 !       0.73 eA-3
C165 0.706 0.127 0.812 !       0.71 eA-3
C166 0.154 0.218 0.439 !       0.71 eA-3
C167 0.392 0.530 0.272 !       0.70 eA-3
C168 0.092 0.905 0.515 !       0.69 eA-3
C169 0.045 0.874 0.367 !       0.69 eA-3
C170 0.864 0.665 0.645 !       0.69 eA-3
C171 0.295 0.107 0.617 !       0.69 eA-3
Q172 0.513 0.441 0.050 !       0.69 eA-3
C173 0.217 0.721 0.313 !       0.69 eA-3
C174 0.262 0.859 0.192 !       0.68 eA-3
C175 0.294 0.355 0.210 !       0.68 eA-3
Q176 0.717 0.750 0.320 !       0.68 eA-3
Q177 0.500 0.496 0.279 !       0.68 eA-3
C178 0.852 0.186 0.859 !       0.68 eA-3
C179 0.174 0.249 0.335 !       0.67 eA-3
C180 0.696 0.768 0.460 !       0.66 eA-3
C181 0.392 0.996 0.044 !       0.66 eA-3
C182 0.436 0.768 0.045 !       0.65 eA-3
C183 0.015 0.312 0.009 !       0.64 eA-3
Q184 0.180 0.937 0.046 !       0.64 eA-3
C185 0.096 0.188 0.397 !       0.62 eA-3
Q186 0.623 0.813 0.565 !       0.62 eA-3
Q187 0.080 0.310 0.158 !       0.62 eA-3
C188 0.251 0.455 0.117 !       0.62 eA-3
C189 0.943 0.076 0.537 !       0.62 eA-3
C190 0.853 0.395 0.854 !       0.61 eA-3
Q191 0.611 0.078 0.319 !       0.58 eA-3
Q192 0.218 0.346 0.022 !       0.57 eA-3
Q193 0.863 0.422-0.001 !       0.57 eA-3
Q194 0.182 0.809 0.536 !       0.57 eA-3
C195 0.979 0.204 0.355 !       0.57 eA-3
Q196 0.028 0.859 0.322 !       0.56 eA-3
C197 0.444 0.591 0.270 !       0.56 eA-3
C198 0.108 0.576 0.181 !       0.56 eA-3
C199 0.097 0.878 0.461 !       0.55 eA-3
)
;
_shelx_fab_checksum              33841
loop_
_space_group_symop_operation_xyz
'x, y, z'
'-y, x-y, z'
'-x+y, -x, z'
'x+2/3, y+1/3, z+1/3'
'-y+2/3, x-y+1/3, z+1/3'
'-x+y+2/3, -x+1/3, z+1/3'
'x+1/3, y+2/3, z+2/3'
'-y+1/3, x-y+2/3, z+2/3'
'-x+y+1/3, -x+2/3, z+2/3'
'-x, -y, -z'
'y, -x+y, -z'
'x-y, x, -z'
'-x+2/3, -y+1/3, -z+1/3'
'y+2/3, -x+y+1/3, -z+1/3'
'x-y+2/3, x+1/3, -z+1/3'
'-x+1/3, -y+2/3, -z+2/3'
'y+1/3, -x+y+2/3, -z+2/3'
'x-y+1/3, x+2/3, -z+2/3'
loop_
_atom_site_label
_atom_site_type_symbol
_atom_site_fract_x
_atom_site_fract_y
_atom_site_fract_z
_atom_site_U_iso_or_equiv
_atom_site_adp_type
_atom_site_occupancy
_atom_site_site_symmetry_order
_atom_site_calc_flag
_atom_site_refinement_flags_posn
_atom_site_refinement_flags_adp
_atom_site_refinement_flags_occupancy
_atom_site_disorder_assembly
_atom_site_disorder_group
Ni01 Ni 0.666667 0.333333 0.333333 0.1151(14) Uani 1 6 d S T P . .
N1 N 0.5879(3) 0.3558(3) 0.3858(4) 0.111(3) Uani 1 1 d . . . . .
N2 N 0.5127(3) 0.4083(3) 0.4174(4) 0.109(3) Uani 1 1 d . . . . .
C4 C 0.4760(4) 0.4607(4) 0.4205(5) 0.119(3) Uani 1 1 d . . . . .
C3 C 0.5659(4) 0.4148(4) 0.3795(4) 0.113(3) Uani 1 1 d . . . . .
H3 H 0.587147 0.455503 0.350881 0.135 Uiso 1 1 calc R U . . .
C7 C 0.4083(4) 0.5637(4) 0.4239(5) 0.128(4) Uani 1 1 d . . . . .
C10 C 0.3692(4) 0.6157(4) 0.4238(5) 0.121(4) Uani 1 1 d . . . . .
C11 C 0.2841(4) 0.5816(5) 0.4229(5) 0.137(4) Uani 1 1 d . . . . .
H8 H 0.250580 0.524149 0.421581 0.164 Uiso 1 1 calc R U . . .
C2 C 0.4942(5) 0.3428(5) 0.4516(5) 0.126(3) Uani 1 1 d . . . . .
H2 H 0.457123 0.323164 0.482460 0.151 Uiso 1 1 calc R U . . .
C1 C 0.5426(5) 0.3109(5) 0.4307(5) 0.120(3) Uani 1 1 d . . . . .
H1 H 0.543322 0.264860 0.445834 0.144 Uiso 1 1 calc R U . . .
C9 C 0.4029(4) 0.4339(5) 0.4485(5) 0.147(4) Uani 1 1 d . . . . .
H7 H 0.376303 0.382428 0.466723 0.177 Uiso 1 1 calc R U . . .
C8 C 0.3681(5) 0.4857(5) 0.4492(5) 0.140(4) Uani 1 1 d . . . . .
H6 H 0.317075 0.467311 0.467174 0.168 Uiso 1 1 calc R U . . .
C6 C 0.4830(5) 0.5886(5) 0.3976(5) 0.149(4) Uani 1 1 d . . . . .
H5 H 0.511581 0.641313 0.381134 0.178 Uiso 1 1 calc R U . . .
C5 C 0.5169(5) 0.5381(5) 0.3949(5) 0.146(4) Uani 1 1 d . . . . .
H4 H 0.567058 0.555758 0.375830 0.175 Uiso 1 1 calc R U . . .
loop_
_atom_site_aniso_label
_atom_site_aniso_U_11
_atom_site_aniso_U_22
_atom_site_aniso_U_33
_atom_site_aniso_U_23
_atom_site_aniso_U_13
_atom_site_aniso_U_12
Ni01 0.0521(9) 0.0521(9) 0.241(4) 0.000 0.000 0.0260(4)
N1 0.052(3) 0.061(3) 0.214(8) 0.020(4) 0.011(4) 0.024(3)
N2 0.053(3) 0.060(4) 0.217(8) 0.009(4) 0.029(4) 0.030(3)
C4 0.059(4) 0.053(4) 0.241(11) 0.012(5) 0.004(5) 0.024(3)
C3 0.066(4) 0.048(4) 0.219(10) -0.002(5) 0.003(6) 0.024(3)
C7 0.063(4) 0.063(4) 0.259(12) 0.006(6) 0.008(6) 0.033(4)
C10 0.060(4) 0.056(4) 0.252(11) 0.019(5) 0.025(5) 0.032(3)
C11 0.066(5) 0.075(5) 0.273(13) -0.012(6) -0.006(6) 0.038(4)
C2 0.100(6) 0.077(5) 0.208(11) 0.014(6) 0.009(6) 0.049(5)
C1 0.094(6) 0.090(5) 0.196(10) 0.023(6) 0.020(6) 0.061(5)
C9 0.063(5) 0.068(5) 0.310(14) 0.011(6) 0.016(6) 0.032(4)
C8 0.074(5) 0.082(5) 0.280(13) -0.008(6) 0.006(6) 0.052(4)
C6 0.085(6) 0.082(5) 0.295(14) 0.027(7) 0.034(7) 0.053(5)
C5 0.075(5) 0.092(6) 0.279(13) 0.040(7) 0.051(6) 0.049(5)
loop_
_atom_type_symbol
_atom_type_description
_atom_type_scat_dispersion_real
_atom_type_scat_dispersion_imag
_atom_type_scat_source
C C 0.0033 0.0016 'International Tables Vol C Tables 4.2.6.8 and 6.1.1.4'
H H 0.0000 0.0000 'International Tables Vol C Tables 4.2.6.8 and 6.1.1.4'
N N 0.0061 0.0033 'International Tables Vol C Tables 4.2.6.8 and 6.1.1.4'
Ni Ni 0.3393 1.1124 'International Tables Vol C Tables 4.2.6.8 and 6.1.1.4'
loop_
_geom_angle_atom_site_label_1
_geom_angle_atom_site_label_2
_geom_angle_atom_site_label_3
_geom_angle
_geom_angle_site_symmetry_1
_geom_angle_site_symmetry_3
_geom_angle_publ_flag
N1 Ni01 N1 90.0(3) . 17 ?
N1 Ni01 N1 90.1(3) . 2_655 ?
N1 Ni01 N1 180.0 17 2_655 ?
N1 Ni01 N1 90.1(3) . 3_665 ?
N1 Ni01 N1 89.9(3) 17 3_665 ?
N1 Ni01 N1 90.1(3) 2_655 3_665 ?
N1 Ni01 N1 90.0(3) . 18_545 ?
N1 Ni01 N1 90.1(3) 17 18_545 ?
N1 Ni01 N1 89.9(3) 2_655 18_545 ?
N1 Ni01 N1 180.0 3_665 18_545 ?
N1 Ni01 N1 180.0 . 16_655 ?
N1 Ni01 N1 90.0(3) 17 16_655 ?
N1 Ni01 N1 89.9(3) 2_655 16_655 ?
N1 Ni01 N1 89.9(3) 3_665 16_655 ?
N1 Ni01 N1 90.0(3) 18_545 16_655 ?
C1 N1 C3 103.9(7) . . ?
C1 N1 Ni01 127.4(5) . . ?
C3 N1 Ni01 128.5(7) . . ?
C3 N2 C2 108.8(6) . . ?
C3 N2 C4 125.0(8) . . ?
C2 N2 C4 126.1(8) . . ?
C9 C4 C5 121.0(7) . . ?
C9 C4 N2 120.1(7) . . ?
C5 C4 N2 118.9(7) . . ?
N2 C3 N1 112.4(8) . . ?
N2 C3 H3 123.8 . . ?
N1 C3 H3 123.8 . . ?
C6 C7 C8 117.9(7) . . ?
C6 C7 C10 121.9(7) . . ?
C8 C7 C10 120.2(7) . . ?
C11 C10 C11 117.8(7) . 2_665 ?
C11 C10 C7 121.9(6) . . ?
C11 C10 C7 120.3(6) 2_665 . ?
C10 C11 C10 122.2(7) . 3_565 ?
C10 C11 H8 118.9 . . ?
C10 C11 H8 118.9 3_565 . ?
N2 C2 C1 105.0(8) . . ?
N2 C2 H2 127.5 . . ?
C1 C2 H2 127.5 . . ?
N1 C1 C2 110.0(7) . . ?
N1 C1 H1 125.0 . . ?
C2 C1 H1 125.0 . . ?
C4 C9 C8 118.4(8) . . ?
C4 C9 H7 120.8 . . ?
C8 C9 H7 120.8 . . ?
C7 C8 C9 121.4(8) . . ?
C7 C8 H6 119.3 . . ?
C9 C8 H6 119.3 . . ?
C5 C6 C7 121.7(8) . . ?
C5 C6 H5 119.2 . . ?
C7 C6 H5 119.2 . . ?
C6 C5 C4 119.6(8) . . ?
C6 C5 H4 120.2 . . ?
C4 C5 H4 120.2 . . ?
loop_
_geom_bond_atom_site_label_1
_geom_bond_atom_site_label_2
_geom_bond_distance
_geom_bond_site_symmetry_2
_geom_bond_publ_flag
Ni01 N1 2.097(7) . ?
Ni01 N1 2.097(7) 17 ?
Ni01 N1 2.097(7) 2_655 ?
Ni01 N1 2.097(7) 3_665 ?
Ni01 N1 2.097(7) 18_545 ?
Ni01 N1 2.098(7) 16_655 ?
N1 C1 1.331(10) . ?
N1 C3 1.357(8) . ?
N2 C3 1.279(10) . ?
N2 C2 1.342(10) . ?
N2 C4 1.444(8) . ?
C4 C9 1.355(11) . ?
C4 C5 1.380(10) . ?
C3 H3 0.9300 . ?
C7 C6 1.366(11) . ?
C7 C8 1.386(11) . ?
C7 C10 1.472(9) . ?
C10 C11 1.381(9) . ?
C10 C11 1.402(8) 2_665 ?
C11 H8 0.9300 . ?
C2 C1 1.389(10) . ?
C2 H2 0.9300 . ?
C1 H1 0.9300 . ?
C9 C8 1.402(9) . ?
C9 H7 0.9300 . ?
C8 H6 0.9300 . ?
C6 C5 1.370(9) . ?
C6 H5 0.9300 . ?
C5 H4 0.9300 . ?
